REMARK  Name = 100610997
REMARK  6 active torsions:
REMARK  status: ('A' for Active; 'I' for Inactive)
REMARK    1  A    between atoms: N_2  and  C_12
REMARK    2  A    between atoms: N_2  and  C_13
REMARK    3  A    between atoms: N_3  and  C_11
REMARK    4  A    between atoms: N_3  and  C_14
REMARK    5  A    between atoms: C_5  and  C_7
REMARK    6  A    between atoms: C_11  and  C_15
REMARK                            x       y       z     vdW  Elec       q    Type
REMARK                         _______ _______ _______ _____ _____    ______ ____
ROOT
ATOM      1  N   UNL     1      -3.608  -0.259  -0.112  0.00  0.00    +0.000 N 
ATOM      2  N   UNL     1      -1.727   0.996  -0.863  0.00  0.00    +0.000 NA
ATOM      3  C   UNL     1       0.391   0.762   0.279  0.00  0.00    +0.000 A 
ATOM      4  C   UNL     1      -2.243   0.100   0.009  0.00  0.00    +0.000 A 
ATOM      5  C   UNL     1      -0.175  -0.156   1.157  0.00  0.00    +0.000 A 
ATOM      6  C   UNL     1      -1.517  -0.498   1.026  0.00  0.00    +0.000 A 
ATOM      7  C   UNL     1      -0.421   1.304  -0.705  0.00  0.00    +0.000 A 
ATOM      8  C   UNL     1      -4.192  -1.214   0.803  0.00  0.00    +0.000 C 
ATOM      9  C   UNL     1      -4.427   0.333  -1.146  0.00  0.00    +0.000 C 
ENDROOT
BRANCH   3  12
ATOM     10  O   UNL     1       2.056   2.102   1.125  0.00  0.00    +0.000 OA
ATOM     11  N   UNL     1       2.755   0.401  -0.318  0.00  0.00    +0.000 N 
ATOM     12  C   UNL     1       1.807   1.145   0.392  0.00  0.00    +0.000 C 
ATOM     13  C   UNL     1       4.179   0.697  -0.255  0.00  0.00    +0.000 C 
BRANCH  11  14
ATOM     14  C   UNL     1       2.380  -0.725  -1.171  0.00  0.00    +0.000 C 
BRANCH  14  15
ATOM     15  C   UNL     1       2.374  -1.978  -0.417  0.00  0.00    +0.000 C 
ATOM     16  C   UNL     1       2.369  -3.009   0.198  0.00  0.00    +0.000 C 
ENDBRANCH  14  15
ENDBRANCH  11  14
ENDBRANCH   3  12
TORSDOF 3
