REMARK  Name = 104854617
REMARK  6 active torsions:
REMARK  status: ('A' for Active; 'I' for Inactive)
REMARK    1  A    between atoms: N_5  and  C_8
REMARK    2  A    between atoms: N_5  and  C_12
REMARK    3  A    between atoms: C_8  and  C_9
REMARK    4  A    between atoms: C_8  and  C_10
REMARK    5  A    between atoms: C_9  and  C_11
REMARK    6  A    between atoms: C_13  and  C_15
REMARK                            x       y       z     vdW  Elec       q    Type
REMARK                         _______ _______ _______ _____ _____    ______ ____
ROOT
ATOM      1  N   UNL     1      -1.254   1.797   0.274  0.00  0.00    +0.000 NA
ATOM      2  C   UNL     1      -0.987   0.516  -0.066  0.00  0.00    +0.000 A 
ATOM      3  C   UNL     1      -1.900  -0.520   0.038  0.00  0.00    +0.000 A 
ATOM      4  C   UNL     1      -3.169  -0.224   0.522  0.00  0.00    +0.000 A 
ATOM      5  C   UNL     1      -3.482   1.082   0.882  0.00  0.00    +0.000 A 
ATOM      6  C   UNL     1      -2.498   2.047   0.740  0.00  0.00    +0.000 A 
ENDROOT
BRANCH   3   9
ATOM      7  O   UNL     1      -1.121  -2.696   0.496  0.00  0.00    +0.000 OA
ATOM      8  N   UNL     1      -1.825  -2.279  -1.646  0.00  0.00    +0.000 N 
ATOM      9  C   UNL     1      -1.580  -1.892  -0.333  0.00  0.00    +0.000 C 
ATOM     10  H   UNL     1      -2.205  -1.638  -2.335  0.00  0.00    +0.000 HD
ATOM     11  H   UNL     1      -1.627  -3.224  -1.957  0.00  0.00    +0.000 HD
ENDBRANCH   3   9
BRANCH   2  12
ATOM     12  N   UNL     1       0.279   0.229  -0.543  0.00  0.00    +0.000 N 
ATOM     13  H   UNL     1       0.380  -0.614  -1.101  0.00  0.00    +0.000 HD
BRANCH  12  14
ATOM     14  C   UNL     1       1.322   1.222  -0.699  0.00  0.00    +0.000 C 
ATOM     15  C   UNL     1       1.048   2.025  -1.967  0.00  0.00    +0.000 C 
BRANCH  14  16
ATOM     16  C   UNL     1       2.694   0.541  -0.769  0.00  0.00    +0.000 C 
BRANCH  16  20
ATOM     17  F   UNL     1       4.261  -0.812   0.356  0.00  0.00    +0.000 F 
ATOM     18  F   UNL     1       3.030   0.500   1.584  0.00  0.00    +0.000 F 
ATOM     19  F   UNL     1       2.151  -1.272   0.656  0.00  0.00    +0.000 F 
ATOM     20  C   UNL     1       3.030  -0.264   0.472  0.00  0.00    +0.000 C 
ENDBRANCH  16  20
ENDBRANCH  14  16
ENDBRANCH  12  14
ENDBRANCH   2  12
TORSDOF 5
