REMARK  Name = 105943045
REMARK  5 active torsions:
REMARK  status: ('A' for Active; 'I' for Inactive)
REMARK    1  A    between atoms: N_5  and  C_8
REMARK    2  A    between atoms: C_8  and  C_9
REMARK    3  A    between atoms: C_8  and  C_10
REMARK    4  A    between atoms: C_9  and  C_11
REMARK    5  A    between atoms: C_12  and  C_13
REMARK                            x       y       z     vdW  Elec       q    Type
REMARK                         _______ _______ _______ _____ _____    ______ ____
ROOT
ATOM      1  O   UNL     1      -0.001  -2.009  -1.238  0.00  0.00    +0.000 OA
ATOM      2  N   UNL     1       0.912  -0.675   0.425  0.00  0.00    +0.000 N 
ATOM      3  C   UNL     1      -0.120  -1.145  -0.374  0.00  0.00    +0.000 C 
ATOM      4  H   UNL     1       0.743   0.051   1.113  0.00  0.00    +0.000 HD
ENDROOT
BRANCH   3   7
ATOM      5  N   UNL     1      -3.609   0.105  -1.042  0.00  0.00    +0.000 NA
ATOM      6  N   UNL     1      -5.174   1.225   0.364  0.00  0.00    +0.000 N 
ATOM      7  C   UNL     1      -1.447  -0.514  -0.155  0.00  0.00    +0.000 A 
ATOM      8  C   UNL     1      -1.787   0.033   1.077  0.00  0.00    +0.000 A 
ATOM      9  C   UNL     1      -2.385  -0.453  -1.173  0.00  0.00    +0.000 A 
ATOM     10  C   UNL     1      -3.037   0.616   1.251  0.00  0.00    +0.000 A 
ATOM     11  C   UNL     1      -3.904   0.627   0.170  0.00  0.00    +0.000 A 
ATOM     12  H   UNL     1      -5.571   1.223   1.295  0.00  0.00    +0.000 HD
ATOM     13  H   UNL     1      -5.807   1.225  -0.427  0.00  0.00    +0.000 HD
ENDBRANCH   3   7
BRANCH   2  14
ATOM     14  C   UNL     1       2.264  -1.170   0.315  0.00  0.00    +0.000 C 
ATOM     15  C   UNL     1       2.438  -2.401   1.200  0.00  0.00    +0.000 C 
BRANCH  14  16
ATOM     16  C   UNL     1       3.285  -0.087   0.685  0.00  0.00    +0.000 C 
BRANCH  16  20
ATOM     17  F   UNL     1       4.106   2.081   0.159  0.00  0.00    +0.000 F 
ATOM     18  F   UNL     1       3.320   0.872  -1.482  0.00  0.00    +0.000 F 
ATOM     19  F   UNL     1       1.962   1.735  -0.011  0.00  0.00    +0.000 F 
ATOM     20  C   UNL     1       3.176   1.161  -0.171  0.00  0.00    +0.000 C 
ENDBRANCH  16  20
ENDBRANCH  14  16
ENDBRANCH   2  14
TORSDOF 4
