REMARK  Name = 105943000
REMARK  6 active torsions:
REMARK  status: ('A' for Active; 'I' for Inactive)
REMARK    1  A    between atoms: N_5  and  C_8
REMARK    2  A    between atoms: N_7  and  C_14
REMARK    3  A    between atoms: C_8  and  C_9
REMARK    4  A    between atoms: C_8  and  C_10
REMARK    5  A    between atoms: C_9  and  C_11
REMARK    6  A    between atoms: C_12  and  C_13
REMARK                            x       y       z     vdW  Elec       q    Type
REMARK                         _______ _______ _______ _____ _____    ______ ____
ROOT
ATOM      1  O   UNL     1      -0.442   1.547   1.482  0.00  0.00    +0.000 OA
ATOM      2  N   UNL     1       0.651   0.626  -0.344  0.00  0.00    +0.000 N 
ATOM      3  C   UNL     1      -0.429   0.801   0.507  0.00  0.00    +0.000 C 
ATOM      4  H   UNL     1       0.551   0.022  -1.155  0.00  0.00    +0.000 HD
ENDROOT
BRANCH   3   6
ATOM      5  N   UNL     1      -3.981  -0.155  -0.372  0.00  0.00    +0.000 NA
ATOM      6  C   UNL     1      -1.636  -0.010   0.198  0.00  0.00    +0.000 A 
ATOM      7  C   UNL     1      -2.867   0.557  -0.090  0.00  0.00    +0.000 A 
ATOM      8  C   UNL     1      -1.542  -1.397   0.197  0.00  0.00    +0.000 A 
ATOM      9  C   UNL     1      -2.666  -2.164  -0.088  0.00  0.00    +0.000 A 
ATOM     10  C   UNL     1      -3.851  -1.501  -0.363  0.00  0.00    +0.000 A 
BRANCH   7  11
ATOM     11  N   UNL     1      -2.971   1.971  -0.089  0.00  0.00    +0.000 N 
ATOM     12  H   UNL     1      -2.372   2.501   0.532  0.00  0.00    +0.000 HD
ATOM     13  H   UNL     1      -3.881   2.357  -0.306  0.00  0.00    +0.000 HD
ENDBRANCH   7  11
ENDBRANCH   3   6
BRANCH   2  14
ATOM     14  C   UNL     1       1.902   1.324  -0.161  0.00  0.00    +0.000 C 
ATOM     15  C   UNL     1       1.850   2.675  -0.867  0.00  0.00    +0.000 C 
BRANCH  14  16
ATOM     16  C   UNL     1       3.085   0.490  -0.671  0.00  0.00    +0.000 C 
BRANCH  16  20
ATOM     17  F   UNL     1       4.269  -1.559  -0.445  0.00  0.00    +0.000 F 
ATOM     18  F   UNL     1       3.321  -0.735   1.343  0.00  0.00    +0.000 F 
ATOM     19  F   UNL     1       2.101  -1.607  -0.239  0.00  0.00    +0.000 F 
ATOM     20  C   UNL     1       3.204  -0.864   0.004  0.00  0.00    +0.000 C 
ENDBRANCH  16  20
ENDBRANCH  14  16
ENDBRANCH   2  14
TORSDOF 5
