REMARK  Name = 106218164
REMARK  4 active torsions:
REMARK  status: ('A' for Active; 'I' for Inactive)
REMARK    1  A    between atoms: N_5  and  C_8
REMARK    2  A    between atoms: N_7  and  C_14
REMARK    3  A    between atoms: C_8  and  C_11
REMARK    4  A    between atoms: C_12  and  C_13
REMARK                            x       y       z     vdW  Elec       q    Type
REMARK                         _______ _______ _______ _____ _____    ______ ____
ROOT
ATOM      1  O   UNL     1       0.062  -0.302  -1.702  0.00  0.00    +0.000 OA
ATOM      2  N   UNL     1       0.688   0.633   0.325  0.00  0.00    +0.000 N 
ATOM      3  C   UNL     1      -0.233   0.159  -0.602  0.00  0.00    +0.000 C 
ATOM      4  H   UNL     1       0.366   0.985   1.223  0.00  0.00    +0.000 HD
ENDROOT
BRANCH   3   6
ATOM      5  N   UNL     1      -3.757  -0.906   0.259  0.00  0.00    +0.000 NA
ATOM      6  C   UNL     1      -1.660   0.209  -0.193  0.00  0.00    +0.000 A 
ATOM      7  C   UNL     1      -2.456  -0.922  -0.107  0.00  0.00    +0.000 A 
ATOM      8  C   UNL     1      -2.237   1.435   0.118  0.00  0.00    +0.000 A 
ATOM      9  C   UNL     1      -3.572   1.493   0.499  0.00  0.00    +0.000 A 
ATOM     10  C   UNL     1      -4.283   0.304   0.553  0.00  0.00    +0.000 A 
BRANCH   7  11
ATOM     11  N   UNL     1      -1.876  -2.176  -0.425  0.00  0.00    +0.000 N 
ATOM     12  H   UNL     1      -1.134  -2.207  -1.113  0.00  0.00    +0.000 HD
ATOM     13  H   UNL     1      -2.481  -2.985  -0.351  0.00  0.00    +0.000 HD
ENDBRANCH   7  11
ENDBRANCH   3   6
BRANCH   2  14
ATOM     14  C   UNL     1       2.096   0.628   0.078  0.00  0.00    +0.000 C 
ATOM     15  C   UNL     1       2.635   1.404  -1.104  0.00  0.00    +0.000 C 
ATOM     16  C   UNL     1       2.881   1.904   0.287  0.00  0.00    +0.000 C 
BRANCH  14  20
ATOM     17  F   UNL     1       4.066  -0.447   0.714  0.00  0.00    +0.000 F 
ATOM     18  F   UNL     1       2.176  -1.227   1.490  0.00  0.00    +0.000 F 
ATOM     19  F   UNL     1       2.697  -1.518  -0.614  0.00  0.00    +0.000 F 
ATOM     20  C   UNL     1       2.774  -0.670   0.425  0.00  0.00    +0.000 C 
ENDBRANCH  14  20
ENDBRANCH   2  14
TORSDOF 4
