REMARK  Name = 106214824
REMARK  3 active torsions:
REMARK  status: ('A' for Active; 'I' for Inactive)
REMARK    1  A    between atoms: N_5  and  C_8
REMARK    2  A    between atoms: C_8  and  C_11
REMARK    3  A    between atoms: C_16  and  C_17
REMARK                            x       y       z     vdW  Elec       q    Type
REMARK                         _______ _______ _______ _____ _____    ______ ____
ROOT
ATOM      1  N   UNL     1       1.271  -1.194  -0.047  0.00  0.00    +0.000 N 
ATOM      2  N   UNL     1      -0.367   0.451   0.435  0.00  0.00    +0.000 NA
ATOM      3  C   UNL     1      -0.072  -0.785  -0.028  0.00  0.00    +0.000 A 
ATOM      4  C   UNL     1      -1.016  -1.686  -0.491  0.00  0.00    +0.000 A 
ATOM      5  C   UNL     1      -2.351  -1.295  -0.478  0.00  0.00    +0.000 A 
ATOM      6  C   UNL     1      -1.675   0.796   0.432  0.00  0.00    +0.000 A 
ATOM      7  C   UNL     1      -2.695  -0.032  -0.010  0.00  0.00    +0.000 A 
ATOM      8  H   UNL     1       1.474  -2.028  -0.591  0.00  0.00    +0.000 HD
ENDROOT
BRANCH   7  11
ATOM      9  O   UNL     1      -5.003  -0.337  -0.363  0.00  0.00    +0.000 OA
ATOM     10  N   UNL     1      -4.347   1.684   0.500  0.00  0.00    +0.000 N 
ATOM     11  C   UNL     1      -4.079   0.406   0.017  0.00  0.00    +0.000 C 
ATOM     12  H   UNL     1      -3.656   2.345   0.830  0.00  0.00    +0.000 HD
ATOM     13  H   UNL     1      -5.307   2.013   0.535  0.00  0.00    +0.000 HD
ENDBRANCH   7  11
BRANCH   1  14
ATOM     14  C   UNL     1       2.388  -0.355   0.401  0.00  0.00    +0.000 C 
ATOM     15  C   UNL     1       2.409   0.132   1.833  0.00  0.00    +0.000 C 
ATOM     16  C   UNL     1       3.378  -0.924   1.393  0.00  0.00    +0.000 C 
BRANCH  14  20
ATOM     17  F   UNL     1       4.205   0.864  -0.406  0.00  0.00    +0.000 F 
ATOM     18  F   UNL     1       2.828  -0.009  -1.864  0.00  0.00    +0.000 F 
ATOM     19  F   UNL     1       2.206   1.711  -0.665  0.00  0.00    +0.000 F 
ATOM     20  C   UNL     1       2.918   0.573  -0.657  0.00  0.00    +0.000 C 
ENDBRANCH  14  20
ENDBRANCH   1  14
TORSDOF 3
