REMARK  Name = 106218137
REMARK  3 active torsions:
REMARK  status: ('A' for Active; 'I' for Inactive)
REMARK    1  A    between atoms: N_5  and  C_8
REMARK    2  A    between atoms: C_8  and  C_11
REMARK    3  A    between atoms: C_12  and  C_13
REMARK                            x       y       z     vdW  Elec       q    Type
REMARK                         _______ _______ _______ _____ _____    ______ ____
ROOT
ATOM      1  O   UNL     1       0.351   1.437  -1.106  0.00  0.00    +0.000 OA
ATOM      2  N   UNL     1       0.885  -0.045   0.595  0.00  0.00    +0.000 N 
ATOM      3  C   UNL     1       0.009   0.617  -0.257  0.00  0.00    +0.000 C 
ATOM      4  H   UNL     1       0.539  -0.683   1.306  0.00  0.00    +0.000 HD
ENDROOT
BRANCH   3   7
ATOM      5  N   UNL     1      -3.744   0.927  -0.352  0.00  0.00    +0.000 NA
ATOM      6  N   UNL     1      -5.464  -0.611   0.241  0.00  0.00    +0.000 N 
ATOM      7  C   UNL     1      -1.429   0.271  -0.117  0.00  0.00    +0.000 A 
ATOM      8  C   UNL     1      -1.823  -0.975   0.358  0.00  0.00    +0.000 A 
ATOM      9  C   UNL     1      -2.419   1.178  -0.456  0.00  0.00    +0.000 A 
ATOM     10  C   UNL     1      -3.176  -1.271   0.478  0.00  0.00    +0.000 A 
ATOM     11  C   UNL     1      -4.089  -0.294   0.113  0.00  0.00    +0.000 A 
ATOM     12  H   UNL     1      -5.745  -1.581   0.163  0.00  0.00    +0.000 HD
ATOM     13  H   UNL     1      -6.127   0.104  -0.033  0.00  0.00    +0.000 HD
ENDBRANCH   3   7
BRANCH   2  14
ATOM     14  C   UNL     1       2.298   0.171   0.561  0.00  0.00    +0.000 C 
ATOM     15  C   UNL     1       2.832   1.563   0.822  0.00  0.00    +0.000 C 
ATOM     16  C   UNL     1       3.021   0.491   1.851  0.00  0.00    +0.000 C 
BRANCH  14  20
ATOM     17  F   UNL     1       4.296  -0.854  -0.068  0.00  0.00    +0.000 F 
ATOM     18  F   UNL     1       2.423  -1.869  -0.562  0.00  0.00    +0.000 F 
ATOM     19  F   UNL     1       3.007  -0.063  -1.649  0.00  0.00    +0.000 F 
ATOM     20  C   UNL     1       3.022  -0.672  -0.452  0.00  0.00    +0.000 C 
ENDBRANCH  14  20
ENDBRANCH   2  14
TORSDOF 3
