REMARK  Name = 106295549
REMARK  5 active torsions:
REMARK  status: ('A' for Active; 'I' for Inactive)
REMARK    1  A    between atoms: N_6  and  C_9
REMARK    2  A    between atoms: N_8  and  C_18
REMARK    3  A    between atoms: C_9  and  C_10
REMARK    4  A    between atoms: C_10  and  C_11
REMARK    5  A    between atoms: C_12  and  C_13
REMARK                            x       y       z     vdW  Elec       q    Type
REMARK                         _______ _______ _______ _____ _____    ______ ____
ROOT
ATOM      1  O   UNL     1       0.570  -1.872   0.478  0.00  0.00    +0.000 OA
ATOM      2  N   UNL     1       0.873   0.401   0.827  0.00  0.00    +0.000 N 
ATOM      3  C   UNL     1       0.122  -0.730   0.530  0.00  0.00    +0.000 C 
ATOM      4  H   UNL     1       0.451   1.323   0.791  0.00  0.00    +0.000 HD
ENDROOT
BRANCH   3   7
ATOM      5  N   UNL     1      -3.295   0.855   0.543  0.00  0.00    +0.000 NA
ATOM      6  N   UNL     1      -5.327   0.218  -0.525  0.00  0.00    +0.000 N 
ATOM      7  C   UNL     1      -1.316  -0.500   0.238  0.00  0.00    +0.000 A 
ATOM      8  C   UNL     1      -2.030  -1.372  -0.578  0.00  0.00    +0.000 A 
ATOM      9  C   UNL     1      -1.989   0.588   0.769  0.00  0.00    +0.000 A 
ATOM     10  C   UNL     1      -3.956  -0.014  -0.255  0.00  0.00    +0.000 A 
ATOM     11  C   UNL     1      -3.375  -1.131  -0.834  0.00  0.00    +0.000 A 
ATOM     12  C   UNL     1      -6.040   1.332   0.011  0.00  0.00    +0.000 C 
ATOM     13  H   UNL     1      -5.741  -0.298  -1.294  0.00  0.00    +0.000 HD
ENDBRANCH   3   7
BRANCH   2  14
ATOM     14  C   UNL     1       2.283   0.344   1.108  0.00  0.00    +0.000 C 
BRANCH  14  17
ATOM     15  F   UNL     1       2.767  -0.475  -1.042  0.00  0.00    +0.000 F 
ATOM     16  F   UNL     1       2.827   1.686  -0.745  0.00  0.00    +0.000 F 
ATOM     17  C   UNL     1       3.109   0.496  -0.157  0.00  0.00    +0.000 C 
BRANCH  17  20
ATOM     18  F   UNL     1       4.920  -0.797   0.603  0.00  0.00    +0.000 F 
ATOM     19  F   UNL     1       5.261   0.550  -1.073  0.00  0.00    +0.000 F 
ATOM     20  C   UNL     1       4.595   0.420   0.102  0.00  0.00    +0.000 C 
ENDBRANCH  17  20
ENDBRANCH  14  17
ENDBRANCH   2  14
TORSDOF 4
