REMARK  Name = 106295566
REMARK  5 active torsions:
REMARK  status: ('A' for Active; 'I' for Inactive)
REMARK    1  A    between atoms: N_6  and  C_9
REMARK    2  A    between atoms: N_8  and  C_14
REMARK    3  A    between atoms: C_9  and  C_10
REMARK    4  A    between atoms: C_10  and  C_11
REMARK    5  A    between atoms: C_12  and  C_13
REMARK                            x       y       z     vdW  Elec       q    Type
REMARK                         _______ _______ _______ _____ _____    ______ ____
ROOT
ATOM      1  O   UNL     1      -0.190  -0.147   1.767  0.00  0.00    +0.000 OA
ATOM      2  N   UNL     1       0.321   1.059  -0.147  0.00  0.00    +0.000 N 
ATOM      3  C   UNL     1      -0.531   0.368   0.706  0.00  0.00    +0.000 C 
ATOM      4  H   UNL     1      -0.043   1.436  -1.017  0.00  0.00    +0.000 HD
ENDROOT
BRANCH   3   6
ATOM      5  N   UNL     1      -3.835  -1.124  -0.368  0.00  0.00    +0.000 NA
ATOM      6  C   UNL     1      -1.942   0.243   0.259  0.00  0.00    +0.000 A 
ATOM      7  C   UNL     1      -2.554  -0.980   0.042  0.00  0.00    +0.000 A 
ATOM      8  C   UNL     1      -2.692   1.394   0.042  0.00  0.00    +0.000 A 
ATOM      9  C   UNL     1      -4.012   1.287  -0.380  0.00  0.00    +0.000 A 
ATOM     10  C   UNL     1      -4.532   0.017  -0.568  0.00  0.00    +0.000 A 
BRANCH   7  11
ATOM     11  N   UNL     1      -1.795  -2.158   0.258  0.00  0.00    +0.000 N 
ATOM     12  H   UNL     1      -0.796  -2.127   0.099  0.00  0.00    +0.000 HD
ATOM     13  H   UNL     1      -2.270  -3.038   0.094  0.00  0.00    +0.000 HD
ENDBRANCH   7  11
ENDBRANCH   3   6
BRANCH   2  14
ATOM     14  C   UNL     1       1.720   1.243   0.135  0.00  0.00    +0.000 C 
BRANCH  14  17
ATOM     15  F   UNL     1       2.126  -1.072   0.073  0.00  0.00    +0.000 F 
ATOM     16  F   UNL     1       2.385   0.051  -1.780  0.00  0.00    +0.000 F 
ATOM     17  C   UNL     1       2.556   0.111  -0.435  0.00  0.00    +0.000 C 
BRANCH  17  20
ATOM     18  F   UNL     1       4.240   0.232   1.201  0.00  0.00    +0.000 F 
ATOM     19  F   UNL     1       4.704  -0.788  -0.666  0.00  0.00    +0.000 F 
ATOM     20  C   UNL     1       4.029   0.264  -0.137  0.00  0.00    +0.000 C 
ENDBRANCH  17  20
ENDBRANCH  14  17
ENDBRANCH   2  14
TORSDOF 5
