REMARK  Name = 107494046
REMARK  7 active torsions:
REMARK  status: ('A' for Active; 'I' for Inactive)
REMARK    1  A    between atoms: N_4  and  C_8
REMARK    2  A    between atoms: N_4  and  C_9
REMARK    3  A    between atoms: N_4  and  C_10
REMARK    4  A    between atoms: N_6  and  C_11
REMARK    5  A    between atoms: C_8  and  C_11
REMARK    6  A    between atoms: C_9  and  C_13
REMARK    7  A    between atoms: C_12  and  C_15
REMARK                            x       y       z     vdW  Elec       q    Type
REMARK                         _______ _______ _______ _____ _____    ______ ____
ROOT
ATOM      1  N   UNL     1      -0.085   1.478   0.856  0.00  0.00    +0.000 NA
ATOM      2  C   UNL     1      -0.393   0.348   0.180  0.00  0.00    +0.000 A 
ATOM      3  C   UNL     1      -1.686  -0.101  -0.032  0.00  0.00    +0.000 A 
ATOM      4  C   UNL     1      -2.731   0.658   0.483  0.00  0.00    +0.000 A 
ATOM      5  C   UNL     1      -2.455   1.826   1.185  0.00  0.00    +0.000 A 
ATOM      6  C   UNL     1      -1.127   2.189   1.342  0.00  0.00    +0.000 A 
ENDROOT
BRANCH   3   9
ATOM      7  O   UNL     1      -2.089  -2.417  -0.179  0.00  0.00    +0.000 OA
ATOM      8  N   UNL     1      -2.172  -1.227  -2.137  0.00  0.00    +0.000 N 
ATOM      9  C   UNL     1      -1.986  -1.325  -0.762  0.00  0.00    +0.000 C 
ATOM     10  H   UNL     1      -2.103  -0.342  -2.629  0.00  0.00    +0.000 HD
ATOM     11  H   UNL     1      -2.388  -2.047  -2.694  0.00  0.00    +0.000 HD
ENDBRANCH   3   9
BRANCH   2  12
ATOM     12  N   UNL     1       0.666  -0.412  -0.335  0.00  0.00    +0.000 N 
BRANCH  12  13
ATOM     13  C   UNL     1       1.286  -1.461   0.440  0.00  0.00    +0.000 C 
BRANCH  13  14
ATOM     14  C   UNL     1       1.841  -0.882   1.735  0.00  0.00    +0.000 C 
BRANCH  14  15
ATOM     15  N   UNL     1       2.463  -1.930   2.534  0.00  0.00    +0.000 NA
ATOM     16  H   UNL     1       1.771  -2.639   2.771  0.00  0.00    +0.000 HD
ATOM     17  H   UNL     1       2.783  -1.537   3.418  0.00  0.00    +0.000 HD
ENDBRANCH  14  15
ENDBRANCH  13  14
ENDBRANCH  12  13
BRANCH  12  18
ATOM     18  C   UNL     1       1.162  -0.156  -1.688  0.00  0.00    +0.000 C 
BRANCH  18  21
ATOM     19  F   UNL     1       3.275   0.476  -0.861  0.00  0.00    +0.000 F 
ATOM     20  F   UNL     1       1.778   2.043  -1.112  0.00  0.00    +0.000 F 
ATOM     21  C   UNL     1       2.253   0.892  -1.649  0.00  0.00    +0.000 C 
ENDBRANCH  18  21
ENDBRANCH  12  18
ENDBRANCH   2  12
TORSDOF 7
