REMARK  Name = 107494155
REMARK  6 active torsions:
REMARK  status: ('A' for Active; 'I' for Inactive)
REMARK    1  A    between atoms: N_4  and  C_8
REMARK    2  A    between atoms: N_4  and  C_9
REMARK    3  A    between atoms: N_6  and  C_11
REMARK    4  A    between atoms: C_8  and  C_11
REMARK    5  A    between atoms: C_9  and  C_12
REMARK    6  A    between atoms: C_15  and  C_17
REMARK                            x       y       z     vdW  Elec       q    Type
REMARK                         _______ _______ _______ _____ _____    ______ ____
ROOT
ATOM      1  N   UNL     1       1.643  -0.039  -0.248  0.00  0.00    +0.000 N 
ATOM      2  N   UNL     1      -0.452   0.959  -0.728  0.00  0.00    +0.000 NA
ATOM      3  C   UNL     1       0.244  -0.055  -0.166  0.00  0.00    +0.000 A 
ATOM      4  C   UNL     1      -0.340  -1.124   0.494  0.00  0.00    +0.000 A 
ATOM      5  C   UNL     1      -1.728  -1.154   0.584  0.00  0.00    +0.000 A 
ATOM      6  C   UNL     1      -2.478  -0.129   0.018  0.00  0.00    +0.000 A 
ATOM      7  C   UNL     1      -1.798   0.896  -0.621  0.00  0.00    +0.000 A 
ENDROOT
BRANCH   6  10
ATOM      8  O   UNL     1      -4.546  -1.039   0.680  0.00  0.00    +0.000 OA
ATOM      9  N   UNL     1      -4.612   0.929  -0.495  0.00  0.00    +0.000 N 
ATOM     10  C   UNL     1      -3.928  -0.132   0.095  0.00  0.00    +0.000 C 
ATOM     11  H   UNL     1      -4.185   1.705  -0.984  0.00  0.00    +0.000 HD
ATOM     12  H   UNL     1      -5.626   0.955  -0.450  0.00  0.00    +0.000 HD
ENDBRANCH   6  10
BRANCH   1  13
ATOM     13  C   UNL     1       2.444  -1.091   0.331  0.00  0.00    +0.000 C 
BRANCH  13  14
ATOM     14  C   UNL     1       2.486  -2.283  -0.617  0.00  0.00    +0.000 C 
BRANCH  14  15
ATOM     15  N   UNL     1       3.298  -3.353  -0.051  0.00  0.00    +0.000 NA
ATOM     16  H   UNL     1       4.248  -3.019   0.104  0.00  0.00    +0.000 HD
ATOM     17  H   UNL     1       3.369  -4.115  -0.723  0.00  0.00    +0.000 HD
ENDBRANCH  14  15
ENDBRANCH  13  14
ENDBRANCH   1  13
BRANCH   1  18
ATOM     18  C   UNL     1       2.323   1.059  -0.939  0.00  0.00    +0.000 C 
BRANCH  18  21
ATOM     19  F   UNL     1       3.383   1.737   1.052  0.00  0.00    +0.000 F 
ATOM     20  F   UNL     1       1.453   2.635   0.578  0.00  0.00    +0.000 F 
ATOM     21  C   UNL     1       2.608   2.184   0.033  0.00  0.00    +0.000 C 
ENDBRANCH  18  21
ENDBRANCH   1  18
TORSDOF 6
