REMARK  Name = 107494247
REMARK  7 active torsions:
REMARK  status: ('A' for Active; 'I' for Inactive)
REMARK    1  A    between atoms: N_5  and  C_9
REMARK    2  A    between atoms: N_5  and  C_10
REMARK    3  A    between atoms: N_5  and  C_11
REMARK    4  A    between atoms: N_7  and  C_12
REMARK    5  A    between atoms: C_9  and  C_12
REMARK    6  A    between atoms: C_10  and  C_14
REMARK    7  A    between atoms: C_13  and  C_16
REMARK                            x       y       z     vdW  Elec       q    Type
REMARK                         _______ _______ _______ _____ _____    ______ ____
ROOT
ATOM      1  N   UNL     1       0.491  -0.325  -0.419  0.00  0.00    +0.000 N 
ENDROOT
BRANCH   1   3
ATOM      2  N   UNL     1      -0.310   0.322   1.701  0.00  0.00    +0.000 NA
ATOM      3  C   UNL     1      -0.575   0.075   0.399  0.00  0.00    +0.000 A 
ATOM      4  C   UNL     1      -1.832   0.189  -0.172  0.00  0.00    +0.000 A 
ATOM      5  C   UNL     1      -2.885   0.583   0.646  0.00  0.00    +0.000 A 
ATOM      6  C   UNL     1      -1.359   0.702   2.465  0.00  0.00    +0.000 A 
ATOM      7  C   UNL     1      -2.653   0.846   1.991  0.00  0.00    +0.000 A 
BRANCH   4  10
ATOM      8  O   UNL     1      -2.413  -1.222  -1.966  0.00  0.00    +0.000 OA
ATOM      9  N   UNL     1      -1.971   0.969  -2.477  0.00  0.00    +0.000 N 
ATOM     10  C   UNL     1      -2.087  -0.088  -1.579  0.00  0.00    +0.000 C 
ATOM     11  H   UNL     1      -1.716   1.905  -2.178  0.00  0.00    +0.000 HD
ATOM     12  H   UNL     1      -2.143   0.834  -3.467  0.00  0.00    +0.000 HD
ENDBRANCH   4  10
ENDBRANCH   1   3
BRANCH   1  13
ATOM     13  C   UNL     1       0.832  -1.717  -0.585  0.00  0.00    +0.000 C 
BRANCH  13  14
ATOM     14  C   UNL     1       1.156  -2.330   0.771  0.00  0.00    +0.000 C 
BRANCH  14  15
ATOM     15  N   UNL     1       1.495  -3.740   0.623  0.00  0.00    +0.000 NA
ATOM     16  H   UNL     1       0.704  -4.244   0.224  0.00  0.00    +0.000 HD
ATOM     17  H   UNL     1       1.659  -4.148   1.543  0.00  0.00    +0.000 HD
ENDBRANCH  14  15
ENDBRANCH  13  14
ENDBRANCH   1  13
BRANCH   1  18
ATOM     18  C   UNL     1       1.282   0.680  -1.133  0.00  0.00    +0.000 C 
BRANCH  18  22
ATOM     19  F   UNL     1       3.155   2.086  -0.917  0.00  0.00    +0.000 F 
ATOM     20  F   UNL     1       1.987   1.694   0.882  0.00  0.00    +0.000 F 
ATOM     21  F   UNL     1       3.260   0.129   0.040  0.00  0.00    +0.000 F 
ATOM     22  C   UNL     1       2.428   1.147  -0.270  0.00  0.00    +0.000 C 
ENDBRANCH  18  22
ENDBRANCH   1  18
TORSDOF 7
