REMARK  Name = 108069140
REMARK  4 active torsions:
REMARK  status: ('A' for Active; 'I' for Inactive)
REMARK    1  A    between atoms: N_3  and  C_10
REMARK    2  A    between atoms: N_3  and  C_11
REMARK    3  A    between atoms: N_5  and  C_8
REMARK    4  A    between atoms: C_6  and  C_7
REMARK                            x       y       z     vdW  Elec       q    Type
REMARK                         _______ _______ _______ _____ _____    ______ ____
ROOT
ATOM      1  F   UNL     1      -3.085  -1.885  -0.047  0.00  0.00    +0.000 F 
ATOM      2  N   UNL     1      -1.845   1.502   0.343  0.00  0.00    +0.000 NA
ATOM      3  C   UNL     1      -0.021   0.053  -0.302  0.00  0.00    +0.000 A 
ATOM      4  C   UNL     1      -0.545   1.289   0.039  0.00  0.00    +0.000 A 
ATOM      5  C   UNL     1      -0.886  -1.036  -0.332  0.00  0.00    +0.000 A 
ATOM      6  C   UNL     1      -2.230  -0.857  -0.026  0.00  0.00    +0.000 A 
ATOM      7  C   UNL     1      -2.656   0.420   0.303  0.00  0.00    +0.000 A 
ENDROOT
BRANCH   3  10
ATOM      8  O   UNL     1       1.713  -0.007  -1.810  0.00  0.00    +0.000 OA
ATOM      9  N   UNL     1       2.283  -0.462   0.411  0.00  0.00    +0.000 N 
ATOM     10  C   UNL     1       1.401  -0.147  -0.628  0.00  0.00    +0.000 C 
ATOM     11  C   UNL     1       1.834  -0.611   1.794  0.00  0.00    +0.000 C 
ATOM     12  C   UNL     1       3.707  -0.662   0.185  0.00  0.00    +0.000 C 
ENDBRANCH   3  10
BRANCH   4  13
ATOM     13  N   UNL     1       0.331   2.403   0.072  0.00  0.00    +0.000 N 
ATOM     14  H   UNL     1       1.300   2.249   0.320  0.00  0.00    +0.000 HD
ATOM     15  H   UNL     1      -0.082   3.295   0.320  0.00  0.00    +0.000 HD
ENDBRANCH   4  13
TORSDOF 2
