REMARK  Name = 108069219
REMARK  4 active torsions:
REMARK  status: ('A' for Active; 'I' for Inactive)
REMARK    1  A    between atoms: N_3  and  C_7
REMARK    2  A    between atoms: N_5  and  C_9
REMARK    3  A    between atoms: C_6  and  C_8
REMARK    4  A    between atoms: C_7  and  C_11
REMARK                            x       y       z     vdW  Elec       q    Type
REMARK                         _______ _______ _______ _____ _____    ______ ____
ROOT
ATOM      1  F   UNL     1      -3.178  -2.003   0.010  0.00  0.00    +0.000 F 
ATOM      2  N   UNL     1      -2.102   1.442   0.377  0.00  0.00    +0.000 NA
ATOM      3  C   UNL     1      -0.199   0.069  -0.204  0.00  0.00    +0.000 A 
ATOM      4  C   UNL     1      -0.787   1.285   0.106  0.00  0.00    +0.000 A 
ATOM      5  C   UNL     1      -1.013  -1.058  -0.238  0.00  0.00    +0.000 A 
ATOM      6  C   UNL     1      -2.371  -0.936   0.035  0.00  0.00    +0.000 A 
ATOM      7  C   UNL     1      -2.862   0.325   0.335  0.00  0.00    +0.000 A 
ENDROOT
BRANCH   3  10
ATOM      8  O   UNL     1       1.738   0.562  -1.430  0.00  0.00    +0.000 OA
ATOM      9  N   UNL     1       1.958  -0.914   0.344  0.00  0.00    +0.000 N 
ATOM     10  C   UNL     1       1.222  -0.069  -0.492  0.00  0.00    +0.000 C 
ATOM     11  H   UNL     1       1.482  -1.387   1.108  0.00  0.00    +0.000 HD
BRANCH   9  12
ATOM     12  C   UNL     1       3.379  -1.137   0.203  0.00  0.00    +0.000 C 
ATOM     13  C   UNL     1       4.181  -0.005   0.811  0.00  0.00    +0.000 C 
ENDBRANCH   9  12
ENDBRANCH   3  10
BRANCH   4  14
ATOM     14  N   UNL     1       0.036   2.438   0.142  0.00  0.00    +0.000 N 
ATOM     15  H   UNL     1       1.006   2.333   0.412  0.00  0.00    +0.000 HD
ATOM     16  H   UNL     1      -0.421   3.313   0.368  0.00  0.00    +0.000 HD
ENDBRANCH   4  14
TORSDOF 3
