REMARK  Name = 108069172
REMARK  6 active torsions:
REMARK  status: ('A' for Active; 'I' for Inactive)
REMARK    1  A    between atoms: N_3  and  C_6
REMARK    2  A    between atoms: N_3  and  C_7
REMARK    3  A    between atoms: N_5  and  C_12
REMARK    4  A    between atoms: C_6  and  C_10
REMARK    5  A    between atoms: C_7  and  C_11
REMARK    6  A    between atoms: C_8  and  C_9
REMARK                            x       y       z     vdW  Elec       q    Type
REMARK                         _______ _______ _______ _____ _____    ______ ____
ROOT
ATOM      1  F   UNL     1      -3.494   1.665   0.615  0.00  0.00    +0.000 F 
ATOM      2  N   UNL     1      -2.218  -1.406  -0.835  0.00  0.00    +0.000 NA
ATOM      3  C   UNL     1      -0.439  -0.289   0.362  0.00  0.00    +0.000 A 
ATOM      4  C   UNL     1      -0.938  -1.328  -0.406  0.00  0.00    +0.000 A 
ATOM      5  C   UNL     1      -1.310   0.737   0.714  0.00  0.00    +0.000 A 
ATOM      6  C   UNL     1      -2.634   0.693   0.292  0.00  0.00    +0.000 A 
ATOM      7  C   UNL     1      -3.035  -0.391  -0.474  0.00  0.00    +0.000 A 
ENDROOT
BRANCH   3  10
ATOM      8  O   UNL     1       1.206  -0.770   1.893  0.00  0.00    +0.000 OA
ATOM      9  N   UNL     1       1.897   0.403  -0.006  0.00  0.00    +0.000 N 
ATOM     10  C   UNL     1       0.960  -0.233   0.814  0.00  0.00    +0.000 C 
BRANCH   9  11
ATOM     11  C   UNL     1       1.527   1.020  -1.278  0.00  0.00    +0.000 C 
ATOM     12  C   UNL     1       1.140   2.474  -1.097  0.00  0.00    +0.000 C 
ENDBRANCH   9  11
BRANCH   9  13
ATOM     13  C   UNL     1       3.306   0.493   0.352  0.00  0.00    +0.000 C 
ATOM     14  C   UNL     1       4.089  -0.691  -0.175  0.00  0.00    +0.000 C 
ENDBRANCH   9  13
ENDBRANCH   3  10
BRANCH   4  15
ATOM     15  N   UNL     1      -0.057  -2.377  -0.769  0.00  0.00    +0.000 N 
ATOM     16  H   UNL     1       0.925  -2.164  -0.894  0.00  0.00    +0.000 HD
ATOM     17  H   UNL     1      -0.450  -3.125  -1.328  0.00  0.00    +0.000 HD
ENDBRANCH   4  15
TORSDOF 4
