REMARK  Name = 108069175
REMARK  6 active torsions:
REMARK  status: ('A' for Active; 'I' for Inactive)
REMARK    1  A    between atoms: N_3  and  C_6
REMARK    2  A    between atoms: N_5  and  C_12
REMARK    3  A    between atoms: C_6  and  C_7
REMARK    4  A    between atoms: C_6  and  C_8
REMARK    5  A    between atoms: C_6  and  C_9
REMARK    6  A    between atoms: C_10  and  C_11
REMARK                            x       y       z     vdW  Elec       q    Type
REMARK                         _______ _______ _______ _____ _____    ______ ____
ROOT
ATOM      1  F   UNL     1       3.324  -2.355   0.126  0.00  0.00    +0.000 F 
ATOM      2  N   UNL     1       2.853   1.199  -0.430  0.00  0.00    +0.000 NA
ATOM      3  C   UNL     1       0.738   0.198   0.179  0.00  0.00    +0.000 A 
ATOM      4  C   UNL     1       1.527   1.280  -0.178  0.00  0.00    +0.000 A 
ATOM      5  C   UNL     1       1.349  -1.047   0.284  0.00  0.00    +0.000 A 
ATOM      6  C   UNL     1       2.711  -1.170   0.032  0.00  0.00    +0.000 A 
ATOM      7  C   UNL     1       3.411  -0.027  -0.318  0.00  0.00    +0.000 A 
ENDROOT
BRANCH   3  10
ATOM      8  O   UNL     1      -1.102   1.073   1.341  0.00  0.00    +0.000 OA
ATOM      9  N   UNL     1      -1.542  -0.434  -0.364  0.00  0.00    +0.000 N 
ATOM     10  C   UNL     1      -0.718   0.319   0.450  0.00  0.00    +0.000 C 
ATOM     11  H   UNL     1      -1.127  -1.029  -1.077  0.00  0.00    +0.000 HD
BRANCH   9  12
ATOM     12  C   UNL     1      -2.988  -0.405  -0.241  0.00  0.00    +0.000 C 
ATOM     13  C   UNL     1      -3.609  -1.265  -1.347  0.00  0.00    +0.000 C 
ATOM     14  C   UNL     1      -3.385  -0.959   1.132  0.00  0.00    +0.000 C 
ATOM     15  C   UNL     1      -3.479   1.041  -0.378  0.00  0.00    +0.000 C 
ENDBRANCH   9  12
ENDBRANCH   3  10
BRANCH   4  16
ATOM     16  N   UNL     1       0.911   2.552  -0.287  0.00  0.00    +0.000 N 
ATOM     17  H   UNL     1      -0.060   2.598  -0.569  0.00  0.00    +0.000 HD
ATOM     18  H   UNL     1       1.512   3.325  -0.546  0.00  0.00    +0.000 HD
ENDBRANCH   4  16
TORSDOF 3
