REMARK  Name = 108069573
REMARK  5 active torsions:
REMARK  status: ('A' for Active; 'I' for Inactive)
REMARK    1  A    between atoms: N_3  and  C_6
REMARK    2  A    between atoms: N_3  and  C_9
REMARK    3  A    between atoms: N_5  and  C_11
REMARK    4  A    between atoms: C_6  and  C_10
REMARK    5  A    between atoms: C_7  and  C_8
REMARK                            x       y       z     vdW  Elec       q    Type
REMARK                         _______ _______ _______ _____ _____    ______ ____
ROOT
ATOM      1  F   UNL     1      -3.494   1.767  -0.029  0.00  0.00    +0.000 F 
ATOM      2  N   UNL     1      -2.087  -1.562  -0.341  0.00  0.00    +0.000 NA
ATOM      3  C   UNL     1      -0.347  -0.019   0.318  0.00  0.00    +0.000 A 
ATOM      4  C   UNL     1      -0.805  -1.284  -0.014  0.00  0.00    +0.000 A 
ATOM      5  C   UNL     1      -1.263   1.027   0.314  0.00  0.00    +0.000 A 
ATOM      6  C   UNL     1      -2.591   0.780  -0.017  0.00  0.00    +0.000 A 
ATOM      7  C   UNL     1      -2.949  -0.521  -0.334  0.00  0.00    +0.000 A 
ENDROOT
BRANCH   3  10
ATOM      8  O   UNL     1       1.350   0.146   1.859  0.00  0.00    +0.000 OA
ATOM      9  N   UNL     1       1.943   0.595  -0.357  0.00  0.00    +0.000 N 
ATOM     10  C   UNL     1       1.056   0.253   0.669  0.00  0.00    +0.000 C 
ATOM     11  C   UNL     1       1.518   0.702  -1.746  0.00  0.00    +0.000 C 
BRANCH   9  12
ATOM     12  C   UNL     1       3.357   0.866  -0.105  0.00  0.00    +0.000 C 
ATOM     13  C   UNL     1       4.191  -0.394  -0.206  0.00  0.00    +0.000 C 
ENDBRANCH   9  12
ENDBRANCH   3  10
BRANCH   4  14
ATOM     14  N   UNL     1       0.123  -2.355  -0.013  0.00  0.00    +0.000 N 
ATOM     15  H   UNL     1       1.089  -2.159  -0.242  0.00  0.00    +0.000 HD
ATOM     16  H   UNL     1      -0.241  -3.269  -0.256  0.00  0.00    +0.000 HD
ENDBRANCH   4  14
TORSDOF 3
