REMARK  Name = 108069606
REMARK  6 active torsions:
REMARK  status: ('A' for Active; 'I' for Inactive)
REMARK    1  A    between atoms: N_3  and  C_6
REMARK    2  A    between atoms: N_3  and  C_10
REMARK    3  A    between atoms: N_5  and  C_12
REMARK    4  A    between atoms: C_6  and  C_7
REMARK    5  A    between atoms: C_7  and  C_11
REMARK    6  A    between atoms: C_8  and  C_9
REMARK                            x       y       z     vdW  Elec       q    Type
REMARK                         _______ _______ _______ _____ _____    ______ ____
ROOT
ATOM      1  F   UNL     1      -3.879   1.746  -0.017  0.00  0.00    +0.000 F 
ATOM      2  N   UNL     1      -2.449  -1.571  -0.344  0.00  0.00    +0.000 NA
ATOM      3  C   UNL     1      -0.720  -0.019   0.323  0.00  0.00    +0.000 A 
ATOM      4  C   UNL     1      -1.169  -1.285  -0.015  0.00  0.00    +0.000 A 
ATOM      5  C   UNL     1      -1.643   1.021   0.324  0.00  0.00    +0.000 A 
ATOM      6  C   UNL     1      -2.969   0.766  -0.009  0.00  0.00    +0.000 A 
ATOM      7  C   UNL     1      -3.317  -0.536  -0.332  0.00  0.00    +0.000 A 
ENDROOT
BRANCH   3  10
ATOM      8  O   UNL     1       0.975   0.153   1.866  0.00  0.00    +0.000 OA
ATOM      9  N   UNL     1       1.561   0.616  -0.371  0.00  0.00    +0.000 N 
ATOM     10  C   UNL     1       0.681   0.262   0.676  0.00  0.00    +0.000 C 
ATOM     11  C   UNL     1       1.104   0.717  -1.762  0.00  0.00    +0.000 C 
BRANCH   9  12
ATOM     12  C   UNL     1       2.949   0.896  -0.130  0.00  0.00    +0.000 C 
BRANCH  12  13
ATOM     13  C   UNL     1       3.819  -0.350  -0.233  0.00  0.00    +0.000 C 
ATOM     14  C   UNL     1       5.289  -0.066   0.043  0.00  0.00    +0.000 C 
ENDBRANCH  12  13
ENDBRANCH   9  12
ENDBRANCH   3  10
BRANCH   4  15
ATOM     15  N   UNL     1      -0.233  -2.350  -0.018  0.00  0.00    +0.000 N 
ATOM     16  H   UNL     1       0.732  -2.146  -0.246  0.00  0.00    +0.000 HD
ATOM     17  H   UNL     1      -0.590  -3.265  -0.265  0.00  0.00    +0.000 HD
ENDBRANCH   4  15
TORSDOF 4
