REMARK  Name = 108069456
REMARK  3 active torsions:
REMARK  status: ('A' for Active; 'I' for Inactive)
REMARK    1  A    between atoms: N_3  and  C_7
REMARK    2  A    between atoms: N_3  and  C_12
REMARK    3  A    between atoms: C_6  and  C_10
REMARK                            x       y       z     vdW  Elec       q    Type
REMARK                         _______ _______ _______ _____ _____    ______ ____
ROOT
ATOM      1  F   UNL     1      -3.379  -0.849  -0.009  0.00  0.00    +0.000 F 
ATOM      2  N   UNL     1      -0.754   1.655  -0.014  0.00  0.00    +0.000 NA
ATOM      3  C   UNL     1       0.243  -0.547   0.024  0.00  0.00    +0.000 A 
ATOM      4  C   UNL     1       0.322   0.836   0.007  0.00  0.00    +0.000 A 
ATOM      5  C   UNL     1      -1.020  -1.128   0.018  0.00  0.00    +0.000 A 
ATOM      6  C   UNL     1      -2.151  -0.318  -0.003  0.00  0.00    +0.000 A 
ATOM      7  C   UNL     1      -1.965   1.055  -0.019  0.00  0.00    +0.000 A 
ENDROOT
BRANCH   3  10
ATOM      8  O   UNL     1       1.923  -1.784   1.117  0.00  0.00    +0.000 OA
ATOM      9  N   UNL     1       1.955  -1.799  -1.176  0.00  0.00    +0.000 N 
ATOM     10  C   UNL     1       1.421  -1.404   0.046  0.00  0.00    +0.000 C 
ATOM     11  H   UNL     1       1.554  -1.504  -2.060  0.00  0.00    +0.000 HD
ATOM     12  H   UNL     1       2.772  -2.400  -1.218  0.00  0.00    +0.000 HD
ENDBRANCH   3  10
BRANCH   4  13
ATOM     13  N   UNL     1       1.607   1.435   0.012  0.00  0.00    +0.000 N 
ATOM     14  C   UNL     1       1.797   2.848  -0.004  0.00  0.00    +0.000 C 
ATOM     15  H   UNL     1       2.389   0.854  -0.268  0.00  0.00    +0.000 HD
ENDBRANCH   4  13
TORSDOF 2
