REMARK  Name = 108068992
REMARK  6 active torsions:
REMARK  status: ('A' for Active; 'I' for Inactive)
REMARK    1  A    between atoms: N_3  and  C_7
REMARK    2  A    between atoms: N_5  and  C_12
REMARK    3  A    between atoms: C_6  and  C_7
REMARK    4  A    between atoms: C_6  and  C_8
REMARK    5  A    between atoms: C_8  and  C_9
REMARK    6  A    between atoms: C_10  and  C_11
REMARK                            x       y       z     vdW  Elec       q    Type
REMARK                         _______ _______ _______ _____ _____    ______ ____
ROOT
ATOM      1  F   UNL     1       3.787  -1.820  -0.879  0.00  0.00    +0.000 F 
ATOM      2  N   UNL     1       2.573   1.566  -0.412  0.00  0.00    +0.000 NA
ATOM      3  C   UNL     1       0.912   0.005   0.392  0.00  0.00    +0.000 A 
ATOM      4  C   UNL     1       1.374   1.288   0.146  0.00  0.00    +0.000 A 
ATOM      5  C   UNL     1       1.734  -1.061   0.043  0.00  0.00    +0.000 A 
ATOM      6  C   UNL     1       2.976  -0.814  -0.533  0.00  0.00    +0.000 A 
ATOM      7  C   UNL     1       3.345   0.505  -0.738  0.00  0.00    +0.000 A 
ENDROOT
BRANCH   3  10
ATOM      8  O   UNL     1      -0.662   0.186   2.120  0.00  0.00    +0.000 OA
ATOM      9  N   UNL     1      -1.298  -1.022   0.244  0.00  0.00    +0.000 N 
ATOM     10  C   UNL     1      -0.412  -0.269   1.008  0.00  0.00    +0.000 C 
ATOM     11  H   UNL     1      -1.012  -1.345  -0.675  0.00  0.00    +0.000 HD
BRANCH   9  12
ATOM     12  C   UNL     1      -2.623  -1.349   0.692  0.00  0.00    +0.000 C 
BRANCH  12  13
ATOM     13  C   UNL     1      -3.652  -0.301   0.279  0.00  0.00    +0.000 C 
BRANCH  13  14
ATOM     14  C   UNL     1      -3.761  -0.150  -1.240  0.00  0.00    +0.000 C 
ATOM     15  C   UNL     1      -4.835   0.857  -1.622  0.00  0.00    +0.000 C 
ENDBRANCH  13  14
ENDBRANCH  12  13
ENDBRANCH   9  12
ENDBRANCH   3  10
BRANCH   4  16
ATOM     16  N   UNL     1       0.541   2.379   0.499  0.00  0.00    +0.000 N 
ATOM     17  H   UNL     1      -0.463   2.254   0.463  0.00  0.00    +0.000 HD
ATOM     18  H   UNL     1       0.906   3.305   0.311  0.00  0.00    +0.000 HD
ENDBRANCH   4  16
TORSDOF 5
