REMARK  Name = 108069160
REMARK  5 active torsions:
REMARK  status: ('A' for Active; 'I' for Inactive)
REMARK    1  A    between atoms: N_3  and  C_6
REMARK    2  A    between atoms: N_5  and  C_11
REMARK    3  A    between atoms: C_6  and  C_7
REMARK    4  A    between atoms: C_7  and  C_10
REMARK    5  A    between atoms: C_8  and  C_9
REMARK                            x       y       z     vdW  Elec       q    Type
REMARK                         _______ _______ _______ _____ _____    ______ ____
ROOT
ATOM      1  F   UNL     1      -3.410   2.064  -0.190  0.00  0.00    +0.000 F 
ATOM      2  N   UNL     1      -2.373  -1.391  -0.565  0.00  0.00    +0.000 NA
ATOM      3  C   UNL     1      -0.535  -0.099   0.325  0.00  0.00    +0.000 A 
ATOM      4  C   UNL     1      -1.103  -1.283  -0.115  0.00  0.00    +0.000 A 
ATOM      5  C   UNL     1      -1.320   1.049   0.301  0.00  0.00    +0.000 A 
ATOM      6  C   UNL     1      -2.632   0.977  -0.155  0.00  0.00    +0.000 A 
ATOM      7  C   UNL     1      -3.107  -0.256  -0.574  0.00  0.00    +0.000 A 
ENDROOT
BRANCH   3  10
ATOM      8  O   UNL     1       1.209  -0.697   1.774  0.00  0.00    +0.000 OA
ATOM      9  N   UNL     1       1.706   0.847   0.114  0.00  0.00    +0.000 N 
ATOM     10  C   UNL     1       0.865  -0.011   0.814  0.00  0.00    +0.000 C 
ATOM     11  H   UNL     1       1.340   1.364  -0.680  0.00  0.00    +0.000 HD
BRANCH   9  12
ATOM     12  C   UNL     1       3.092   1.020   0.451  0.00  0.00    +0.000 C 
BRANCH  12  13
ATOM     13  C   UNL     1       3.996   0.040  -0.287  0.00  0.00    +0.000 C 
ATOM     14  C   UNL     1       3.922   0.196  -1.799  0.00  0.00    +0.000 C 
ENDBRANCH  12  13
ENDBRANCH   9  12
ENDBRANCH   3  10
BRANCH   4  15
ATOM     15  N   UNL     1      -0.309  -2.457  -0.094  0.00  0.00    +0.000 N 
ATOM     16  H   UNL     1       0.691  -2.367  -0.227  0.00  0.00    +0.000 HD
ATOM     17  H   UNL     1      -0.751  -3.308  -0.417  0.00  0.00    +0.000 HD
ENDBRANCH   4  15
TORSDOF 4
