REMARK  Name = 108069212
REMARK  3 active torsions:
REMARK  status: ('A' for Active; 'I' for Inactive)
REMARK    1  A    between atoms: N_3  and  C_12
REMARK    2  A    between atoms: N_5  and  C_7
REMARK    3  A    between atoms: C_6  and  C_9
REMARK                            x       y       z     vdW  Elec       q    Type
REMARK                         _______ _______ _______ _____ _____    ______ ____
ROOT
ATOM      1  F   UNL     1      -2.828  -2.001  -0.148  0.00  0.00    +0.000 F 
ATOM      2  N   UNL     1      -1.783   1.443   0.303  0.00  0.00    +0.000 NA
ATOM      3  C   UNL     1       0.160   0.069  -0.124  0.00  0.00    +0.000 A 
ATOM      4  C   UNL     1      -0.450   1.285   0.137  0.00  0.00    +0.000 A 
ATOM      5  C   UNL     1      -0.650  -1.058  -0.223  0.00  0.00    +0.000 A 
ATOM      6  C   UNL     1      -2.025  -0.935  -0.058  0.00  0.00    +0.000 A 
ATOM      7  C   UNL     1      -2.537   0.326   0.200  0.00  0.00    +0.000 A 
ENDROOT
BRANCH   3  10
ATOM      8  O   UNL     1       2.189   0.559  -1.192  0.00  0.00    +0.000 OA
ATOM      9  N   UNL     1       2.265  -0.916   0.595  0.00  0.00    +0.000 N 
ATOM     10  C   UNL     1       1.599  -0.070  -0.298  0.00  0.00    +0.000 C 
ATOM     11  C   UNL     1       3.693  -1.139   0.568  0.00  0.00    +0.000 C 
ATOM     12  H   UNL     1       1.726  -1.414   1.298  0.00  0.00    +0.000 HD
ENDBRANCH   3  10
BRANCH   4  13
ATOM     13  N   UNL     1       0.368   2.438   0.239  0.00  0.00    +0.000 N 
ATOM     14  H   UNL     1       1.314   2.332   0.586  0.00  0.00    +0.000 HD
ATOM     15  H   UNL     1      -0.105   3.313   0.427  0.00  0.00    +0.000 HD
ENDBRANCH   4  13
TORSDOF 2
