REMARK  Name = 10988044
REMARK  5 active torsions:
REMARK  status: ('A' for Active; 'I' for Inactive)
REMARK    1  A    between atoms: N_2  and  C_9
REMARK    2  A    between atoms: C_5  and  C_6
REMARK    3  A    between atoms: C_5  and  C_7
REMARK    4  A    between atoms: C_5  and  C_8
REMARK    5  A    between atoms: C_9  and  C_14
REMARK                            x       y       z     vdW  Elec       q    Type
REMARK                         _______ _______ _______ _____ _____    ______ ____
ROOT
ATOM      1  O   UNL     1       0.096   2.498  -0.635  0.00  0.00    +0.000 OA
ATOM      2  N   UNL     1      -0.966   0.430  -0.342  0.00  0.00    +0.000 N 
ATOM      3  N   UNL     1       0.336  -1.496   0.164  0.00  0.00    +0.000 NA
ATOM      4  N   UNL     1       2.651  -1.359   0.365  0.00  0.00    +0.000 NA
ATOM      5  C   UNL     1      -0.807  -0.927  -0.060  0.00  0.00    +0.000 A 
ATOM      6  C   UNL     1       0.138   1.294  -0.399  0.00  0.00    +0.000 A 
ATOM      7  C   UNL     1       1.443   0.656  -0.146  0.00  0.00    +0.000 A 
ATOM      8  C   UNL     1       1.491  -0.705   0.123  0.00  0.00    +0.000 A 
ATOM      9  C   UNL     1       2.631   1.384  -0.169  0.00  0.00    +0.000 A 
ATOM     10  C   UNL     1       3.832   0.731   0.077  0.00  0.00    +0.000 A 
ATOM     11  C   UNL     1       3.789  -0.628   0.336  0.00  0.00    +0.000 A 
ENDROOT
BRANCH   5  12
ATOM     12  C   UNL     1      -2.044  -1.792  -0.013  0.00  0.00    +0.000 C 
ATOM     13  C   UNL     1      -2.351  -2.332  -1.402  0.00  0.00    +0.000 C 
ATOM     14  C   UNL     1      -1.863  -2.921   0.993  0.00  0.00    +0.000 C 
ENDBRANCH   5  12
BRANCH   2  15
ATOM     15  C   UNL     1      -2.291   0.997  -0.585  0.00  0.00    +0.000 C 
BRANCH  15  16
ATOM     16  C   UNL     1      -2.867   1.453   0.717  0.00  0.00    +0.000 C 
ATOM     17  C   UNL     1      -3.216   2.718   0.977  0.00  0.00    +0.000 C 
ENDBRANCH  15  16
ENDBRANCH   2  15
TORSDOF 3
