REMARK  Name = 11008476
REMARK  4 active torsions:
REMARK  status: ('A' for Active; 'I' for Inactive)
REMARK    1  A    between atoms: N_2  and  C_8
REMARK    2  A    between atoms: N_4  and  C_7
REMARK    3  A    between atoms: C_5  and  C_6
REMARK    4  A    between atoms: C_8  and  C_12
REMARK                            x       y       z     vdW  Elec       q    Type
REMARK                         _______ _______ _______ _____ _____    ______ ____
ROOT
ATOM      1  N   UNL     1      -2.943   0.817   0.402  0.00  0.00    +0.000 NA
ATOM      2  C   UNL     1      -0.798  -0.122  -0.199  0.00  0.00    +0.000 A 
ATOM      3  C   UNL     1      -1.633   0.945   0.090  0.00  0.00    +0.000 A 
ATOM      4  C   UNL     1      -1.341  -1.402  -0.167  0.00  0.00    +0.000 A 
ATOM      5  C   UNL     1      -2.684  -1.573   0.149  0.00  0.00    +0.000 A 
ATOM      6  C   UNL     1      -3.435  -0.442   0.423  0.00  0.00    +0.000 A 
ENDROOT
BRANCH   2   9
ATOM      7  O   UNL     1       1.006   1.088  -1.082  0.00  0.00    +0.000 OA
ATOM      8  N   UNL     1       1.473  -0.997  -0.182  0.00  0.00    +0.000 N 
ATOM      9  C   UNL     1       0.610   0.047  -0.532  0.00  0.00    +0.000 C 
ATOM     10  H   UNL     1       1.118  -1.798   0.331  0.00  0.00    +0.000 HD
BRANCH   8  11
ATOM     11  C   UNL     1       2.898  -0.969  -0.423  0.00  0.00    +0.000 C 
BRANCH  11  12
ATOM     12  C   UNL     1       3.581  -0.368   0.760  0.00  0.00    +0.000 C 
ATOM     13  C   UNL     1       4.352   0.724   0.701  0.00  0.00    +0.000 C 
ENDBRANCH  11  12
ENDBRANCH   8  11
ENDBRANCH   2   9
BRANCH   3  14
ATOM     14  N   UNL     1      -1.087   2.252   0.059  0.00  0.00    +0.000 N 
ATOM     15  H   UNL     1      -0.113   2.376   0.309  0.00  0.00    +0.000 HD
ATOM     16  H   UNL     1      -1.723   3.011   0.269  0.00  0.00    +0.000 HD
ENDBRANCH   3  14
TORSDOF 4
