REMARK  Name = 112574395
REMARK  3 active torsions:
REMARK  status: ('A' for Active; 'I' for Inactive)
REMARK    1  A    between atoms: N_5  and  C_7
REMARK    2  A    between atoms: C_6  and  C_8
REMARK    3  A    between atoms: C_8  and  C_10
REMARK                            x       y       z     vdW  Elec       q    Type
REMARK                         _______ _______ _______ _____ _____    ______ ____
ROOT
ATOM      1  N   UNL     1      -2.521   0.586   0.349  0.00  0.00    +0.000 NA
ATOM      2  C   UNL     1      -0.237   0.028  -0.211  0.00  0.00    +0.000 A 
ATOM      3  C   UNL     1      -1.221   0.918   0.189  0.00  0.00    +0.000 A 
ATOM      4  C   UNL     1      -0.612  -1.287  -0.463  0.00  0.00    +0.000 A 
ATOM      5  C   UNL     1      -1.941  -1.667  -0.309  0.00  0.00    +0.000 A 
ATOM      6  C   UNL     1      -2.848  -0.701   0.095  0.00  0.00    +0.000 A 
ENDROOT
BRANCH   3   7
ATOM      7  N   UNL     1      -0.845   2.259   0.451  0.00  0.00    +0.000 N 
ATOM      8  H   UNL     1       0.085   2.442   0.807  0.00  0.00    +0.000 HD
ATOM      9  H   UNL     1      -1.587   2.887   0.737  0.00  0.00    +0.000 HD
ENDBRANCH   3   7
BRANCH   2  11
ATOM     10  O   UNL     1       1.469   1.568  -0.723  0.00  0.00    +0.000 OA
ATOM     11  C   UNL     1       1.158   0.415  -0.371  0.00  0.00    +0.000 C 
BRANCH  11  14
ATOM     12  F   UNL     1       1.917  -1.507   0.814  0.00  0.00    +0.000 F 
ATOM     13  F   UNL     1       3.412  -0.012   0.312  0.00  0.00    +0.000 F 
ATOM     14  C   UNL     1       2.268  -0.600  -0.134  0.00  0.00    +0.000 C 
ENDBRANCH  11  14
ENDBRANCH   2  11
TORSDOF 3
