REMARK  Name = 112727037
REMARK  3 active torsions:
REMARK  status: ('A' for Active; 'I' for Inactive)
REMARK    1  A    between atoms: N_2  and  C_10
REMARK    2  A    between atoms: C_5  and  C_10
REMARK    3  A    between atoms: C_14  and  C_16
REMARK                            x       y       z     vdW  Elec       q    Type
REMARK                         _______ _______ _______ _____ _____    ______ ____
ROOT
ATOM      1  N   UNL     1       0.969  -0.452  -0.347  0.00  0.00    +0.000 N 
ATOM      2  N   UNL     1      -1.192  -1.392  -0.348  0.00  0.00    +0.000 NA
ATOM      3  C   UNL     1      -0.404  -0.301  -0.221  0.00  0.00    +0.000 A 
ATOM      4  C   UNL     1      -0.881   0.975   0.030  0.00  0.00    +0.000 A 
ATOM      5  C   UNL     1      -2.256   1.143   0.159  0.00  0.00    +0.000 A 
ATOM      6  C   UNL     1      -3.099   0.044   0.035  0.00  0.00    +0.000 A 
ATOM      7  C   UNL     1      -2.522  -1.191  -0.216  0.00  0.00    +0.000 A 
ATOM      8  H   UNL     1       1.303  -1.388  -0.545  0.00  0.00    +0.000 HD
ENDROOT
BRANCH   6  11
ATOM      9  O   UNL     1      -5.066   1.293   0.373  0.00  0.00    +0.000 OA
ATOM     10  N   UNL     1      -5.319  -0.959   0.028  0.00  0.00    +0.000 N 
ATOM     11  C   UNL     1      -4.538   0.186   0.164  0.00  0.00    +0.000 C 
ATOM     12  H   UNL     1      -4.970  -1.893  -0.148  0.00  0.00    +0.000 HD
ATOM     13  H   UNL     1      -6.329  -0.887   0.107  0.00  0.00    +0.000 HD
ENDBRANCH   6  11
BRANCH   1  14
ATOM     14  C   UNL     1       1.909   0.635  -0.232  0.00  0.00    +0.000 C 
BRANCH  14  15
ATOM     15  C   UNL     1       3.327   0.118  -0.403  0.00  0.00    +0.000 C 
ATOM     16  C   UNL     1       4.384   1.211  -0.280  0.00  0.00    +0.000 C 
ATOM     17  C   UNL     1       3.745  -0.863   0.687  0.00  0.00    +0.000 C 
ATOM     18  C   UNL     1       5.679   0.447  -0.020  0.00  0.00    +0.000 C 
ATOM     19  C   UNL     1       5.266  -0.893   0.591  0.00  0.00    +0.000 C 
ENDBRANCH  14  15
ENDBRANCH   1  14
TORSDOF 3
