REMARK  Name = 112722808
REMARK  2 active torsions:
REMARK  status: ('A' for Active; 'I' for Inactive)
REMARK    1  A    between atoms: N_2  and  C_5
REMARK    2  A    between atoms: C_13  and  C_15
REMARK                            x       y       z     vdW  Elec       q    Type
REMARK                         _______ _______ _______ _____ _____    ______ ____
ROOT
ATOM      1  N   UNL     1      -1.596  -0.617   0.332  0.00  0.00    +0.000 N 
ATOM      2  N   UNL     1       0.255   0.837   0.385  0.00  0.00    +0.000 NA
ATOM      3  C   UNL     1      -0.232  -0.414   0.220  0.00  0.00    +0.000 A 
ATOM      4  C   UNL     1       0.554  -1.522  -0.056  0.00  0.00    +0.000 A 
ATOM      5  C   UNL     1       1.927  -1.333  -0.171  0.00  0.00    +0.000 A 
ATOM      6  C   UNL     1       2.465  -0.061  -0.008  0.00  0.00    +0.000 A 
ATOM      7  C   UNL     1       1.594   0.981   0.266  0.00  0.00    +0.000 A 
ATOM      8  H   UNL     1      -1.963  -1.480  -0.058  0.00  0.00    +0.000 HD
ENDROOT
BRANCH   6  11
ATOM      9  O   UNL     1       4.683  -0.760  -0.384  0.00  0.00    +0.000 OA
ATOM     10  N   UNL     1       4.360   1.468   0.053  0.00  0.00    +0.000 N 
ATOM     11  C   UNL     1       3.895   0.167  -0.122  0.00  0.00    +0.000 C 
ATOM     12  H   UNL     1       3.787   2.275   0.263  0.00  0.00    +0.000 HD
ATOM     13  H   UNL     1       5.354   1.657  -0.027  0.00  0.00    +0.000 HD
ENDBRANCH   6  11
BRANCH   1  14
ATOM     14  C   UNL     1      -2.543   0.440   0.616  0.00  0.00    +0.000 C 
ATOM     15  C   UNL     1      -2.919   1.185  -0.659  0.00  0.00    +0.000 C 
ATOM     16  C   UNL     1      -3.877  -0.139   1.072  0.00  0.00    +0.000 C 
ATOM     17  C   UNL     1      -3.973   0.307  -1.329  0.00  0.00    +0.000 C 
ATOM     18  C   UNL     1      -4.593  -0.539  -0.217  0.00  0.00    +0.000 C 
ENDBRANCH   1  14
TORSDOF 2
