REMARK  Name = 113328061
REMARK  6 active torsions:
REMARK  status: ('A' for Active; 'I' for Inactive)
REMARK    1  A    between atoms: N_5  and  C_9
REMARK    2  A    between atoms: N_7  and  C_14
REMARK    3  A    between atoms: C_8  and  C_9
REMARK    4  A    between atoms: C_8  and  C_10
REMARK    5  A    between atoms: C_10  and  C_11
REMARK    6  A    between atoms: C_12  and  C_13
REMARK                            x       y       z     vdW  Elec       q    Type
REMARK                         _______ _______ _______ _____ _____    ______ ____
ROOT
ATOM      1  O   UNL     1       0.895  -1.753  -1.179  0.00  0.00    +0.000 OA
ATOM      2  N   UNL     1      -0.047  -0.935   0.777  0.00  0.00    +0.000 N 
ATOM      3  C   UNL     1       0.912  -0.974  -0.229  0.00  0.00    +0.000 C 
ATOM      4  H   UNL     1       0.052  -0.263   1.533  0.00  0.00    +0.000 HD
ENDROOT
BRANCH   3   6
ATOM      5  N   UNL     1       4.397   0.451   0.118  0.00  0.00    +0.000 NA
ATOM      6  C   UNL     1       2.033  -0.008  -0.102  0.00  0.00    +0.000 A 
ATOM      7  C   UNL     1       3.357  -0.405  -0.001  0.00  0.00    +0.000 A 
ATOM      8  C   UNL     1       1.759   1.355  -0.078  0.00  0.00    +0.000 A 
ATOM      9  C   UNL     1       2.802   2.266   0.043  0.00  0.00    +0.000 A 
ATOM     10  C   UNL     1       4.091   1.768   0.138  0.00  0.00    +0.000 A 
BRANCH   7  11
ATOM     11  N   UNL     1       3.644  -1.793  -0.022  0.00  0.00    +0.000 N 
ATOM     12  H   UNL     1       2.958  -2.436   0.354  0.00  0.00    +0.000 HD
ATOM     13  H   UNL     1       4.621  -2.054   0.050  0.00  0.00    +0.000 HD
ENDBRANCH   7  11
ENDBRANCH   3   6
BRANCH   2  14
ATOM     14  C   UNL     1      -1.177  -1.821   0.807  0.00  0.00    +0.000 C 
BRANCH  14  15
ATOM     15  C   UNL     1      -2.387  -1.254   0.071  0.00  0.00    +0.000 C 
BRANCH  15  16
ATOM     16  C   UNL     1      -2.882   0.059   0.682  0.00  0.00    +0.000 C 
BRANCH  16  20
ATOM     17  F   UNL     1      -4.459   1.795   0.463  0.00  0.00    +0.000 F 
ATOM     18  F   UNL     1      -3.755   0.850  -1.371  0.00  0.00    +0.000 F 
ATOM     19  F   UNL     1      -5.119  -0.221  -0.042  0.00  0.00    +0.000 F 
ATOM     20  C   UNL     1      -4.064   0.621  -0.077  0.00  0.00    +0.000 C 
ENDBRANCH  16  20
ENDBRANCH  15  16
ENDBRANCH  14  15
ENDBRANCH   2  14
TORSDOF 6
