REMARK  Name = 113328073
REMARK  6 active torsions:
REMARK  status: ('A' for Active; 'I' for Inactive)
REMARK    1  A    between atoms: N_5  and  C_10
REMARK    2  A    between atoms: C_8  and  C_9
REMARK    3  A    between atoms: C_8  and  C_10
REMARK    4  A    between atoms: C_9  and  C_11
REMARK    5  A    between atoms: C_11  and  C_12
REMARK    6  A    between atoms: C_13  and  C_14
REMARK                            x       y       z     vdW  Elec       q    Type
REMARK                         _______ _______ _______ _____ _____    ______ ____
ROOT
ATOM      1  O   UNL     1      -1.318  -2.471  -0.992  0.00  0.00    +0.000 OA
ATOM      2  N   UNL     1      -0.186  -1.478   0.773  0.00  0.00    +0.000 N 
ATOM      3  C   UNL     1      -1.233  -1.595  -0.135  0.00  0.00    +0.000 C 
ATOM      4  H   UNL     1      -0.151  -0.695   1.417  0.00  0.00    +0.000 HD
ENDROOT
BRANCH   3   7
ATOM      5  N   UNL     1      -4.024   0.720  -1.154  0.00  0.00    +0.000 NA
ATOM      6  N   UNL     1      -5.266   2.328   0.091  0.00  0.00    +0.000 N 
ATOM      7  C   UNL     1      -2.292  -0.557  -0.051  0.00  0.00    +0.000 A 
ATOM      8  C   UNL     1      -2.557   0.102   1.144  0.00  0.00    +0.000 A 
ATOM      9  C   UNL     1      -3.047  -0.214  -1.162  0.00  0.00    +0.000 A 
ATOM     10  C   UNL     1      -3.554   1.070   1.192  0.00  0.00    +0.000 A 
ATOM     11  C   UNL     1      -4.253   1.340   0.026  0.00  0.00    +0.000 A 
ATOM     12  H   UNL     1      -5.735   2.480   0.975  0.00  0.00    +0.000 HD
ATOM     13  H   UNL     1      -5.778   2.517  -0.762  0.00  0.00    +0.000 HD
ENDBRANCH   3   7
BRANCH   2  14
ATOM     14  C   UNL     1       0.923  -2.390   0.800  0.00  0.00    +0.000 C 
BRANCH  14  15
ATOM     15  C   UNL     1       2.070  -1.938  -0.098  0.00  0.00    +0.000 C 
BRANCH  15  16
ATOM     16  C   UNL     1       2.644  -0.580   0.318  0.00  0.00    +0.000 C 
BRANCH  16  17
ATOM     17  C   UNL     1       3.829  -0.186  -0.564  0.00  0.00    +0.000 C 
BRANCH  17  21
ATOM     18  F   UNL     1       4.833   1.113   1.140  0.00  0.00    +0.000 F 
ATOM     19  F   UNL     1       5.488   1.465  -0.914  0.00  0.00    +0.000 F 
ATOM     20  F   UNL     1       3.514   2.130  -0.268  0.00  0.00    +0.000 F 
ATOM     21  C   UNL     1       4.427   1.140  -0.147  0.00  0.00    +0.000 C 
ENDBRANCH  17  21
ENDBRANCH  16  17
ENDBRANCH  15  16
ENDBRANCH  14  15
ENDBRANCH   2  14
TORSDOF 6
