REMARK  Name = 113823510
REMARK  5 active torsions:
REMARK  status: ('A' for Active; 'I' for Inactive)
REMARK    1  A    between atoms: N_4  and  C_15
REMARK    2  A    between atoms: C_5  and  C_8
REMARK    3  A    between atoms: C_8  and  C_11
REMARK    4  A    between atoms: C_8  and  C_12
REMARK    5  A    between atoms: C_13  and  C_14
REMARK                            x       y       z     vdW  Elec       q    Type
REMARK                         _______ _______ _______ _____ _____    ______ ____
ROOT
ATOM      1  O   UNL     1       1.273   2.397   0.697  0.00  0.00    +0.000 OA
ATOM      2  N   UNL     1      -0.224   0.986  -0.413  0.00  0.00    +0.000 N 
ATOM      3  C   UNL     1      -2.914  -0.086  -0.376  0.00  0.00    +0.000 C 
ATOM      4  C   UNL     1      -1.681  -0.995  -0.511  0.00  0.00    +0.000 C 
ATOM      5  C   UNL     1      -2.545   1.209   0.366  0.00  0.00    +0.000 C 
ATOM      6  C   UNL     1      -0.515  -0.247  -1.155  0.00  0.00    +0.000 C 
ATOM      7  C   UNL     1      -1.355   1.905  -0.291  0.00  0.00    +0.000 C 
ATOM      8  C   UNL     1       1.019   1.345   0.114  0.00  0.00    +0.000 C 
ENDROOT
BRANCH   8  10
ATOM      9  N   UNL     1       3.418  -1.463   0.844  0.00  0.00    +0.000 NA
ATOM     10  C   UNL     1       2.128   0.391  -0.017  0.00  0.00    +0.000 A 
ATOM     11  C   UNL     1       2.403  -0.576   0.937  0.00  0.00    +0.000 A 
ATOM     12  C   UNL     1       2.948   0.451  -1.138  0.00  0.00    +0.000 A 
ATOM     13  C   UNL     1       4.003  -0.445  -1.269  0.00  0.00    +0.000 A 
ATOM     14  C   UNL     1       4.194  -1.375  -0.259  0.00  0.00    +0.000 A 
BRANCH  11  15
ATOM     15  N   UNL     1       1.572  -0.641   2.084  0.00  0.00    +0.000 N 
ATOM     16  H   UNL     1       1.794  -1.359   2.764  0.00  0.00    +0.000 HD
ATOM     17  H   UNL     1       1.145   0.212   2.424  0.00  0.00    +0.000 HD
ENDBRANCH  11  15
ENDBRANCH   8  10
BRANCH   3  18
ATOM     18  C   UNL     1      -4.050  -0.816   0.336  0.00  0.00    +0.000 C 
ATOM     19  C   UNL     1      -4.388  -2.118  -0.386  0.00  0.00    +0.000 C 
ATOM     20  C   UNL     1      -5.284   0.079   0.435  0.00  0.00    +0.000 C 
ENDBRANCH   3  18
TORSDOF 3
