REMARK  Name = 113966362
REMARK  6 active torsions:
REMARK  status: ('A' for Active; 'I' for Inactive)
REMARK    1  A    between atoms: N_5  and  C_9
REMARK    2  A    between atoms: N_5  and  C_10
REMARK    3  A    between atoms: N_7  and  C_12
REMARK    4  A    between atoms: C_9  and  C_12
REMARK    5  A    between atoms: C_10  and  C_13
REMARK    6  A    between atoms: C_16  and  C_18
REMARK                            x       y       z     vdW  Elec       q    Type
REMARK                         _______ _______ _______ _____ _____    ______ ____
ROOT
ATOM      1  N   UNL     1       1.429  -0.388  -0.203  0.00  0.00    +0.000 N 
ATOM      2  N   UNL     1      -0.523   0.872  -0.669  0.00  0.00    +0.000 NA
ATOM      3  C   UNL     1       0.037  -0.238  -0.139  0.00  0.00    +0.000 A 
ATOM      4  C   UNL     1      -0.682  -1.253   0.473  0.00  0.00    +0.000 A 
ATOM      5  C   UNL     1      -2.065  -1.119   0.544  0.00  0.00    +0.000 A 
ATOM      6  C   UNL     1      -2.677   0.009   0.010  0.00  0.00    +0.000 A 
ATOM      7  C   UNL     1      -1.869   0.967  -0.581  0.00  0.00    +0.000 A 
ENDROOT
BRANCH   6  10
ATOM      8  O   UNL     1      -4.851  -0.669   0.612  0.00  0.00    +0.000 OA
ATOM      9  N   UNL     1      -4.660   1.335  -0.487  0.00  0.00    +0.000 N 
ATOM     10  C   UNL     1      -4.118   0.178   0.069  0.00  0.00    +0.000 C 
ATOM     11  H   UNL     1      -4.135   2.071  -0.941  0.00  0.00    +0.000 HD
ATOM     12  H   UNL     1      -5.664   1.481  -0.454  0.00  0.00    +0.000 HD
ENDBRANCH   6  10
BRANCH   1  13
ATOM     13  C   UNL     1       2.088  -1.550   0.344  0.00  0.00    +0.000 C 
BRANCH  13  14
ATOM     14  C   UNL     1       2.002  -2.702  -0.648  0.00  0.00    +0.000 C 
BRANCH  14  15
ATOM     15  N   UNL     1       2.670  -3.882  -0.114  0.00  0.00    +0.000 NA
ATOM     16  H   UNL     1       3.651  -3.671   0.065  0.00  0.00    +0.000 HD
ATOM     17  H   UNL     1       2.661  -4.622  -0.815  0.00  0.00    +0.000 HD
ENDBRANCH  14  15
ENDBRANCH  13  14
ENDBRANCH   1  13
BRANCH   1  18
ATOM     18  C   UNL     1       2.247   0.644  -0.843  0.00  0.00    +0.000 C 
BRANCH  18  22
ATOM     19  F   UNL     1       3.387   2.657  -0.418  0.00  0.00    +0.000 F 
ATOM     20  F   UNL     1       1.561   2.286   0.714  0.00  0.00    +0.000 F 
ATOM     21  F   UNL     1       3.379   1.161   1.168  0.00  0.00    +0.000 F 
ATOM     22  C   UNL     1       2.643   1.692   0.168  0.00  0.00    +0.000 C 
ENDBRANCH  18  22
ENDBRANCH   1  18
TORSDOF 6
