REMARK  Name = 114159203
REMARK  4 active torsions:
REMARK  status: ('A' for Active; 'I' for Inactive)
REMARK    1  A    between atoms: N_5  and  C_8
REMARK    2  A    between atoms: N_5  and  C_12
REMARK    3  A    between atoms: C_8  and  C_11
REMARK    4  A    between atoms: C_13  and  C_15
REMARK                            x       y       z     vdW  Elec       q    Type
REMARK                         _______ _______ _______ _____ _____    ______ ____
ROOT
ATOM      1  N   UNL     1      -0.346   1.625   0.193  0.00  0.00    +0.000 NA
ATOM      2  C   UNL     1      -0.695   0.319   0.172  0.00  0.00    +0.000 A 
ATOM      3  C   UNL     1      -1.991  -0.134  -0.010  0.00  0.00    +0.000 A 
ATOM      4  C   UNL     1      -2.994   0.814  -0.182  0.00  0.00    +0.000 A 
ATOM      5  C   UNL     1      -1.347   2.517   0.023  0.00  0.00    +0.000 A 
ATOM      6  C   UNL     1      -2.674   2.167  -0.166  0.00  0.00    +0.000 A 
ENDROOT
BRANCH   3   9
ATOM      7  O   UNL     1      -2.660  -2.146   1.016  0.00  0.00    +0.000 OA
ATOM      8  N   UNL     1      -2.311  -2.207  -1.249  0.00  0.00    +0.000 N 
ATOM      9  C   UNL     1      -2.337  -1.549  -0.024  0.00  0.00    +0.000 C 
ATOM     10  H   UNL     1      -2.055  -1.734  -2.110  0.00  0.00    +0.000 HD
ATOM     11  H   UNL     1      -2.548  -3.191  -1.318  0.00  0.00    +0.000 HD
ENDBRANCH   3   9
BRANCH   2  12
ATOM     12  N   UNL     1       0.323  -0.631   0.349  0.00  0.00    +0.000 N 
ATOM     13  H   UNL     1       0.101  -1.584   0.079  0.00  0.00    +0.000 HD
BRANCH  12  14
ATOM     14  C   UNL     1       1.736  -0.290   0.544  0.00  0.00    +0.000 C 
ATOM     15  C   UNL     1       2.127   0.559   1.734  0.00  0.00    +0.000 C 
ATOM     16  C   UNL     1       2.482  -0.897   1.712  0.00  0.00    +0.000 C 
BRANCH  14  20
ATOM     17  F   UNL     1       3.801  -0.338  -0.539  0.00  0.00    +0.000 F 
ATOM     18  F   UNL     1       2.029  -0.909  -1.686  0.00  0.00    +0.000 F 
ATOM     19  F   UNL     1       2.358   1.186  -1.152  0.00  0.00    +0.000 F 
ATOM     20  C   UNL     1       2.498  -0.084  -0.736  0.00  0.00    +0.000 C 
ENDBRANCH  14  20
ENDBRANCH  12  14
ENDBRANCH   2  12
TORSDOF 4
