REMARK  Name = 114169848
REMARK  4 active torsions:
REMARK  status: ('A' for Active; 'I' for Inactive)
REMARK    1  A    between atoms: N_6  and  C_9
REMARK    2  A    between atoms: C_9  and  C_10
REMARK    3  A    between atoms: C_10  and  C_11
REMARK    4  A    between atoms: C_12  and  C_13
REMARK                            x       y       z     vdW  Elec       q    Type
REMARK                         _______ _______ _______ _____ _____    ______ ____
ROOT
ATOM      1  O   UNL     1      -0.038   1.947  -0.203  0.00  0.00    +0.000 OA
ATOM      2  N   UNL     1       0.566  -0.042   0.827  0.00  0.00    +0.000 N 
ATOM      3  C   UNL     1      -0.328   0.830   0.217  0.00  0.00    +0.000 C 
ATOM      4  H   UNL     1       0.247  -0.931   1.196  0.00  0.00    +0.000 HD
ENDROOT
BRANCH   3   7
ATOM      5  N   UNL     1      -4.085   0.883  -0.051  0.00  0.00    +0.000 NA
ATOM      6  N   UNL     1      -5.674  -0.885  -0.211  0.00  0.00    +0.000 N 
ATOM      7  C   UNL     1      -1.731   0.354   0.104  0.00  0.00    +0.000 A 
ATOM      8  C   UNL     1      -2.024  -1.004   0.048  0.00  0.00    +0.000 A 
ATOM      9  C   UNL     1      -2.787   1.249   0.051  0.00  0.00    +0.000 A 
ATOM     10  C   UNL     1      -3.347  -1.420  -0.058  0.00  0.00    +0.000 A 
ATOM     11  C   UNL     1      -4.331  -0.446  -0.103  0.00  0.00    +0.000 A 
ATOM     12  H   UNL     1      -5.856  -1.770  -0.667  0.00  0.00    +0.000 HD
ATOM     13  H   UNL     1      -6.390  -0.169  -0.250  0.00  0.00    +0.000 HD
ENDBRANCH   3   7
BRANCH   2  14
ATOM     14  C   UNL     1       1.952   0.285   1.032  0.00  0.00    +0.000 C 
BRANCH  14  17
ATOM     15  F   UNL     1       2.662  -1.478  -0.350  0.00  0.00    +0.000 F 
ATOM     16  F   UNL     1       2.371   0.476  -1.274  0.00  0.00    +0.000 F 
ATOM     17  C   UNL     1       2.805  -0.144  -0.148  0.00  0.00    +0.000 C 
BRANCH  17  20
ATOM     18  F   UNL     1       4.755  -0.516   1.111  0.00  0.00    +0.000 F 
ATOM     19  F   UNL     1       4.965  -0.256  -1.040  0.00  0.00    +0.000 F 
ATOM     20  C   UNL     1       4.270   0.167   0.046  0.00  0.00    +0.000 C 
ENDBRANCH  17  20
ENDBRANCH  14  17
ENDBRANCH   2  14
TORSDOF 4
