REMARK  Name = 114169636
REMARK  4 active torsions:
REMARK  status: ('A' for Active; 'I' for Inactive)
REMARK    1  A    between atoms: N_6  and  C_9
REMARK    2  A    between atoms: C_9  and  C_10
REMARK    3  A    between atoms: C_10  and  C_11
REMARK    4  A    between atoms: C_14  and  C_17
REMARK                            x       y       z     vdW  Elec       q    Type
REMARK                         _______ _______ _______ _____ _____    ______ ____
ROOT
ATOM      1  N   UNL     1      -0.806   0.678  -0.002  0.00  0.00    +0.000 N 
ATOM      2  N   UNL     1       1.404   1.470  -0.183  0.00  0.00    +0.000 NA
ATOM      3  C   UNL     1       0.557   0.432  -0.001  0.00  0.00    +0.000 A 
ATOM      4  C   UNL     1       0.966  -0.878   0.188  0.00  0.00    +0.000 A 
ATOM      5  C   UNL     1       3.234  -0.099   0.008  0.00  0.00    +0.000 A 
ATOM      6  C   UNL     1       2.331  -1.141   0.192  0.00  0.00    +0.000 A 
ATOM      7  C   UNL     1       2.724   1.177  -0.174  0.00  0.00    +0.000 A 
ATOM      8  H   UNL     1      -1.098   1.639  -0.140  0.00  0.00    +0.000 HD
ENDROOT
BRANCH   5  11
ATOM      9  O   UNL     1       5.132  -1.485   0.152  0.00  0.00    +0.000 OA
ATOM     10  N   UNL     1       5.509   0.752  -0.184  0.00  0.00    +0.000 N 
ATOM     11  C   UNL     1       4.666  -0.341   0.006  0.00  0.00    +0.000 C 
ATOM     12  H   UNL     1       5.210   1.710  -0.315  0.00  0.00    +0.000 HD
ATOM     13  H   UNL     1       6.514   0.610  -0.197  0.00  0.00    +0.000 HD
ENDBRANCH   5  11
BRANCH   1  14
ATOM     14  C   UNL     1      -1.805  -0.349   0.182  0.00  0.00    +0.000 C 
BRANCH  14  17
ATOM     15  F   UNL     1      -3.325   1.226   1.048  0.00  0.00    +0.000 F 
ATOM     16  F   UNL     1      -3.355   0.867  -1.105  0.00  0.00    +0.000 F 
ATOM     17  C   UNL     1      -3.193   0.263   0.101  0.00  0.00    +0.000 C 
BRANCH  17  20
ATOM     18  F   UNL     1      -4.247  -1.680  -0.702  0.00  0.00    +0.000 F 
ATOM     19  F   UNL     1      -5.497  -0.136   0.189  0.00  0.00    +0.000 F 
ATOM     20  C   UNL     1      -4.294  -0.755   0.287  0.00  0.00    +0.000 C 
ENDBRANCH  17  20
ENDBRANCH  14  17
ENDBRANCH   1  14
TORSDOF 4
