REMARK  Name = 114169654
REMARK  5 active torsions:
REMARK  status: ('A' for Active; 'I' for Inactive)
REMARK    1  A    between atoms: N_6  and  C_9
REMARK    2  A    between atoms: N_6  and  C_11
REMARK    3  A    between atoms: C_9  and  C_10
REMARK    4  A    between atoms: C_10  and  C_12
REMARK    5  A    between atoms: C_13  and  C_16
REMARK                            x       y       z     vdW  Elec       q    Type
REMARK                         _______ _______ _______ _____ _____    ______ ____
ROOT
ATOM      1  N   UNL     1       1.309   1.886  -0.114  0.00  0.00    +0.000 NA
ATOM      2  C   UNL     1       1.219   0.538  -0.061  0.00  0.00    +0.000 A 
ATOM      3  C   UNL     1       2.312  -0.310   0.015  0.00  0.00    +0.000 A 
ATOM      4  C   UNL     1       3.579   0.262   0.040  0.00  0.00    +0.000 A 
ATOM      5  C   UNL     1       3.712   1.645  -0.013  0.00  0.00    +0.000 A 
ATOM      6  C   UNL     1       2.557   2.405  -0.088  0.00  0.00    +0.000 A 
ENDROOT
BRANCH   3   9
ATOM      7  O   UNL     1       2.181  -2.446  -0.968  0.00  0.00    +0.000 OA
ATOM      8  N   UNL     1       2.080  -2.354   1.321  0.00  0.00    +0.000 N 
ATOM      9  C   UNL     1       2.183  -1.760   0.068  0.00  0.00    +0.000 C 
ATOM     10  H   UNL     1       2.087  -1.810   2.178  0.00  0.00    +0.000 HD
ATOM     11  H   UNL     1       1.995  -3.361   1.416  0.00  0.00    +0.000 HD
ENDBRANCH   3   9
BRANCH   2  12
ATOM     12  N   UNL     1      -0.047  -0.025  -0.088  0.00  0.00    +0.000 N 
ATOM     13  H   UNL     1      -0.114  -1.003  -0.348  0.00  0.00    +0.000 HD
BRANCH  12  14
ATOM     14  C   UNL     1      -1.266   0.747  -0.166  0.00  0.00    +0.000 C 
BRANCH  14  17
ATOM     15  F   UNL     1      -2.387  -1.050  -1.193  0.00  0.00    +0.000 F 
ATOM     16  F   UNL     1      -2.451  -0.928   0.985  0.00  0.00    +0.000 F 
ATOM     17  C   UNL     1      -2.466  -0.184  -0.151  0.00  0.00    +0.000 C 
BRANCH  17  20
ATOM     18  F   UNL     1      -3.933   1.359   0.848  0.00  0.00    +0.000 F 
ATOM     19  F   UNL     1      -4.800  -0.340  -0.201  0.00  0.00    +0.000 F 
ATOM     20  C   UNL     1      -3.781   0.555  -0.233  0.00  0.00    +0.000 C 
ENDBRANCH  17  20
ENDBRANCH  14  17
ENDBRANCH  12  14
ENDBRANCH   2  12
TORSDOF 5
