REMARK  Name = 114272094
REMARK  2 active torsions:
REMARK  status: ('A' for Active; 'I' for Inactive)
REMARK    1  A    between atoms: C_8  and  C_12
REMARK    2  A    between atoms: C_13  and  C_14
REMARK                            x       y       z     vdW  Elec       q    Type
REMARK                         _______ _______ _______ _____ _____    ______ ____
ROOT
ATOM      1  O   UNL     1      -1.030   2.905   0.169  0.00  0.00    +0.000 OA
ATOM      2  N   UNL     1       0.617   1.272   0.046  0.00  0.00    +0.000 N 
ATOM      3  C   UNL     1       2.543   0.020  -0.505  0.00  0.00    +0.000 C 
ATOM      4  C   UNL     1       2.966   1.304   0.211  0.00  0.00    +0.000 C 
ATOM      5  C   UNL     1       1.072  -0.109  -0.109  0.00  0.00    +0.000 C 
ATOM      6  C   UNL     1       1.743   2.194   0.051  0.00  0.00    +0.000 C 
ATOM      7  C   UNL     1      -0.692   1.724   0.107  0.00  0.00    +0.000 C 
ENDROOT
BRANCH   7  10
ATOM      8  N   UNL     1      -3.725  -0.188  -1.002  0.00  0.00    +0.000 NA
ATOM      9  N   UNL     1      -4.811  -2.090  -0.066  0.00  0.00    +0.000 N 
ATOM     10  C   UNL     1      -1.762   0.715   0.082  0.00  0.00    +0.000 A 
ATOM     11  C   UNL     1      -1.847  -0.264   1.066  0.00  0.00    +0.000 A 
ATOM     12  C   UNL     1      -2.718   0.710  -0.921  0.00  0.00    +0.000 A 
ATOM     13  C   UNL     1      -2.869  -1.205   1.016  0.00  0.00    +0.000 A 
ATOM     14  C   UNL     1      -3.775  -1.124  -0.029  0.00  0.00    +0.000 A 
ATOM     15  H   UNL     1      -4.639  -2.998   0.348  0.00  0.00    +0.000 HD
ATOM     16  H   UNL     1      -5.467  -2.031  -0.835  0.00  0.00    +0.000 HD
ENDBRANCH   7  10
BRANCH   3  20
ATOM     17  F   UNL     1       4.667  -0.991  -0.452  0.00  0.00    +0.000 F 
ATOM     18  F   UNL     1       3.309  -1.401   1.207  0.00  0.00    +0.000 F 
ATOM     19  F   UNL     1       2.936  -2.287  -0.753  0.00  0.00    +0.000 F 
ATOM     20  C   UNL     1       3.379  -1.186  -0.119  0.00  0.00    +0.000 C 
ENDBRANCH   3  20
TORSDOF 2
