REMARK  Name = 114384359
REMARK  5 active torsions:
REMARK  status: ('A' for Active; 'I' for Inactive)
REMARK    1  A    between atoms: N_4  and  C_9
REMARK    2  A    between atoms: N_5  and  C_10
REMARK    3  A    between atoms: C_8  and  C_9
REMARK    4  A    between atoms: C_8  and  C_10
REMARK    5  A    between atoms: C_13  and  C_16
REMARK                            x       y       z     vdW  Elec       q    Type
REMARK                         _______ _______ _______ _____ _____    ______ ____
ROOT
ATOM      1  N   UNL     1       1.087  -0.534   0.013  0.00  0.00    +0.000 N 
ATOM      2  N   UNL     1      -1.091  -1.428   0.002  0.00  0.00    +0.000 NA
ATOM      3  C   UNL     1      -0.285  -0.344   0.009  0.00  0.00    +0.000 A 
ATOM      4  C   UNL     1      -0.744   0.964   0.013  0.00  0.00    +0.000 A 
ATOM      5  C   UNL     1      -2.981   0.080   0.002  0.00  0.00    +0.000 A 
ATOM      6  C   UNL     1      -2.119   1.171   0.010  0.00  0.00    +0.000 A 
ATOM      7  C   UNL     1      -2.422  -1.188  -0.001  0.00  0.00    +0.000 A 
ATOM      8  H   UNL     1       1.416  -1.493   0.011  0.00  0.00    +0.000 HD
ENDROOT
BRANCH   5  11
ATOM      9  O   UNL     1      -4.932   1.399  -0.015  0.00  0.00    +0.000 OA
ATOM     10  N   UNL     1      -5.222  -0.875  -0.009  0.00  0.00    +0.000 N 
ATOM     11  C   UNL     1      -4.421   0.264  -0.002  0.00  0.00    +0.000 C 
ATOM     12  H   UNL     1      -4.886  -1.830  -0.004  0.00  0.00    +0.000 HD
ATOM     13  H   UNL     1      -6.232  -0.776  -0.019  0.00  0.00    +0.000 HD
ENDBRANCH   5  11
BRANCH   1  14
ATOM     14  C   UNL     1       2.046   0.546   0.021  0.00  0.00    +0.000 C 
BRANCH  14  17
ATOM     15  F   UNL     1       3.637  -0.826   1.074  0.00  0.00    +0.000 F 
ATOM     16  F   UNL     1       3.616  -0.788  -1.110  0.00  0.00    +0.000 F 
ATOM     17  C   UNL     1       3.459  -0.018  -0.003  0.00  0.00    +0.000 C 
BRANCH  17  18
ATOM     18  C   UNL     1       4.516   1.079   0.006  0.00  0.00    +0.000 C 
BRANCH  18  19
ATOM     19  N   UNL     1       5.854   0.497  -0.010  0.00  0.00    +0.000 NA
ATOM     20  H   UNL     1       6.546   1.243  -0.067  0.00  0.00    +0.000 HD
ATOM     21  H   UNL     1       5.972  -0.067  -0.851  0.00  0.00    +0.000 HD
ENDBRANCH  18  19
ENDBRANCH  17  18
ENDBRANCH  14  17
ENDBRANCH   1  14
TORSDOF 5
