REMARK  Name = 114384383
REMARK  6 active torsions:
REMARK  status: ('A' for Active; 'I' for Inactive)
REMARK    1  A    between atoms: N_4  and  C_9
REMARK    2  A    between atoms: N_4  and  C_11
REMARK    3  A    between atoms: N_5  and  C_10
REMARK    4  A    between atoms: C_8  and  C_9
REMARK    5  A    between atoms: C_8  and  C_10
REMARK    6  A    between atoms: C_12  and  C_15
REMARK                            x       y       z     vdW  Elec       q    Type
REMARK                         _______ _______ _______ _____ _____    ______ ____
ROOT
ATOM      1  N   UNL     1      -1.198  -1.896   0.014  0.00  0.00    +0.000 NA
ATOM      2  C   UNL     1      -1.019  -0.556  -0.007  0.00  0.00    +0.000 A 
ATOM      3  C   UNL     1      -2.054   0.365  -0.020  0.00  0.00    +0.000 A 
ATOM      4  C   UNL     1      -3.357  -0.120  -0.010  0.00  0.00    +0.000 A 
ATOM      5  C   UNL     1      -3.582  -1.492   0.011  0.00  0.00    +0.000 A 
ATOM      6  C   UNL     1      -2.478  -2.330   0.022  0.00  0.00    +0.000 A 
ENDROOT
BRANCH   3   9
ATOM      7  O   UNL     1      -1.745   2.426  -1.119  0.00  0.00    +0.000 OA
ATOM      8  N   UNL     1      -1.727   2.464   1.174  0.00  0.00    +0.000 N 
ATOM      9  C   UNL     1      -1.828   1.804  -0.046  0.00  0.00    +0.000 C 
ATOM     10  H   UNL     1      -1.800   1.973   2.060  0.00  0.00    +0.000 HD
ATOM     11  H   UNL     1      -1.577   3.466   1.214  0.00  0.00    +0.000 HD
ENDBRANCH   3   9
BRANCH   2  12
ATOM     12  N   UNL     1       0.282  -0.080  -0.020  0.00  0.00    +0.000 N 
ATOM     13  H   UNL     1       0.424   0.875  -0.333  0.00  0.00    +0.000 HD
BRANCH  12  14
ATOM     14  C   UNL     1       1.448  -0.933  -0.009  0.00  0.00    +0.000 C 
BRANCH  14  17
ATOM     15  F   UNL     1       2.715   0.722  -1.095  0.00  0.00    +0.000 F 
ATOM     16  F   UNL     1       2.700   0.725   1.089  0.00  0.00    +0.000 F 
ATOM     17  C   UNL     1       2.709  -0.084  -0.002  0.00  0.00    +0.000 C 
BRANCH  17  18
ATOM     18  C   UNL     1       3.974  -0.933   0.008  0.00  0.00    +0.000 C 
BRANCH  18  19
ATOM     19  N   UNL     1       5.160  -0.082   0.008  0.00  0.00    +0.000 NA
ATOM     20  H   UNL     1       5.994  -0.664   0.078  0.00  0.00    +0.000 HD
ATOM     21  H   UNL     1       5.154   0.512   0.837  0.00  0.00    +0.000 HD
ENDBRANCH  18  19
ENDBRANCH  17  18
ENDBRANCH  14  17
ENDBRANCH  12  14
ENDBRANCH   2  12
TORSDOF 6
