REMARK  Name = 11458677
REMARK  2 active torsions:
REMARK  status: ('A' for Active; 'I' for Inactive)
REMARK    1  A    between atoms: N_3  and  C_6
REMARK    2  A    between atoms: C_15  and  C_16
REMARK                            x       y       z     vdW  Elec       q    Type
REMARK                         _______ _______ _______ _____ _____    ______ ____
ROOT
ATOM      1  N   UNL     1      -1.427   0.102  -0.139  0.00  0.00    +0.000 N 
ATOM      2  N   UNL     1       0.594  -1.139   0.213  0.00  0.00    +0.000 NA
ATOM      3  C   UNL     1      -4.344   0.120  -0.186  0.00  0.00    +0.000 C 
ATOM      4  C   UNL     1      -3.517  -0.776  -1.114  0.00  0.00    +0.000 C 
ATOM      5  C   UNL     1      -3.522   1.358   0.188  0.00  0.00    +0.000 C 
ATOM      6  C   UNL     1      -2.138  -1.119  -0.547  0.00  0.00    +0.000 C 
ATOM      7  C   UNL     1      -2.144   1.014   0.758  0.00  0.00    +0.000 C 
ATOM      8  C   UNL     1      -0.029   0.043  -0.083  0.00  0.00    +0.000 A 
ATOM      9  C   UNL     1       0.699   1.214  -0.333  0.00  0.00    +0.000 A 
ATOM     10  C   UNL     1       2.087   1.172  -0.280  0.00  0.00    +0.000 A 
ATOM     11  C   UNL     1       1.945  -1.141   0.255  0.00  0.00    +0.000 A 
ATOM     12  C   UNL     1       2.730  -0.024   0.019  0.00  0.00    +0.000 A 
ENDROOT
BRANCH  12  15
ATOM     13  O   UNL     1       4.763  -1.171   0.334  0.00  0.00    +0.000 OA
ATOM     14  N   UNL     1       4.903   1.063  -0.167  0.00  0.00    +0.000 N 
ATOM     15  C   UNL     1       4.179  -0.101   0.082  0.00  0.00    +0.000 C 
ATOM     16  H   UNL     1       4.506   1.969  -0.382  0.00  0.00    +0.000 HD
ATOM     17  H   UNL     1       5.917   1.036  -0.136  0.00  0.00    +0.000 HD
ENDBRANCH  12  15
BRANCH   3  18
ATOM     18  N   UNL     1      -4.780  -0.618   1.000  0.00  0.00    +0.000 NA
ATOM     19  H   UNL     1      -5.291   0.008   1.622  0.00  0.00    +0.000 HD
ATOM     20  H   UNL     1      -3.975  -0.944   1.532  0.00  0.00    +0.000 HD
ENDBRANCH   3  18
TORSDOF 2
