REMARK  Name = 115408610
REMARK  7 active torsions:
REMARK  status: ('A' for Active; 'I' for Inactive)
REMARK    1  A    between atoms: N_4  and  C_7
REMARK    2  A    between atoms: N_4  and  C_9
REMARK    3  A    between atoms: N_5  and  C_14
REMARK    4  A    between atoms: C_7  and  C_8
REMARK    5  A    between atoms: C_8  and  C_12
REMARK    6  A    between atoms: C_10  and  C_11
REMARK    7  A    between atoms: C_14  and  C_17
REMARK                            x       y       z     vdW  Elec       q    Type
REMARK                         _______ _______ _______ _____ _____    ______ ____
ROOT
ATOM      1  N   UNL     1      -2.604   1.190  -0.194  0.00  0.00    +0.000 NA
ATOM      2  C   UNL     1      -1.429   0.535  -0.061  0.00  0.00    +0.000 A 
ATOM      3  C   UNL     1      -1.319  -0.838   0.087  0.00  0.00    +0.000 A 
ATOM      4  C   UNL     1      -2.490  -1.587   0.101  0.00  0.00    +0.000 A 
ATOM      5  C   UNL     1      -3.718  -0.949  -0.033  0.00  0.00    +0.000 A 
ATOM      6  C   UNL     1      -3.721   0.429  -0.176  0.00  0.00    +0.000 A 
ENDROOT
BRANCH   3   9
ATOM      7  O   UNL     1       0.203  -2.198   1.241  0.00  0.00    +0.000 OA
ATOM      8  N   UNL     1       0.874  -1.375  -0.820  0.00  0.00    +0.000 N 
ATOM      9  C   UNL     1      -0.037  -1.516   0.231  0.00  0.00    +0.000 C 
ATOM     10  H   UNL     1       0.610  -0.822  -1.631  0.00  0.00    +0.000 HD
BRANCH   8  11
ATOM     11  C   UNL     1       2.175  -2.005  -0.837  0.00  0.00    +0.000 C 
BRANCH  11  14
ATOM     12  F   UNL     1       2.895  -0.829   1.070  0.00  0.00    +0.000 F 
ATOM     13  F   UNL     1       3.301   0.061  -0.879  0.00  0.00    +0.000 F 
ATOM     14  C   UNL     1       3.228  -1.117  -0.212  0.00  0.00    +0.000 C 
ENDBRANCH  11  14
ENDBRANCH   8  11
ENDBRANCH   3   9
BRANCH   2  15
ATOM     15  N   UNL     1      -0.266   1.289  -0.073  0.00  0.00    +0.000 N 
ATOM     16  H   UNL     1       0.604   0.799  -0.252  0.00  0.00    +0.000 HD
BRANCH  15  17
ATOM     17  C   UNL     1      -0.242   2.724  -0.220  0.00  0.00    +0.000 C 
BRANCH  17  18
ATOM     18  C   UNL     1       1.193   3.240  -0.254  0.00  0.00    +0.000 C 
ATOM     19  C   UNL     1       1.956   2.947   1.030  0.00  0.00    +0.000 C 
ENDBRANCH  17  18
ENDBRANCH  15  17
ENDBRANCH   2  15
TORSDOF 6
