REMARK  Name = 115408596
REMARK  6 active torsions:
REMARK  status: ('A' for Active; 'I' for Inactive)
REMARK    1  A    between atoms: N_4  and  C_8
REMARK    2  A    between atoms: N_4  and  C_9
REMARK    3  A    between atoms: N_5  and  C_11
REMARK    4  A    between atoms: C_7  and  C_10
REMARK    5  A    between atoms: C_9  and  C_13
REMARK    6  A    between atoms: C_11  and  C_14
REMARK                            x       y       z     vdW  Elec       q    Type
REMARK                         _______ _______ _______ _____ _____    ______ ____
ROOT
ATOM      1  N   UNL     1      -2.651   1.014  -0.096  0.00  0.00    +0.000 NA
ATOM      2  C   UNL     1      -1.093  -0.830   0.048  0.00  0.00    +0.000 A 
ATOM      3  C   UNL     1      -1.396   0.522   0.018  0.00  0.00    +0.000 A 
ATOM      4  C   UNL     1      -2.144  -1.735  -0.045  0.00  0.00    +0.000 A 
ATOM      5  C   UNL     1      -3.449  -1.268  -0.163  0.00  0.00    +0.000 A 
ATOM      6  C   UNL     1      -3.647   0.103  -0.183  0.00  0.00    +0.000 A 
ENDROOT
BRANCH   2   9
ATOM      7  O   UNL     1       0.585  -2.061   1.127  0.00  0.00    +0.000 OA
ATOM      8  N   UNL     1       1.173  -0.965  -0.830  0.00  0.00    +0.000 N 
ATOM      9  C   UNL     1       0.269  -1.329   0.174  0.00  0.00    +0.000 C 
ATOM     10  H   UNL     1       0.852  -0.365  -1.585  0.00  0.00    +0.000 HD
BRANCH   8  11
ATOM     11  C   UNL     1       2.551  -1.399  -0.858  0.00  0.00    +0.000 C 
BRANCH  11  14
ATOM     12  F   UNL     1       3.055  -0.315   1.168  0.00  0.00    +0.000 F 
ATOM     13  F   UNL     1       3.368   0.799  -0.680  0.00  0.00    +0.000 F 
ATOM     14  C   UNL     1       3.452  -0.433  -0.123  0.00  0.00    +0.000 C 
ENDBRANCH  11  14
ENDBRANCH   8  11
ENDBRANCH   2   9
BRANCH   3  15
ATOM     15  N   UNL     1      -0.330   1.451   0.114  0.00  0.00    +0.000 N 
ATOM     16  H   UNL     1       0.530   1.105   0.526  0.00  0.00    +0.000 HD
BRANCH  15  17
ATOM     17  C   UNL     1      -0.535   2.862   0.093  0.00  0.00    +0.000 C 
ATOM     18  C   UNL     1       0.791   3.585   0.236  0.00  0.00    +0.000 C 
ENDBRANCH  15  17
ENDBRANCH   3  15
TORSDOF 5
