REMARK  Name = 115408625
REMARK  4 active torsions:
REMARK  status: ('A' for Active; 'I' for Inactive)
REMARK    1  A    between atoms: N_4  and  C_8
REMARK    2  A    between atoms: N_6  and  C_15
REMARK    3  A    between atoms: C_7  and  C_9
REMARK    4  A    between atoms: C_8  and  C_14
REMARK                            x       y       z     vdW  Elec       q    Type
REMARK                         _______ _______ _______ _____ _____    ______ ____
ROOT
ATOM      1  N   UNL     1       2.306   0.915  -0.445  0.00  0.00    +0.000 NA
ATOM      2  N   UNL     1       4.354   0.124   0.482  0.00  0.00    +0.000 N 
ATOM      3  C   UNL     1       0.321  -0.456  -0.285  0.00  0.00    +0.000 A 
ATOM      4  C   UNL     1       1.043  -1.436   0.388  0.00  0.00    +0.000 A 
ATOM      5  C   UNL     1       2.975  -0.060   0.212  0.00  0.00    +0.000 A 
ATOM      6  C   UNL     1       2.395  -1.241   0.645  0.00  0.00    +0.000 A 
ATOM      7  C   UNL     1       0.993   0.690  -0.676  0.00  0.00    +0.000 A 
ATOM      8  C   UNL     1       5.066   1.295   0.088  0.00  0.00    +0.000 C 
ATOM      9  H   UNL     1       4.778  -0.497   1.162  0.00  0.00    +0.000 HD
ENDROOT
BRANCH   3  12
ATOM     10  O   UNL     1      -1.583  -1.769  -0.670  0.00  0.00    +0.000 OA
ATOM     11  N   UNL     1      -1.865   0.532  -0.696  0.00  0.00    +0.000 N 
ATOM     12  C   UNL     1      -1.093  -0.630  -0.569  0.00  0.00    +0.000 C 
ATOM     13  H   UNL     1      -1.440   1.441  -0.545  0.00  0.00    +0.000 HD
BRANCH  11  14
ATOM     14  C   UNL     1      -3.287   0.525  -0.954  0.00  0.00    +0.000 C 
BRANCH  14  17
ATOM     15  F   UNL     1      -3.779   1.592   1.084  0.00  0.00    +0.000 F 
ATOM     16  F   UNL     1      -3.763  -0.588   1.063  0.00  0.00    +0.000 F 
ATOM     17  C   UNL     1      -4.083   0.507   0.331  0.00  0.00    +0.000 C 
ENDBRANCH  14  17
ENDBRANCH  11  14
ENDBRANCH   3  12
TORSDOF 3
