REMARK  Name = 115408626
REMARK  5 active torsions:
REMARK  status: ('A' for Active; 'I' for Inactive)
REMARK    1  A    between atoms: N_4  and  C_10
REMARK    2  A    between atoms: N_5  and  C_9
REMARK    3  A    between atoms: C_7  and  C_12
REMARK    4  A    between atoms: C_9  and  C_15
REMARK    5  A    between atoms: C_10  and  C_16
REMARK                            x       y       z     vdW  Elec       q    Type
REMARK                         _______ _______ _______ _____ _____    ______ ____
ROOT
ATOM      1  N   UNL     1       3.919  -0.583  -0.052  0.00  0.00    +0.000 N 
ATOM      2  N   UNL     1       1.749  -1.250   0.672  0.00  0.00    +0.000 NA
ATOM      3  C   UNL     1      -0.105   0.284   0.440  0.00  0.00    +0.000 A 
ATOM      4  C   UNL     1       2.541  -0.302   0.123  0.00  0.00    +0.000 A 
ATOM      5  C   UNL     1       0.741   1.234  -0.121  0.00  0.00    +0.000 A 
ATOM      6  C   UNL     1       2.091   0.943  -0.287  0.00  0.00    +0.000 A 
ATOM      7  C   UNL     1       0.443  -0.931   0.817  0.00  0.00    +0.000 A 
ATOM      8  H   UNL     1       4.234  -1.497   0.250  0.00  0.00    +0.000 HD
ENDROOT
BRANCH   3  11
ATOM      9  O   UNL     1      -1.927   1.727   0.753  0.00  0.00    +0.000 OA
ATOM     10  N   UNL     1      -2.386  -0.543   0.630  0.00  0.00    +0.000 N 
ATOM     11  C   UNL     1      -1.520   0.557   0.626  0.00  0.00    +0.000 C 
ATOM     12  H   UNL     1      -2.022  -1.475   0.462  0.00  0.00    +0.000 HD
BRANCH  10  13
ATOM     13  C   UNL     1      -3.819  -0.433   0.780  0.00  0.00    +0.000 C 
BRANCH  13  16
ATOM     14  F   UNL     1      -4.229  -1.355  -1.345  0.00  0.00    +0.000 F 
ATOM     15  F   UNL     1      -4.047   0.813  -1.202  0.00  0.00    +0.000 F 
ATOM     16  C   UNL     1      -4.507  -0.287  -0.558  0.00  0.00    +0.000 C 
ENDBRANCH  13  16
ENDBRANCH  10  13
ENDBRANCH   3  11
BRANCH   1  17
ATOM     17  C   UNL     1       4.830   0.355  -0.623  0.00  0.00    +0.000 C 
ATOM     18  C   UNL     1       6.229  -0.229  -0.655  0.00  0.00    +0.000 C 
ENDBRANCH   1  17
TORSDOF 4
