REMARK  Name = 115408627
REMARK  5 active torsions:
REMARK  status: ('A' for Active; 'I' for Inactive)
REMARK    1  A    between atoms: N_4  and  C_8
REMARK    2  A    between atoms: N_5  and  C_9
REMARK    3  A    between atoms: N_5  and  C_15
REMARK    4  A    between atoms: C_7  and  C_10
REMARK    5  A    between atoms: C_8  and  C_12
REMARK                            x       y       z     vdW  Elec       q    Type
REMARK                         _______ _______ _______ _____ _____    ______ ____
ROOT
ATOM      1  N   UNL     1      -2.662   1.112  -0.037  0.00  0.00    +0.000 NA
ATOM      2  C   UNL     1      -1.007  -0.649   0.033  0.00  0.00    +0.000 A 
ATOM      3  C   UNL     1      -1.383   0.685   0.060  0.00  0.00    +0.000 A 
ATOM      4  C   UNL     1      -2.007  -1.605  -0.102  0.00  0.00    +0.000 A 
ATOM      5  C   UNL     1      -3.334  -1.204  -0.205  0.00  0.00    +0.000 A 
ATOM      6  C   UNL     1      -3.607   0.154  -0.168  0.00  0.00    +0.000 A 
ENDROOT
BRANCH   2   9
ATOM      7  O   UNL     1       0.734  -1.833   1.067  0.00  0.00    +0.000 OA
ATOM      8  N   UNL     1       1.265  -0.623  -0.839  0.00  0.00    +0.000 N 
ATOM      9  C   UNL     1       0.381  -1.079   0.144  0.00  0.00    +0.000 C 
ATOM     10  H   UNL     1       0.913  -0.010  -1.570  0.00  0.00    +0.000 HD
BRANCH   8  11
ATOM     11  C   UNL     1       2.665  -0.980  -0.880  0.00  0.00    +0.000 C 
BRANCH  11  14
ATOM     12  F   UNL     1       3.105   0.042   1.193  0.00  0.00    +0.000 F 
ATOM     13  F   UNL     1       3.361   1.250  -0.604  0.00  0.00    +0.000 F 
ATOM     14  C   UNL     1       3.510   0.001  -0.100  0.00  0.00    +0.000 C 
ENDBRANCH  11  14
ENDBRANCH   8  11
ENDBRANCH   2   9
BRANCH   3  15
ATOM     15  N   UNL     1      -0.369   1.665   0.201  0.00  0.00    +0.000 N 
ATOM     16  C   UNL     1      -0.650   3.063   0.239  0.00  0.00    +0.000 C 
ATOM     17  H   UNL     1       0.527   1.358   0.562  0.00  0.00    +0.000 HD
ENDBRANCH   3  15
TORSDOF 4
