REMARK  Name = 115408583
REMARK  4 active torsions:
REMARK  status: ('A' for Active; 'I' for Inactive)
REMARK    1  A    between atoms: N_4  and  C_7
REMARK    2  A    between atoms: N_6  and  C_10
REMARK    3  A    between atoms: C_7  and  C_11
REMARK    4  A    between atoms: C_8  and  C_9
REMARK                            x       y       z     vdW  Elec       q    Type
REMARK                         _______ _______ _______ _____ _____    ______ ____
ROOT
ATOM      1  N   UNL     1      -2.930   1.012   0.518  0.00  0.00    +0.000 NA
ATOM      2  C   UNL     1      -1.014  -0.223  -0.287  0.00  0.00    +0.000 A 
ATOM      3  C   UNL     1      -1.656   0.952   0.070  0.00  0.00    +0.000 A 
ATOM      4  C   UNL     1      -1.725  -1.413  -0.176  0.00  0.00    +0.000 A 
ATOM      5  C   UNL     1      -3.038  -1.392   0.282  0.00  0.00    +0.000 A 
ATOM      6  C   UNL     1      -3.589  -0.165   0.613  0.00  0.00    +0.000 A 
ENDROOT
BRANCH   2   9
ATOM      7  O   UNL     1       0.690   0.376  -1.782  0.00  0.00    +0.000 OA
ATOM      8  N   UNL     1       1.274  -1.005  -0.013  0.00  0.00    +0.000 N 
ATOM      9  C   UNL     1       0.362  -0.257  -0.764  0.00  0.00    +0.000 C 
ATOM     10  H   UNL     1       0.949  -1.484   0.821  0.00  0.00    +0.000 HD
BRANCH   8  11
ATOM     11  C   UNL     1       2.677  -1.117  -0.344  0.00  0.00    +0.000 C 
BRANCH  11  14
ATOM     12  F   UNL     1       3.350  -0.098   1.667  0.00  0.00    +0.000 F 
ATOM     13  F   UNL     1       3.044   1.190  -0.066  0.00  0.00    +0.000 F 
ATOM     14  C   UNL     1       3.491  -0.030   0.321  0.00  0.00    +0.000 C 
ENDBRANCH  11  14
ENDBRANCH   8  11
ENDBRANCH   2   9
BRANCH   3  15
ATOM     15  N   UNL     1      -0.936   2.168  -0.038  0.00  0.00    +0.000 N 
ATOM     16  H   UNL     1       0.067   2.152   0.097  0.00  0.00    +0.000 HD
ATOM     17  H   UNL     1      -1.432   3.011   0.226  0.00  0.00    +0.000 HD
ENDBRANCH   3  15
TORSDOF 4
