REMARK  Name = 115486570
REMARK  6 active torsions:
REMARK  status: ('A' for Active; 'I' for Inactive)
REMARK    1  A    between atoms: N_5  and  C_10
REMARK    2  A    between atoms: C_8  and  C_9
REMARK    3  A    between atoms: C_8  and  C_10
REMARK    4  A    between atoms: C_9  and  C_11
REMARK    5  A    between atoms: C_11  and  C_12
REMARK    6  A    between atoms: C_16  and  C_18
REMARK                            x       y       z     vdW  Elec       q    Type
REMARK                         _______ _______ _______ _____ _____    ______ ____
ROOT
ATOM      1  N   UNL     1      -0.274  -1.017  -0.013  0.00  0.00    +0.000 N 
ATOM      2  N   UNL     1      -2.559  -1.591   0.011  0.00  0.00    +0.000 NA
ATOM      3  C   UNL     1      -1.606  -0.632  -0.006  0.00  0.00    +0.000 A 
ATOM      4  C   UNL     1      -1.873   0.727  -0.017  0.00  0.00    +0.000 A 
ATOM      5  C   UNL     1      -3.205   1.129  -0.010  0.00  0.00    +0.000 A 
ATOM      6  C   UNL     1      -4.213   0.172   0.007  0.00  0.00    +0.000 A 
ATOM      7  C   UNL     1      -3.842  -1.162   0.017  0.00  0.00    +0.000 A 
ATOM      8  H   UNL     1      -0.087  -2.013  -0.004  0.00  0.00    +0.000 HD
ENDROOT
BRANCH   6  11
ATOM      9  O   UNL     1      -5.957   1.756  -0.011  0.00  0.00    +0.000 OA
ATOM     10  N   UNL     1      -6.568  -0.454   0.032  0.00  0.00    +0.000 N 
ATOM     11  C   UNL     1      -5.613   0.560   0.015  0.00  0.00    +0.000 C 
ATOM     12  H   UNL     1      -6.372  -1.446   0.048  0.00  0.00    +0.000 HD
ATOM     13  H   UNL     1      -7.554  -0.211   0.031  0.00  0.00    +0.000 HD
ENDBRANCH   6  11
BRANCH   1  14
ATOM     14  C   UNL     1       0.829  -0.087  -0.030  0.00  0.00    +0.000 C 
BRANCH  14  15
ATOM     15  C   UNL     1       2.162  -0.829  -0.039  0.00  0.00    +0.000 C 
BRANCH  15  16
ATOM     16  C   UNL     1       3.366   0.119  -0.052  0.00  0.00    +0.000 C 
BRANCH  16  17
ATOM     17  C   UNL     1       4.682  -0.657   0.005  0.00  0.00    +0.000 C 
BRANCH  17  21
ATOM     18  F   UNL     1       5.831   1.116   1.070  0.00  0.00    +0.000 F 
ATOM     19  F   UNL     1       7.036  -0.427   0.102  0.00  0.00    +0.000 F 
ATOM     20  F   UNL     1       5.924   1.008  -1.105  0.00  0.00    +0.000 F 
ATOM     21  C   UNL     1       5.881   0.267   0.023  0.00  0.00    +0.000 C 
ENDBRANCH  17  21
ENDBRANCH  16  17
ENDBRANCH  15  16
ENDBRANCH  14  15
ENDBRANCH   1  14
TORSDOF 6
