REMARK  Name = 115486576
REMARK  7 active torsions:
REMARK  status: ('A' for Active; 'I' for Inactive)
REMARK    1  A    between atoms: N_5  and  C_10
REMARK    2  A    between atoms: N_5  and  C_13
REMARK    3  A    between atoms: C_8  and  C_9
REMARK    4  A    between atoms: C_8  and  C_10
REMARK    5  A    between atoms: C_9  and  C_11
REMARK    6  A    between atoms: C_11  and  C_12
REMARK    7  A    between atoms: C_14  and  C_16
REMARK                            x       y       z     vdW  Elec       q    Type
REMARK                         _______ _______ _______ _____ _____    ______ ____
ROOT
ATOM      1  N   UNL     1      -2.700   1.732  -0.254  0.00  0.00    +0.000 NA
ATOM      2  C   UNL     1      -2.061   0.585   0.068  0.00  0.00    +0.000 A 
ATOM      3  C   UNL     1      -2.641  -0.672   0.002  0.00  0.00    +0.000 A 
ATOM      4  C   UNL     1      -3.963  -0.756  -0.422  0.00  0.00    +0.000 A 
ATOM      5  C   UNL     1      -4.654   0.402  -0.761  0.00  0.00    +0.000 A 
ATOM      6  C   UNL     1      -3.983   1.610  -0.661  0.00  0.00    +0.000 A 
ENDROOT
BRANCH   3   9
ATOM      7  O   UNL     1      -1.952  -2.338   1.516  0.00  0.00    +0.000 OA
ATOM      8  N   UNL     1      -1.230  -2.548  -0.650  0.00  0.00    +0.000 N 
ATOM      9  C   UNL     1      -1.927  -1.890   0.358  0.00  0.00    +0.000 C 
ATOM     10  H   UNL     1      -1.204  -2.200  -1.603  0.00  0.00    +0.000 HD
ATOM     11  H   UNL     1      -0.720  -3.404  -0.459  0.00  0.00    +0.000 HD
ENDBRANCH   3   9
BRANCH   2  12
ATOM     12  N   UNL     1      -0.744   0.677   0.491  0.00  0.00    +0.000 N 
ATOM     13  H   UNL     1      -0.393  -0.097   1.046  0.00  0.00    +0.000 HD
BRANCH  12  14
ATOM     14  C   UNL     1      -0.024   1.923   0.604  0.00  0.00    +0.000 C 
BRANCH  14  15
ATOM     15  C   UNL     1       1.402   1.681   1.091  0.00  0.00    +0.000 C 
BRANCH  15  16
ATOM     16  C   UNL     1       2.206   0.785   0.144  0.00  0.00    +0.000 C 
BRANCH  16  17
ATOM     17  C   UNL     1       3.647   0.618   0.629  0.00  0.00    +0.000 C 
BRANCH  17  21
ATOM     18  F   UNL     1       4.481   0.276  -1.560  0.00  0.00    +0.000 F 
ATOM     19  F   UNL     1       5.739  -0.358   0.110  0.00  0.00    +0.000 F 
ATOM     20  F   UNL     1       3.940  -1.484  -0.392  0.00  0.00    +0.000 F 
ATOM     21  C   UNL     1       4.463  -0.241  -0.313  0.00  0.00    +0.000 C 
ENDBRANCH  17  21
ENDBRANCH  16  17
ENDBRANCH  15  16
ENDBRANCH  14  15
ENDBRANCH  12  14
ENDBRANCH   2  12
TORSDOF 7
