REMARK  Name = 115408636
REMARK  3 active torsions:
REMARK  status: ('A' for Active; 'I' for Inactive)
REMARK    1  A    between atoms: N_4  and  C_7
REMARK    2  A    between atoms: C_7  and  C_10
REMARK    3  A    between atoms: C_8  and  C_9
REMARK                            x       y       z     vdW  Elec       q    Type
REMARK                         _______ _______ _______ _____ _____    ______ ____
ROOT
ATOM      1  N   UNL     1       2.822  -0.971   0.619  0.00  0.00    +0.000 NA
ATOM      2  N   UNL     1       4.692   0.505   0.560  0.00  0.00    +0.000 N 
ATOM      3  C   UNL     1       0.709  -0.250  -0.309  0.00  0.00    +0.000 A 
ATOM      4  C   UNL     1       1.269   0.975  -0.653  0.00  0.00    +0.000 A 
ATOM      5  C   UNL     1       1.520  -1.181   0.320  0.00  0.00    +0.000 A 
ATOM      6  C   UNL     1       2.605   1.228  -0.362  0.00  0.00    +0.000 A 
ATOM      7  C   UNL     1       3.332   0.232   0.270  0.00  0.00    +0.000 A 
ATOM      8  H   UNL     1       5.189   1.157  -0.034  0.00  0.00    +0.000 HD
ATOM      9  H   UNL     1       5.220  -0.228   1.015  0.00  0.00    +0.000 HD
ENDROOT
BRANCH   3  12
ATOM     10  O   UNL     1      -1.063  -1.721  -0.750  0.00  0.00    +0.000 OA
ATOM     11  N   UNL     1      -1.562   0.542  -0.678  0.00  0.00    +0.000 N 
ATOM     12  C   UNL     1      -0.683  -0.545  -0.600  0.00  0.00    +0.000 C 
ATOM     13  H   UNL     1      -1.225   1.480  -0.488  0.00  0.00    +0.000 HD
BRANCH  11  14
ATOM     14  C   UNL     1      -2.978   0.410  -0.937  0.00  0.00    +0.000 C 
BRANCH  14  17
ATOM     15  F   UNL     1      -3.561   1.340   1.144  0.00  0.00    +0.000 F 
ATOM     16  F   UNL     1      -3.339  -0.827   1.032  0.00  0.00    +0.000 F 
ATOM     17  C   UNL     1      -3.764   0.263   0.346  0.00  0.00    +0.000 C 
ENDBRANCH  14  17
ENDBRANCH  11  14
ENDBRANCH   3  12
TORSDOF 3
