REMARK  Name = 115408581
REMARK  6 active torsions:
REMARK  status: ('A' for Active; 'I' for Inactive)
REMARK    1  A    between atoms: N_4  and  C_7
REMARK    2  A    between atoms: N_5  and  C_14
REMARK    3  A    between atoms: C_7  and  C_8
REMARK    4  A    between atoms: C_8  and  C_11
REMARK    5  A    between atoms: C_10  and  C_15
REMARK    6  A    between atoms: C_14  and  C_17
REMARK                            x       y       z     vdW  Elec       q    Type
REMARK                         _______ _______ _______ _____ _____    ______ ____
ROOT
ATOM      1  N   UNL     1       3.447   0.707  -0.063  0.00  0.00    +0.000 N 
ATOM      2  N   UNL     1       1.263   1.442  -0.556  0.00  0.00    +0.000 NA
ATOM      3  C   UNL     1       2.099   0.431  -0.227  0.00  0.00    +0.000 A 
ATOM      4  C   UNL     1      -0.547  -0.161  -0.540  0.00  0.00    +0.000 A 
ATOM      5  C   UNL     1       1.693  -0.881  -0.040  0.00  0.00    +0.000 A 
ATOM      6  C   UNL     1       0.343  -1.174  -0.201  0.00  0.00    +0.000 A 
ATOM      7  C   UNL     1      -0.041   1.119  -0.704  0.00  0.00    +0.000 A 
ATOM      8  H   UNL     1       3.736   1.668  -0.205  0.00  0.00    +0.000 HD
ENDROOT
BRANCH   4  11
ATOM      9  O   UNL     1      -2.352  -1.571  -1.042  0.00  0.00    +0.000 OA
ATOM     10  N   UNL     1      -2.850   0.622  -0.478  0.00  0.00    +0.000 N 
ATOM     11  C   UNL     1      -1.962  -0.435  -0.715  0.00  0.00    +0.000 C 
ATOM     12  H   UNL     1      -2.498   1.516  -0.152  0.00  0.00    +0.000 HD
BRANCH  10  13
ATOM     13  C   UNL     1      -4.286   0.501  -0.587  0.00  0.00    +0.000 C 
BRANCH  13  16
ATOM     14  F   UNL     1      -4.617   0.999   1.688  0.00  0.00    +0.000 F 
ATOM     15  F   UNL     1      -4.398  -1.098   1.135  0.00  0.00    +0.000 F 
ATOM     16  C   UNL     1      -4.909   0.089   0.728  0.00  0.00    +0.000 C 
ENDBRANCH  13  16
ENDBRANCH  10  13
ENDBRANCH   4  11
BRANCH   1  17
ATOM     17  C   UNL     1       4.432  -0.287   0.287  0.00  0.00    +0.000 C 
BRANCH  17  18
ATOM     18  C   UNL     1       5.808   0.350   0.451  0.00  0.00    +0.000 C 
ATOM     19  C   UNL     1       6.877  -0.651   0.865  0.00  0.00    +0.000 C 
ENDBRANCH  17  18
ENDBRANCH   1  17
TORSDOF 5
