REMARK  Name = 115522131
REMARK  7 active torsions:
REMARK  status: ('A' for Active; 'I' for Inactive)
REMARK    1  A    between atoms: N_5  and  C_10
REMARK    2  A    between atoms: N_7  and  C_15
REMARK    3  A    between atoms: C_8  and  C_9
REMARK    4  A    between atoms: C_8  and  C_10
REMARK    5  A    between atoms: C_9  and  C_11
REMARK    6  A    between atoms: C_11  and  C_12
REMARK    7  A    between atoms: C_13  and  C_14
REMARK                            x       y       z     vdW  Elec       q    Type
REMARK                         _______ _______ _______ _____ _____    ______ ____
ROOT
ATOM      1  O   UNL     1      -1.704  -2.048  -1.210  0.00  0.00    +0.000 OA
ATOM      2  N   UNL     1      -0.475  -1.453   0.666  0.00  0.00    +0.000 N 
ATOM      3  C   UNL     1      -1.538  -1.336  -0.223  0.00  0.00    +0.000 C 
ATOM      4  H   UNL     1      -0.408  -0.808   1.448  0.00  0.00    +0.000 HD
ENDROOT
BRANCH   3   6
ATOM      5  N   UNL     1      -3.635   1.787  -0.607  0.00  0.00    +0.000 NA
ATOM      6  C   UNL     1      -2.508  -0.246   0.057  0.00  0.00    +0.000 A 
ATOM      7  C   UNL     1      -2.760   0.782  -0.837  0.00  0.00    +0.000 A 
ATOM      8  C   UNL     1      -3.198  -0.242   1.264  0.00  0.00    +0.000 A 
ATOM      9  C   UNL     1      -4.106   0.775   1.537  0.00  0.00    +0.000 A 
ATOM     10  C   UNL     1      -4.287   1.757   0.577  0.00  0.00    +0.000 A 
BRANCH   7  11
ATOM     11  N   UNL     1      -2.059   0.786  -2.069  0.00  0.00    +0.000 N 
ATOM     12  H   UNL     1      -1.127   0.392  -2.097  0.00  0.00    +0.000 HD
ATOM     13  H   UNL     1      -2.266   1.548  -2.704  0.00  0.00    +0.000 HD
ENDBRANCH   7  11
ENDBRANCH   3   6
BRANCH   2  14
ATOM     14  C   UNL     1       0.557  -2.441   0.516  0.00  0.00    +0.000 C 
BRANCH  14  15
ATOM     15  C   UNL     1       1.726  -1.937  -0.324  0.00  0.00    +0.000 C 
BRANCH  15  16
ATOM     16  C   UNL     1       2.413  -0.716   0.295  0.00  0.00    +0.000 C 
BRANCH  16  17
ATOM     17  C   UNL     1       3.616  -0.275  -0.539  0.00  0.00    +0.000 C 
BRANCH  17  21
ATOM     18  F   UNL     1       4.742   0.640   1.331  0.00  0.00    +0.000 F 
ATOM     19  F   UNL     1       5.400   1.277  -0.653  0.00  0.00    +0.000 F 
ATOM     20  F   UNL     1       3.494   1.977   0.143  0.00  0.00    +0.000 F 
ATOM     21  C   UNL     1       4.324   0.913   0.076  0.00  0.00    +0.000 C 
ENDBRANCH  17  21
ENDBRANCH  16  17
ENDBRANCH  15  16
ENDBRANCH  14  15
ENDBRANCH   2  14
TORSDOF 7
