REMARK  Name = 115522145
REMARK  8 active torsions:
REMARK  status: ('A' for Active; 'I' for Inactive)
REMARK    1  A    between atoms: N_5  and  C_10
REMARK    2  A    between atoms: N_6  and  C_15
REMARK    3  A    between atoms: N_6  and  C_19
REMARK    4  A    between atoms: C_8  and  C_9
REMARK    5  A    between atoms: C_8  and  C_10
REMARK    6  A    between atoms: C_9  and  C_11
REMARK    7  A    between atoms: C_11  and  C_12
REMARK    8  A    between atoms: C_13  and  C_14
REMARK                            x       y       z     vdW  Elec       q    Type
REMARK                         _______ _______ _______ _____ _____    ______ ____
ROOT
ATOM      1  O   UNL     1      -1.710  -2.277   1.200  0.00  0.00    +0.000 OA
ATOM      2  N   UNL     1      -0.539  -1.589  -0.681  0.00  0.00    +0.000 N 
ATOM      3  C   UNL     1      -1.558  -1.500   0.261  0.00  0.00    +0.000 C 
ATOM      4  H   UNL     1      -0.496  -0.906  -1.431  0.00  0.00    +0.000 HD
ENDROOT
BRANCH   3   6
ATOM      5  N   UNL     1      -3.010   1.973  -0.090  0.00  0.00    +0.000 NA
ATOM      6  C   UNL     1      -2.528  -0.390   0.073  0.00  0.00    +0.000 A 
ATOM      7  C   UNL     1      -2.150   0.943   0.075  0.00  0.00    +0.000 A 
ATOM      8  C   UNL     1      -3.874  -0.685  -0.110  0.00  0.00    +0.000 A 
ATOM      9  C   UNL     1      -4.789   0.347  -0.283  0.00  0.00    +0.000 A 
ATOM     10  C   UNL     1      -4.311   1.647  -0.265  0.00  0.00    +0.000 A 
BRANCH   7  11
ATOM     11  N   UNL     1      -0.780   1.252   0.264  0.00  0.00    +0.000 N 
ATOM     12  C   UNL     1      -0.288   2.591   0.282  0.00  0.00    +0.000 C 
ATOM     13  H   UNL     1      -0.218   0.547   0.728  0.00  0.00    +0.000 HD
ENDBRANCH   7  11
ENDBRANCH   3   6
BRANCH   2  14
ATOM     14  C   UNL     1       0.459  -2.622  -0.649  0.00  0.00    +0.000 C 
BRANCH  14  15
ATOM     15  C   UNL     1       1.681  -2.224   0.172  0.00  0.00    +0.000 C 
BRANCH  15  16
ATOM     16  C   UNL     1       2.362  -0.960  -0.361  0.00  0.00    +0.000 C 
BRANCH  16  17
ATOM     17  C   UNL     1       3.546  -0.555   0.519  0.00  0.00    +0.000 C 
BRANCH  17  21
ATOM     18  F   UNL     1       3.337   1.738  -0.029  0.00  0.00    +0.000 F 
ATOM     19  F   UNL     1       5.236   1.073   0.822  0.00  0.00    +0.000 F 
ATOM     20  F   UNL     1       4.705   0.529  -1.222  0.00  0.00    +0.000 F 
ATOM     21  C   UNL     1       4.211   0.710   0.023  0.00  0.00    +0.000 C 
ENDBRANCH  17  21
ENDBRANCH  16  17
ENDBRANCH  15  16
ENDBRANCH  14  15
ENDBRANCH   2  14
TORSDOF 7
