REMARK  Name = 115522075
REMARK  7 active torsions:
REMARK  status: ('A' for Active; 'I' for Inactive)
REMARK    1  A    between atoms: N_5  and  C_9
REMARK    2  A    between atoms: N_6  and  C_14
REMARK    3  A    between atoms: N_6  and  C_18
REMARK    4  A    between atoms: C_8  and  C_9
REMARK    5  A    between atoms: C_8  and  C_10
REMARK    6  A    between atoms: C_10  and  C_11
REMARK    7  A    between atoms: C_12  and  C_13
REMARK                            x       y       z     vdW  Elec       q    Type
REMARK                         _______ _______ _______ _____ _____    ______ ____
ROOT
ATOM      1  O   UNL     1       0.892  -2.173  -1.212  0.00  0.00    +0.000 OA
ATOM      2  N   UNL     1       0.010  -1.335   0.763  0.00  0.00    +0.000 N 
ATOM      3  C   UNL     1       0.965  -1.421  -0.244  0.00  0.00    +0.000 C 
ATOM      4  H   UNL     1       0.157  -0.689   1.533  0.00  0.00    +0.000 HD
ENDROOT
BRANCH   3   6
ATOM      5  N   UNL     1       3.132   1.658   0.103  0.00  0.00    +0.000 NA
ATOM      6  C   UNL     1       2.155  -0.545  -0.093  0.00  0.00    +0.000 A 
ATOM      7  C   UNL     1       2.066   0.837  -0.031  0.00  0.00    +0.000 A 
ATOM      8  C   UNL     1       3.418  -1.121  -0.011  0.00  0.00    +0.000 A 
ATOM      9  C   UNL     1       4.538  -0.309   0.127  0.00  0.00    +0.000 A 
ATOM     10  C   UNL     1       4.343   1.062   0.179  0.00  0.00    +0.000 A 
BRANCH   7  11
ATOM     11  N   UNL     1       0.782   1.431  -0.116  0.00  0.00    +0.000 N 
ATOM     12  C   UNL     1       0.582   2.842  -0.063  0.00  0.00    +0.000 C 
ATOM     13  H   UNL     1       0.051   0.875  -0.547  0.00  0.00    +0.000 HD
ENDBRANCH   7  11
ENDBRANCH   3   6
BRANCH   2  14
ATOM     14  C   UNL     1      -1.184  -2.136   0.771  0.00  0.00    +0.000 C 
BRANCH  14  15
ATOM     15  C   UNL     1      -2.346  -1.462   0.049  0.00  0.00    +0.000 C 
BRANCH  15  16
ATOM     16  C   UNL     1      -2.743  -0.132   0.693  0.00  0.00    +0.000 C 
BRANCH  16  20
ATOM     17  F   UNL     1      -3.551   0.772  -1.341  0.00  0.00    +0.000 F 
ATOM     18  F   UNL     1      -4.993  -0.226  -0.038  0.00  0.00    +0.000 F 
ATOM     19  F   UNL     1      -4.187   1.722   0.517  0.00  0.00    +0.000 F 
ATOM     20  C   UNL     1      -3.879   0.536  -0.053  0.00  0.00    +0.000 C 
ENDBRANCH  16  20
ENDBRANCH  15  16
ENDBRANCH  14  15
ENDBRANCH   2  14
TORSDOF 6
