REMARK  Name = 11558021
REMARK  10 active torsions:
REMARK  status: ('A' for Active; 'I' for Inactive)
REMARK    1  A    between atoms: N_2  and  C_8
REMARK    2  A    between atoms: N_3  and  C_10
REMARK    3  A    between atoms: N_5  and  C_13
REMARK    4  A    between atoms: C_6  and  C_8
REMARK    5  A    between atoms: C_6  and  C_11
REMARK    6  A    between atoms: C_6  and  C_12
REMARK    7  A    between atoms: C_7  and  C_9
REMARK    8  A    between atoms: C_7  and  C_10
REMARK    9  A    between atoms: C_9  and  C_13
REMARK   10  A    between atoms: C_15  and  C_16
REMARK                            x       y       z     vdW  Elec       q    Type
REMARK                         _______ _______ _______ _____ _____    ______ ____
ROOT
ATOM      1  N   UNL     1      -2.593   1.058   0.004  0.00  0.00    +0.000 N 
ATOM      2  N   UNL     1      -0.508   2.211   0.033  0.00  0.00    +0.000 NA
ATOM      3  C   UNL     1      -1.207   1.037   0.016  0.00  0.00    +0.000 A 
ATOM      4  C   UNL     1       1.551   0.944   0.041  0.00  0.00    +0.000 A 
ATOM      5  C   UNL     1      -0.561  -0.206   0.012  0.00  0.00    +0.000 A 
ATOM      6  C   UNL     1       0.829  -0.244   0.024  0.00  0.00    +0.000 A 
ATOM      7  C   UNL     1       0.842   2.134   0.044  0.00  0.00    +0.000 A 
ATOM      8  H   UNL     1      -3.035   1.970   0.009  0.00  0.00    +0.000 HD
ENDROOT
BRANCH   4  11
ATOM      9  O   UNL     1       3.645   1.901  -0.402  0.00  0.00    +0.000 OA
ATOM     10  N   UNL     1       3.631  -0.182   0.615  0.00  0.00    +0.000 N 
ATOM     11  C   UNL     1       3.003   0.937   0.053  0.00  0.00    +0.000 C 
ATOM     12  H   UNL     1       3.068  -0.898   1.063  0.00  0.00    +0.000 HD
BRANCH  10  13
ATOM     13  C   UNL     1       5.065  -0.327   0.722  0.00  0.00    +0.000 C 
BRANCH  13  14
ATOM     14  C   UNL     1       5.584  -1.557  -0.031  0.00  0.00    +0.000 C 
ATOM     15  C   UNL     1       5.259  -1.437  -1.520  0.00  0.00    +0.000 C 
ATOM     16  C   UNL     1       4.993  -2.853   0.529  0.00  0.00    +0.000 C 
ENDBRANCH  13  14
ENDBRANCH  10  13
ENDBRANCH   4  11
BRANCH   1  17
ATOM     17  C   UNL     1      -3.413  -0.129  -0.013  0.00  0.00    +0.000 C 
BRANCH  17  18
ATOM     18  C   UNL     1      -4.897   0.232  -0.033  0.00  0.00    +0.000 C 
BRANCH  18  19
ATOM     19  C   UNL     1      -5.802  -1.007  -0.049  0.00  0.00    +0.000 C 
BRANCH  19  20
ATOM     20  C   UNL     1      -7.292  -0.660  -0.007  0.00  0.00    +0.000 C 
BRANCH  20  21
ATOM     21  N   UNL     1      -8.130  -1.852  -0.041  0.00  0.00    +0.000 NA
ATOM     22  H   UNL     1      -7.952  -2.372  -0.899  0.00  0.00    +0.000 HD
ATOM     23  H   UNL     1      -9.111  -1.575  -0.072  0.00  0.00    +0.000 HD
ENDBRANCH  20  21
ENDBRANCH  19  20
ENDBRANCH  18  19
ENDBRANCH  17  18
ENDBRANCH   1  17
TORSDOF 8
