REMARK  Name = 115522150
REMARK  7 active torsions:
REMARK  status: ('A' for Active; 'I' for Inactive)
REMARK    1  A    between atoms: N_5  and  C_10
REMARK    2  A    between atoms: N_7  and  C_19
REMARK    3  A    between atoms: C_8  and  C_9
REMARK    4  A    between atoms: C_8  and  C_10
REMARK    5  A    between atoms: C_9  and  C_11
REMARK    6  A    between atoms: C_11  and  C_12
REMARK    7  A    between atoms: C_13  and  C_14
REMARK                            x       y       z     vdW  Elec       q    Type
REMARK                         _______ _______ _______ _____ _____    ______ ____
ROOT
ATOM      1  O   UNL     1      -0.525   1.692  -1.000  0.00  0.00    +0.000 OA
ATOM      2  N   UNL     1      -0.152  -0.592  -0.839  0.00  0.00    +0.000 N 
ATOM      3  C   UNL     1      -0.931   0.557  -0.766  0.00  0.00    +0.000 C 
ATOM      4  H   UNL     1      -0.536  -1.491  -0.570  0.00  0.00    +0.000 HD
ENDROOT
BRANCH   3   7
ATOM      5  N   UNL     1      -4.332   1.268   0.689  0.00  0.00    +0.000 NA
ATOM      6  N   UNL     1      -6.287  -0.085   0.852  0.00  0.00    +0.000 N 
ATOM      7  C   UNL     1      -2.344   0.365  -0.348  0.00  0.00    +0.000 A 
ATOM      8  C   UNL     1      -3.002  -0.838  -0.579  0.00  0.00    +0.000 A 
ATOM      9  C   UNL     1      -3.047   1.377   0.284  0.00  0.00    +0.000 A 
ATOM     10  C   UNL     1      -4.325  -0.989  -0.177  0.00  0.00    +0.000 A 
ATOM     11  C   UNL     1      -4.939   0.084   0.448  0.00  0.00    +0.000 A 
ATOM     12  C   UNL     1      -7.008  -1.297   0.639  0.00  0.00    +0.000 C 
ATOM     13  H   UNL     1      -6.732   0.702   1.308  0.00  0.00    +0.000 HD
ENDBRANCH   3   7
BRANCH   2  14
ATOM     14  C   UNL     1       1.237  -0.565  -1.204  0.00  0.00    +0.000 C 
BRANCH  14  15
ATOM     15  C   UNL     1       2.153  -0.401   0.005  0.00  0.00    +0.000 C 
BRANCH  15  16
ATOM     16  C   UNL     1       3.634  -0.349  -0.382  0.00  0.00    +0.000 C 
BRANCH  16  17
ATOM     17  C   UNL     1       4.519  -0.124   0.844  0.00  0.00    +0.000 C 
BRANCH  17  21
ATOM     18  F   UNL     1       6.212   0.950  -0.413  0.00  0.00    +0.000 F 
ATOM     19  F   UNL     1       6.754   0.186   1.560  0.00  0.00    +0.000 F 
ATOM     20  F   UNL     1       6.398  -1.198  -0.087  0.00  0.00    +0.000 F 
ATOM     21  C   UNL     1       5.984  -0.041   0.475  0.00  0.00    +0.000 C 
ENDBRANCH  17  21
ENDBRANCH  16  17
ENDBRANCH  15  16
ENDBRANCH  14  15
ENDBRANCH   2  14
TORSDOF 6
