REMARK  Name = 115522092
REMARK  5 active torsions:
REMARK  status: ('A' for Active; 'I' for Inactive)
REMARK    1  A    between atoms: N_5  and  C_9
REMARK    2  A    between atoms: C_8  and  C_9
REMARK    3  A    between atoms: C_8  and  C_10
REMARK    4  A    between atoms: C_10  and  C_11
REMARK    5  A    between atoms: C_12  and  C_13
REMARK                            x       y       z     vdW  Elec       q    Type
REMARK                         _______ _______ _______ _____ _____    ______ ____
ROOT
ATOM      1  O   UNL     1       0.537  -2.215  -0.922  0.00  0.00    +0.000 OA
ATOM      2  N   UNL     1      -0.301  -1.055   0.903  0.00  0.00    +0.000 N 
ATOM      3  C   UNL     1       0.649  -1.336  -0.072  0.00  0.00    +0.000 C 
ATOM      4  H   UNL     1      -0.122  -0.349   1.608  0.00  0.00    +0.000 HD
ENDROOT
BRANCH   3   7
ATOM      5  N   UNL     1       4.241  -0.301  -0.532  0.00  0.00    +0.000 NA
ATOM      6  N   UNL     1       5.377   1.721   0.014  0.00  0.00    +0.000 N 
ATOM      7  C   UNL     1       1.883  -0.511  -0.039  0.00  0.00    +0.000 A 
ATOM      8  C   UNL     1       1.872   0.776   0.489  0.00  0.00    +0.000 A 
ATOM      9  C   UNL     1       3.083  -0.999  -0.532  0.00  0.00    +0.000 A 
ATOM     10  C   UNL     1       3.044   1.524   0.506  0.00  0.00    +0.000 A 
ATOM     11  C   UNL     1       4.191   0.946  -0.011  0.00  0.00    +0.000 A 
ATOM     12  H   UNL     1       5.294   2.730  -0.018  0.00  0.00    +0.000 HD
ATOM     13  H   UNL     1       6.212   1.296  -0.371  0.00  0.00    +0.000 HD
ENDBRANCH   3   7
BRANCH   2  14
ATOM     14  C   UNL     1      -1.536  -1.783   1.016  0.00  0.00    +0.000 C 
BRANCH  14  15
ATOM     15  C   UNL     1      -2.660  -1.161   0.193  0.00  0.00    +0.000 C 
BRANCH  15  16
ATOM     16  C   UNL     1      -2.987   0.268   0.634  0.00  0.00    +0.000 C 
BRANCH  16  20
ATOM     17  F   UNL     1      -4.329   2.150   0.178  0.00  0.00    +0.000 F 
ATOM     18  F   UNL     1      -3.742   0.909  -1.516  0.00  0.00    +0.000 F 
ATOM     19  F   UNL     1      -5.237   0.187  -0.096  0.00  0.00    +0.000 F 
ATOM     20  C   UNL     1      -4.084   0.879  -0.211  0.00  0.00    +0.000 C 
ENDBRANCH  16  20
ENDBRANCH  15  16
ENDBRANCH  14  15
ENDBRANCH   2  14
TORSDOF 5
