REMARK  Name = 116317298
REMARK  4 active torsions:
REMARK  status: ('A' for Active; 'I' for Inactive)
REMARK    1  A    between atoms: N_4  and  C_7
REMARK    2  A    between atoms: N_4  and  C_10
REMARK    3  A    between atoms: C_7  and  C_11
REMARK    4  A    between atoms: C_8  and  C_9
REMARK                            x       y       z     vdW  Elec       q    Type
REMARK                         _______ _______ _______ _____ _____    ______ ____
ROOT
ATOM      1  N   UNL     1      -3.035  -0.786   0.638  0.00  0.00    +0.000 NA
ATOM      2  N   UNL     1      -4.783   0.733   0.081  0.00  0.00    +0.000 N 
ATOM      3  C   UNL     1      -0.801  -0.386  -0.196  0.00  0.00    +0.000 A 
ATOM      4  C   UNL     1      -1.241   0.763  -0.843  0.00  0.00    +0.000 A 
ATOM      5  C   UNL     1      -1.729  -1.120   0.525  0.00  0.00    +0.000 A 
ATOM      6  C   UNL     1      -2.577   1.139  -0.750  0.00  0.00    +0.000 A 
ATOM      7  C   UNL     1      -3.425   0.337  -0.004  0.00  0.00    +0.000 A 
ATOM      8  H   UNL     1      -5.004   1.718   0.000  0.00  0.00    +0.000 HD
ATOM      9  H   UNL     1      -5.399   0.147   0.633  0.00  0.00    +0.000 HD
ENDROOT
BRANCH   3  12
ATOM     10  O   UNL     1       0.899  -1.552  -1.212  0.00  0.00    +0.000 OA
ATOM     11  N   UNL     1       1.497  -0.338   0.694  0.00  0.00    +0.000 N 
ATOM     12  C   UNL     1       0.606  -0.810  -0.275  0.00  0.00    +0.000 C 
ATOM     13  C   UNL     1       1.073   0.540   1.776  0.00  0.00    +0.000 C 
BRANCH  11  14
ATOM     14  C   UNL     1       2.915  -0.693   0.686  0.00  0.00    +0.000 C 
BRANCH  14  17
ATOM     15  F   UNL     1       3.591   1.541   0.395  0.00  0.00    +0.000 F 
ATOM     16  F   UNL     1       3.280   0.338  -1.397  0.00  0.00    +0.000 F 
ATOM     17  C   UNL     1       3.729   0.294  -0.118  0.00  0.00    +0.000 C 
ENDBRANCH  14  17
ENDBRANCH  11  14
ENDBRANCH   3  12
TORSDOF 3
