REMARK  Name = 116317283
REMARK  5 active torsions:
REMARK  status: ('A' for Active; 'I' for Inactive)
REMARK    1  A    between atoms: N_4  and  C_7
REMARK    2  A    between atoms: N_4  and  C_10
REMARK    3  A    between atoms: N_6  and  C_16
REMARK    4  A    between atoms: C_7  and  C_11
REMARK    5  A    between atoms: C_8  and  C_9
REMARK                            x       y       z     vdW  Elec       q    Type
REMARK                         _______ _______ _______ _____ _____    ______ ____
ROOT
ATOM      1  N   UNL     1      -2.314  -0.955   0.465  0.00  0.00    +0.000 NA
ATOM      2  N   UNL     1      -4.471  -0.244  -0.256  0.00  0.00    +0.000 N 
ATOM      3  C   UNL     1      -0.432   0.545   0.244  0.00  0.00    +0.000 A 
ATOM      4  C   UNL     1      -1.260   1.514  -0.312  0.00  0.00    +0.000 A 
ATOM      5  C   UNL     1      -1.002  -0.662   0.613  0.00  0.00    +0.000 A 
ATOM      6  C   UNL     1      -3.088   0.010  -0.079  0.00  0.00    +0.000 A 
ATOM      7  C   UNL     1      -2.615   1.249  -0.480  0.00  0.00    +0.000 A 
ATOM      8  C   UNL     1      -5.080  -1.479   0.116  0.00  0.00    +0.000 C 
ATOM      9  H   UNL     1      -4.982   0.386  -0.864  0.00  0.00    +0.000 HD
ENDROOT
BRANCH   3  12
ATOM     10  O   UNL     1       1.336   1.280   1.516  0.00  0.00    +0.000 OA
ATOM     11  N   UNL     1       1.882   0.457  -0.603  0.00  0.00    +0.000 N 
ATOM     12  C   UNL     1       1.006   0.795   0.434  0.00  0.00    +0.000 C 
ATOM     13  C   UNL     1       1.414  -0.114  -1.857  0.00  0.00    +0.000 C 
BRANCH  11  14
ATOM     14  C   UNL     1       3.326   0.654  -0.496  0.00  0.00    +0.000 C 
BRANCH  14  17
ATOM     15  F   UNL     1       3.772  -1.647  -0.698  0.00  0.00    +0.000 F 
ATOM     16  F   UNL     1       3.514  -0.839   1.311  0.00  0.00    +0.000 F 
ATOM     17  C   UNL     1       4.011  -0.564   0.081  0.00  0.00    +0.000 C 
ENDBRANCH  14  17
ENDBRANCH  11  14
ENDBRANCH   3  12
TORSDOF 3
