REMARK  Name = 116317286
REMARK  5 active torsions:
REMARK  status: ('A' for Active; 'I' for Inactive)
REMARK    1  A    between atoms: N_4  and  C_7
REMARK    2  A    between atoms: N_4  and  C_10
REMARK    3  A    between atoms: N_6  and  C_12
REMARK    4  A    between atoms: C_7  and  C_11
REMARK    5  A    between atoms: C_8  and  C_9
REMARK                            x       y       z     vdW  Elec       q    Type
REMARK                         _______ _______ _______ _____ _____    ______ ____
ROOT
ATOM      1  N   UNL     1      -2.835  -1.300  -0.317  0.00  0.00    +0.000 NA
ATOM      2  C   UNL     1      -1.113   0.278   0.307  0.00  0.00    +0.000 A 
ATOM      3  C   UNL     1      -1.566  -1.005   0.042  0.00  0.00    +0.000 A 
ATOM      4  C   UNL     1      -2.021   1.324   0.196  0.00  0.00    +0.000 A 
ATOM      5  C   UNL     1      -3.336   1.061  -0.171  0.00  0.00    +0.000 A 
ATOM      6  C   UNL     1      -3.690  -0.257  -0.414  0.00  0.00    +0.000 A 
ENDROOT
BRANCH   2   9
ATOM      7  O   UNL     1       0.525   0.541   1.897  0.00  0.00    +0.000 OA
ATOM      8  N   UNL     1       1.206   0.834  -0.320  0.00  0.00    +0.000 N 
ATOM      9  C   UNL     1       0.277   0.568   0.692  0.00  0.00    +0.000 C 
ATOM     10  C   UNL     1       0.835   0.848  -1.728  0.00  0.00    +0.000 C 
BRANCH   8  11
ATOM     11  C   UNL     1       2.610   1.117  -0.032  0.00  0.00    +0.000 C 
BRANCH  11  14
ATOM     12  F   UNL     1       3.353  -0.779  -1.211  0.00  0.00    +0.000 F 
ATOM     13  F   UNL     1       2.962  -1.004   0.923  0.00  0.00    +0.000 F 
ATOM     14  C   UNL     1       3.438  -0.148  -0.014  0.00  0.00    +0.000 C 
ENDBRANCH  11  14
ENDBRANCH   8  11
ENDBRANCH   2   9
BRANCH   3  15
ATOM     15  N   UNL     1      -0.645  -2.077   0.150  0.00  0.00    +0.000 N 
ATOM     16  H   UNL     1       0.331  -1.900  -0.055  0.00  0.00    +0.000 HD
ATOM     17  H   UNL     1      -1.005  -3.003  -0.047  0.00  0.00    +0.000 HD
ENDBRANCH   3  15
TORSDOF 4
