REMARK  Name = 11636833
REMARK  2 active torsions:
REMARK  status: ('A' for Active; 'I' for Inactive)
REMARK    1  A    between atoms: N_3  and  N_5
REMARK    2  A    between atoms: C_6  and  C_11
REMARK                            x       y       z     vdW  Elec       q    Type
REMARK                         _______ _______ _______ _____ _____    ______ ____
ROOT
ATOM      1  N   UNL     1      -0.887   1.391  -0.017  0.00  0.00    +0.000 NA
ATOM      2  N   UNL     1      -3.057   0.409  -0.078  0.00  0.00    +0.000 N 
ATOM      3  C   UNL     1       1.064  -0.035  -0.003  0.00  0.00    +0.000 A 
ATOM      4  C   UNL     1      -1.647   0.274  -0.052  0.00  0.00    +0.000 A 
ATOM      5  C   UNL     1       0.250  -1.162  -0.040  0.00  0.00    +0.000 A 
ATOM      6  C   UNL     1      -1.133  -1.013  -0.065  0.00  0.00    +0.000 A 
ATOM      7  C   UNL     1       0.452   1.207   0.007  0.00  0.00    +0.000 A 
ATOM      8  H   UNL     1      -3.433   1.349  -0.034  0.00  0.00    +0.000 HD
ENDROOT
BRANCH   3  11
ATOM      9  O   UNL     1       3.070  -1.270  -0.002  0.00  0.00    +0.000 OA
ATOM     10  N   UNL     1       3.261   1.015   0.060  0.00  0.00    +0.000 N 
ATOM     11  C   UNL     1       2.511  -0.158   0.024  0.00  0.00    +0.000 C 
ATOM     12  H   UNL     1       2.885   1.954   0.077  0.00  0.00    +0.000 HD
ATOM     13  H   UNL     1       4.275   0.958   0.072  0.00  0.00    +0.000 HD
ENDBRANCH   3  11
BRANCH   2  14
ATOM     14  N   UNL     1      -3.885  -0.657   0.167  0.00  0.00    +0.000 NA
ATOM     15  H   UNL     1      -4.779  -0.487  -0.289  0.00  0.00    +0.000 HD
ATOM     16  H   UNL     1      -4.082  -0.695   1.167  0.00  0.00    +0.000 HD
ENDBRANCH   2  14
TORSDOF 2
