REMARK  Name = 116550839
REMARK  5 active torsions:
REMARK  status: ('A' for Active; 'I' for Inactive)
REMARK    1  A    between atoms: N_2  and  C_8
REMARK    2  A    between atoms: N_4  and  C_9
REMARK    3  A    between atoms: C_5  and  C_7
REMARK    4  A    between atoms: C_5  and  C_8
REMARK    5  A    between atoms: C_6  and  C_7
REMARK                            x       y       z     vdW  Elec       q    Type
REMARK                         _______ _______ _______ _____ _____    ______ ____
ROOT
ATOM      1  N   UNL     1      -2.766   0.459   0.413  0.00  0.00    +0.000 NA
ATOM      2  C   UNL     1      -0.479  -0.042  -0.190  0.00  0.00    +0.000 A 
ATOM      3  C   UNL     1      -1.484   0.830   0.197  0.00  0.00    +0.000 A 
ATOM      4  C   UNL     1      -0.811  -1.381  -0.366  0.00  0.00    +0.000 A 
ATOM      5  C   UNL     1      -2.119  -1.801  -0.153  0.00  0.00    +0.000 A 
ATOM      6  C   UNL     1      -3.051  -0.850   0.232  0.00  0.00    +0.000 A 
ENDROOT
BRANCH   3   7
ATOM      7  N   UNL     1      -1.152   2.196   0.381  0.00  0.00    +0.000 N 
ATOM      8  H   UNL     1      -0.219   2.428   0.699  0.00  0.00    +0.000 HD
ATOM      9  H   UNL     1      -1.908   2.809   0.659  0.00  0.00    +0.000 HD
ENDBRANCH   3   7
BRANCH   2  11
ATOM     10  O   UNL     1       1.144   1.542  -0.810  0.00  0.00    +0.000 OA
ATOM     11  C   UNL     1       0.929   0.397  -0.418  0.00  0.00    +0.000 C 
BRANCH  11  12
ATOM     12  C   UNL     1       2.056  -0.592  -0.156  0.00  0.00    +0.000 C 
BRANCH  12  13
ATOM     13  C   UNL     1       3.337   0.105   0.301  0.00  0.00    +0.000 C 
BRANCH  13  14
ATOM     14  N   UNL     1       4.395  -0.863   0.569  0.00  0.00    +0.000 NA
ATOM     15  H   UNL     1       5.251  -0.368   0.816  0.00  0.00    +0.000 HD
ATOM     16  H   UNL     1       4.602  -1.387  -0.280  0.00  0.00    +0.000 HD
ENDBRANCH  13  14
ENDBRANCH  12  13
ENDBRANCH  11  12
ENDBRANCH   2  11
TORSDOF 5
