REMARK  Name = 11666136
REMARK  10 active torsions:
REMARK  status: ('A' for Active; 'I' for Inactive)
REMARK    1  A    between atoms: N_2  and  C_7
REMARK    2  A    between atoms: N_3  and  C_10
REMARK    3  A    between atoms: N_5  and  C_13
REMARK    4  A    between atoms: C_6  and  C_7
REMARK    5  A    between atoms: C_6  and  C_11
REMARK    6  A    between atoms: C_6  and  C_12
REMARK    7  A    between atoms: C_8  and  C_9
REMARK    8  A    between atoms: C_8  and  C_10
REMARK    9  A    between atoms: C_9  and  C_13
REMARK   10  A    between atoms: C_15  and  C_16
REMARK                            x       y       z     vdW  Elec       q    Type
REMARK                         _______ _______ _______ _____ _____    ______ ____
ROOT
ATOM      1  N   UNL     1       3.495  -0.068  -0.585  0.00  0.00    +0.000 N 
ATOM      2  N   UNL     1       1.521  -0.057   0.749  0.00  0.00    +0.000 NA
ATOM      3  C   UNL     1       2.151   0.333  -0.382  0.00  0.00    +0.000 A 
ATOM      4  C   UNL     1      -0.404   1.120  -0.037  0.00  0.00    +0.000 A 
ATOM      5  C   UNL     1       1.564   1.109  -1.368  0.00  0.00    +0.000 A 
ATOM      6  C   UNL     1       0.246   1.511  -1.182  0.00  0.00    +0.000 A 
ATOM      7  C   UNL     1       0.240   0.352   0.895  0.00  0.00    +0.000 A 
ATOM      8  H   UNL     1       3.815  -0.056  -1.548  0.00  0.00    +0.000 HD
ENDROOT
BRANCH   4  11
ATOM      9  O   UNL     1      -2.232   2.556  -0.343  0.00  0.00    +0.000 OA
ATOM     10  N   UNL     1      -2.575   0.690   0.992  0.00  0.00    +0.000 N 
ATOM     11  C   UNL     1      -1.813   1.532   0.190  0.00  0.00    +0.000 C 
ATOM     12  H   UNL     1      -2.184  -0.174   1.351  0.00  0.00    +0.000 HD
BRANCH  10  13
ATOM     13  C   UNL     1      -3.960   0.940   1.284  0.00  0.00    +0.000 C 
BRANCH  13  14
ATOM     14  C   UNL     1      -4.898   0.298   0.266  0.00  0.00    +0.000 C 
BRANCH  14  15
ATOM     15  C   UNL     1      -4.754  -1.229   0.220  0.00  0.00    +0.000 C 
BRANCH  15  16
ATOM     16  C   UNL     1      -5.727  -1.893  -0.756  0.00  0.00    +0.000 C 
BRANCH  16  17
ATOM     17  N   UNL     1      -5.558  -3.340  -0.795  0.00  0.00    +0.000 NA
ATOM     18  H   UNL     1      -4.610  -3.567  -1.093  0.00  0.00    +0.000 HD
ATOM     19  H   UNL     1      -6.181  -3.735  -1.498  0.00  0.00    +0.000 HD
ENDBRANCH  16  17
ENDBRANCH  15  16
ENDBRANCH  14  15
ENDBRANCH  13  14
ENDBRANCH  10  13
ENDBRANCH   4  11
BRANCH   1  20
ATOM     20  C   UNL     1       4.211  -0.867   0.355  0.00  0.00    +0.000 C 
BRANCH  20  21
ATOM     21  C   UNL     1       5.658  -1.119  -0.090  0.00  0.00    +0.000 C 
ATOM     22  C   UNL     1       6.436   0.184  -0.280  0.00  0.00    +0.000 C 
ATOM     23  C   UNL     1       6.400  -2.053   0.868  0.00  0.00    +0.000 C 
ENDBRANCH  20  21
ENDBRANCH   1  20
TORSDOF 8
