REMARK  Name = 117781666
REMARK  2 active torsions:
REMARK  status: ('A' for Active; 'I' for Inactive)
REMARK    1  A    between atoms: N_2  and  C_8
REMARK    2  A    between atoms: C_7  and  C_11
REMARK                            x       y       z     vdW  Elec       q    Type
REMARK                         _______ _______ _______ _____ _____    ______ ____
ROOT
ATOM      1  O   UNL     1      -0.138   2.858  -0.002  0.00  0.00    +0.000 OA
ATOM      2  N   UNL     1      -1.014  -1.065  -0.002  0.00  0.00    +0.000 N 
ATOM      3  N   UNL     1      -1.732   1.219   0.001  0.00  0.00    +0.000 NA
ATOM      4  N   UNL     1       1.344  -1.633   0.000  0.00  0.00    +0.000 NA
ATOM      5  C   UNL     1       0.356  -0.699  -0.001  0.00  0.00    +0.000 A 
ATOM      6  C   UNL     1       0.666   0.665   0.000  0.00  0.00    +0.000 A 
ATOM      7  C   UNL     1      -1.972  -0.060   0.001  0.00  0.00    +0.000 A 
ATOM      8  C   UNL     1      -1.278  -2.498  -0.002  0.00  0.00    +0.000 C 
ATOM      9  C   UNL     1      -0.429   1.666  -0.001  0.00  0.00    +0.000 A 
ATOM     10  C   UNL     1       2.001   1.074   0.001  0.00  0.00    +0.000 A 
ATOM     11  C   UNL     1      -3.440  -0.438   0.003  0.00  0.00    +0.000 C 
ATOM     12  C   UNL     1       3.007   0.119   0.001  0.00  0.00    +0.000 A 
ATOM     13  C   UNL     1       2.629  -1.210   0.001  0.00  0.00    +0.000 A 
ENDROOT
TORSDOF 0
