REMARK  Name = 11776846
REMARK  9 active torsions:
REMARK  status: ('A' for Active; 'I' for Inactive)
REMARK    1  A    between atoms: N_2  and  C_5
REMARK    2  A    between atoms: N_2  and  C_6
REMARK    3  A    between atoms: N_3  and  C_8
REMARK    4  A    between atoms: N_3  and  C_9
REMARK    5  A    between atoms: C_5  and  C_15
REMARK    6  A    between atoms: C_6  and  C_16
REMARK    7  A    between atoms: C_8  and  C_17
REMARK    8  A    between atoms: C_9  and  C_18
REMARK    9  A    between atoms: C_10  and  C_11
REMARK                            x       y       z     vdW  Elec       q    Type
REMARK                         _______ _______ _______ _____ _____    ______ ____
ROOT
ATOM      1  N   UNL     1      -3.273   0.026   0.107  0.00  0.00    +0.000 N 
ATOM      2  N   UNL     1      -1.264   0.718  -0.970  0.00  0.00    +0.000 NA
ATOM      3  C   UNL     1      -1.877  -0.109  -0.094  0.00  0.00    +0.000 A 
ATOM      4  C   UNL     1       0.794  -0.403  -0.446  0.00  0.00    +0.000 A 
ATOM      5  C   UNL     1      -1.224  -1.093   0.630  0.00  0.00    +0.000 A 
ATOM      6  C   UNL     1       0.147  -1.238   0.444  0.00  0.00    +0.000 A 
ATOM      7  C   UNL     1       0.069   0.548  -1.125  0.00  0.00    +0.000 A 
ENDROOT
BRANCH   4  10
ATOM      8  O   UNL     1       2.592  -1.312  -1.551  0.00  0.00    +0.000 OA
ATOM      9  N   UNL     1       3.106   0.215   0.143  0.00  0.00    +0.000 N 
ATOM     10  C   UNL     1       2.243  -0.532  -0.665  0.00  0.00    +0.000 C 
BRANCH   9  11
ATOM     11  C   UNL     1       4.545   0.093  -0.044  0.00  0.00    +0.000 C 
ATOM     12  C   UNL     1       5.125  -1.005   0.823  0.00  0.00    +0.000 C 
ENDBRANCH   9  11
BRANCH   9  13
ATOM     13  C   UNL     1       2.680   1.140   1.192  0.00  0.00    +0.000 C 
ATOM     14  C   UNL     1       2.488   2.542   0.651  0.00  0.00    +0.000 C 
ENDBRANCH   9  13
ENDBRANCH   4  10
BRANCH   1  15
ATOM     15  C   UNL     1      -3.961  -0.842   1.036  0.00  0.00    +0.000 C 
ATOM     16  C   UNL     1      -4.284  -2.183   0.409  0.00  0.00    +0.000 C 
ENDBRANCH   1  15
BRANCH   1  17
ATOM     17  C   UNL     1      -4.016   1.042  -0.606  0.00  0.00    +0.000 C 
ATOM     18  C   UNL     1      -3.891   2.394   0.065  0.00  0.00    +0.000 C 
ENDBRANCH   1  17
TORSDOF 5
