REMARK  Name = 117806587
REMARK  2 active torsions:
REMARK  status: ('A' for Active; 'I' for Inactive)
REMARK    1  A    between atoms: C_5  and  C_9
REMARK    2  A    between atoms: C_11  and  C_12
REMARK                            x       y       z     vdW  Elec       q    Type
REMARK                         _______ _______ _______ _____ _____    ______ ____
ROOT
ATOM      1  N   UNL     1       2.593  -1.137  -0.157  0.00  0.00    +0.000 NA
ATOM      2  N   UNL     1       4.448   0.356  -0.081  0.00  0.00    +0.000 N 
ATOM      3  C   UNL     1       0.351  -0.261   0.072  0.00  0.00    +0.000 A 
ATOM      4  C   UNL     1       0.859   1.027   0.199  0.00  0.00    +0.000 A 
ATOM      5  C   UNL     1       2.233   1.234   0.148  0.00  0.00    +0.000 A 
ATOM      6  C   UNL     1       1.252  -1.299  -0.103  0.00  0.00    +0.000 A 
ATOM      7  C   UNL     1       3.050   0.129  -0.030  0.00  0.00    +0.000 A 
ATOM      8  H   UNL     1       4.778   1.254  -0.414  0.00  0.00    +0.000 HD
ATOM      9  H   UNL     1       5.040  -0.453  -0.217  0.00  0.00    +0.000 HD
ENDROOT
BRANCH   3  10
ATOM     10  C   UNL     1      -1.078  -0.510   0.122  0.00  0.00    +0.000 C 
ATOM     11  C   UNL     1      -2.043   0.414  -0.094  0.00  0.00    +0.000 C 
BRANCH  11  14
ATOM     12  O   UNL     1      -3.870  -1.097   0.223  0.00  0.00    +0.000 OA
ATOM     13  N   UNL     1      -4.314   1.105  -0.272  0.00  0.00    +0.000 N 
ATOM     14  C   UNL     1      -3.480   0.038  -0.026  0.00  0.00    +0.000 C 
ATOM     15  H   UNL     1      -3.971   2.039  -0.475  0.00  0.00    +0.000 HD
ATOM     16  H   UNL     1      -5.322   0.989  -0.257  0.00  0.00    +0.000 HD
ENDBRANCH  11  14
ENDBRANCH   3  10
TORSDOF 2
