REMARK  Name = 117908113
REMARK  3 active torsions:
REMARK  status: ('A' for Active; 'I' for Inactive)
REMARK    1  A    between atoms: N_2  and  C_7
REMARK    2  A    between atoms: N_4  and  C_13
REMARK    3  A    between atoms: C_8  and  C_9
REMARK                            x       y       z     vdW  Elec       q    Type
REMARK                         _______ _______ _______ _____ _____    ______ ____
ROOT
ATOM      1  O   UNL     1      -0.084   0.178  -1.804  0.00  0.00    +0.000 OA
ATOM      2  N   UNL     1      -0.865  -0.568   0.284  0.00  0.00    +0.000 N 
ATOM      3  C   UNL     1       0.105  -0.303  -0.692  0.00  0.00    +0.000 C 
ATOM      4  H   UNL     1      -0.535  -0.963   1.163  0.00  0.00    +0.000 HD
ENDROOT
BRANCH   3   6
ATOM      5  N   UNL     1       3.784   0.084   0.071  0.00  0.00    +0.000 NA
ATOM      6  C   UNL     1       1.504  -0.625  -0.305  0.00  0.00    +0.000 A 
ATOM      7  C   UNL     1       1.845  -1.929   0.036  0.00  0.00    +0.000 A 
ATOM      8  C   UNL     1       2.501   0.337  -0.272  0.00  0.00    +0.000 A 
ATOM      9  C   UNL     1       3.154  -2.227   0.395  0.00  0.00    +0.000 A 
ATOM     10  C   UNL     1       4.078  -1.194   0.397  0.00  0.00    +0.000 A 
BRANCH   8  11
ATOM     11  N   UNL     1       2.227   1.668  -0.606  0.00  0.00    +0.000 NA
ATOM     12  N   UNL     1       1.879   2.353   0.381  0.00  0.00    +0.000 NA
ATOM     13  N   UNL     1       1.563   2.971   1.287  0.00  0.00    +0.000 NA
ENDBRANCH   8  11
ENDBRANCH   3   6
BRANCH   2  14
ATOM     14  C   UNL     1      -2.240  -0.346   0.211  0.00  0.00    +0.000 A 
ATOM     15  C   UNL     1      -2.797   0.204  -0.943  0.00  0.00    +0.000 A 
ATOM     16  C   UNL     1      -3.058  -0.674   1.292  0.00  0.00    +0.000 A 
ATOM     17  C   UNL     1      -4.173   0.426  -1.016  0.00  0.00    +0.000 A 
ATOM     18  C   UNL     1      -4.433  -0.453   1.219  0.00  0.00    +0.000 A 
ATOM     19  C   UNL     1      -4.990   0.098   0.065  0.00  0.00    +0.000 A 
ENDBRANCH   2  14
TORSDOF 3
