REMARK  Name = 118035336
REMARK  3 active torsions:
REMARK  status: ('A' for Active; 'I' for Inactive)
REMARK    1  A    between atoms: N_6  and  C_11
REMARK    2  A    between atoms: C_8  and  C_13
REMARK    3  A    between atoms: C_9  and  C_14
REMARK                            x       y       z     vdW  Elec       q    Type
REMARK                         _______ _______ _______ _____ _____    ______ ____
ROOT
ATOM      1  N   UNL     1       0.314   2.092   0.021  0.00  0.00    +0.000 NA
ATOM      2  C   UNL     1      -1.149   0.168  -0.001  0.00  0.00    +0.000 A 
ATOM      3  C   UNL     1       1.236  -0.142  -0.024  0.00  0.00    +0.000 A 
ATOM      4  C   UNL     1      -0.046  -0.679  -0.023  0.00  0.00    +0.000 A 
ATOM      5  C   UNL     1       1.361   1.238  -0.002  0.00  0.00    +0.000 A 
ATOM      6  C   UNL     1      -0.917   1.534   0.021  0.00  0.00    +0.000 A 
ENDROOT
BRANCH   3   9
ATOM      7  O   UNL     1       2.896  -1.404  -1.119  0.00  0.00    +0.000 OA
ATOM      8  N   UNL     1       2.903  -1.455   1.174  0.00  0.00    +0.000 N 
ATOM      9  C   UNL     1       2.385  -1.037  -0.048  0.00  0.00    +0.000 C 
ATOM     10  H   UNL     1       2.503  -1.159   2.059  0.00  0.00    +0.000 HD
ATOM     11  H   UNL     1       3.706  -2.074   1.216  0.00  0.00    +0.000 HD
ENDBRANCH   3   9
BRANCH   2  15
ATOM     12  F   UNL     1      -2.566  -1.741  -0.023  0.00  0.00    +0.000 F 
ATOM     13  F   UNL     1      -3.267  -0.014   1.097  0.00  0.00    +0.000 F 
ATOM     14  F   UNL     1      -3.283   0.023  -1.072  0.00  0.00    +0.000 F 
ATOM     15  C   UNL     1      -2.534  -0.375   0.000  0.00  0.00    +0.000 C 
ENDBRANCH   2  15
BRANCH   5  16
ATOM     16  N   UNL     1       2.666   1.792  -0.002  0.00  0.00    +0.000 N 
ATOM     17  H   UNL     1       3.414   1.272   0.440  0.00  0.00    +0.000 HD
ATOM     18  H   UNL     1       2.727   2.803   0.010  0.00  0.00    +0.000 HD
ENDBRANCH   5  16
TORSDOF 3
