REMARK  Name = 118102443
REMARK  5 active torsions:
REMARK  status: ('A' for Active; 'I' for Inactive)
REMARK    1  A    between atoms: N_3  and  C_6
REMARK    2  A    between atoms: N_5  and  C_11
REMARK    3  A    between atoms: C_6  and  C_7
REMARK    4  A    between atoms: C_7  and  C_10
REMARK    5  A    between atoms: C_8  and  C_9
REMARK                            x       y       z     vdW  Elec       q    Type
REMARK                         _______ _______ _______ _____ _____    ______ ____
ROOT
ATOM      1  N   UNL     1      -2.552   0.166  -0.406  0.00  0.00    +0.000 NA
ATOM      2  C   UNL     1      -0.324   0.811   0.276  0.00  0.00    +0.000 A 
ATOM      3  C   UNL     1      -1.315  -0.131   0.051  0.00  0.00    +0.000 A 
ATOM      4  C   UNL     1      -0.622   2.144   0.015  0.00  0.00    +0.000 A 
ATOM      5  C   UNL     1      -1.884   2.489  -0.457  0.00  0.00    +0.000 A 
ATOM      6  C   UNL     1      -2.805   1.472  -0.648  0.00  0.00    +0.000 A 
ENDROOT
BRANCH   2   9
ATOM      7  O   UNL     1       1.130  -0.122   1.861  0.00  0.00    +0.000 OA
ATOM      8  N   UNL     1       2.096   0.785  -0.043  0.00  0.00    +0.000 N 
ATOM      9  C   UNL     1       1.026   0.453   0.781  0.00  0.00    +0.000 C 
ATOM     10  H   UNL     1       1.916   1.246  -0.930  0.00  0.00    +0.000 HD
BRANCH   8  11
ATOM     11  C   UNL     1       3.459   0.483   0.295  0.00  0.00    +0.000 C 
BRANCH  11  12
ATOM     12  C   UNL     1       3.896  -0.884  -0.220  0.00  0.00    +0.000 C 
ATOM     13  C   UNL     1       3.818  -0.994  -1.736  0.00  0.00    +0.000 C 
ENDBRANCH  11  12
ENDBRANCH   8  11
ENDBRANCH   2   9
BRANCH   3  15
ATOM     14  O   UNL     1      -3.027  -2.620  -0.234  0.00  0.00    +0.000 OA
ATOM     15  N   UNL     1      -1.028  -1.479   0.310  0.00  0.00    +0.000 N 
ATOM     16  C   UNL     1      -1.868  -2.572   0.155  0.00  0.00    +0.000 C 
ATOM     17  H   UNL     1      -0.094  -1.690   0.652  0.00  0.00    +0.000 HD
ENDBRANCH   3  15
TORSDOF 4
