REMARK  Name = 11819541
REMARK  2 active torsions:
REMARK  status: ('A' for Active; 'I' for Inactive)
REMARK    1  A    between atoms: N_2  and  C_5
REMARK    2  A    between atoms: C_5  and  C_10
REMARK                            x       y       z     vdW  Elec       q    Type
REMARK                         _______ _______ _______ _____ _____    ______ ____
ROOT
ATOM      1  O   UNL     1       1.137   2.037   0.225  0.00  0.00    +0.000 OA
ATOM      2  N   UNL     1       1.672  -0.234   0.260  0.00  0.00    +0.000 N 
ATOM      3  N   UNL     1      -0.036  -1.881   0.086  0.00  0.00    +0.000 NA
ATOM      4  N   UNL     1      -2.271  -1.252  -0.111  0.00  0.00    +0.000 NA
ATOM      5  C   UNL     1      -0.624   0.495   0.056  0.00  0.00    +0.000 A 
ATOM      6  C   UNL     1       0.802   0.857   0.188  0.00  0.00    +0.000 A 
ATOM      7  C   UNL     1      -0.985  -0.849   0.010  0.00  0.00    +0.000 A 
ATOM      8  C   UNL     1       1.204  -1.535   0.204  0.00  0.00    +0.000 A 
ATOM      9  C   UNL     1      -1.619   1.468  -0.025  0.00  0.00    +0.000 A 
ATOM     10  C   UNL     1      -2.944   1.071  -0.149  0.00  0.00    +0.000 A 
ATOM     11  C   UNL     1      -3.215  -0.286  -0.187  0.00  0.00    +0.000 A 
ENDROOT
BRANCH   2  12
ATOM     12  C   UNL     1       3.100   0.003   0.397  0.00  0.00    +0.000 C 
ATOM     13  C   UNL     1       3.778   0.106  -0.954  0.00  0.00    +0.000 C 
ENDBRANCH   2  12
TORSDOF 1
