REMARK  Name = 118348030
REMARK  3 active torsions:
REMARK  status: ('A' for Active; 'I' for Inactive)
REMARK    1  A    between atoms: N_3  and  C_7
REMARK    2  A    between atoms: C_6  and  C_8
REMARK    3  A    between atoms: C_7  and  C_10
REMARK                            x       y       z     vdW  Elec       q    Type
REMARK                         _______ _______ _______ _____ _____    ______ ____
ROOT
ATOM      1  F   UNL     1       0.388  -2.317   0.190  0.00  0.00    +0.000 F 
ATOM      2  N   UNL     1       1.989   1.481  -0.141  0.00  0.00    +0.000 NA
ATOM      3  N   UNL     1       4.151   0.585   0.308  0.00  0.00    +0.000 N 
ATOM      4  C   UNL     1       0.078   0.002  -0.199  0.00  0.00    +0.000 A 
ATOM      5  C   UNL     1       0.900  -1.083   0.082  0.00  0.00    +0.000 A 
ATOM      6  C   UNL     1       0.666   1.252  -0.300  0.00  0.00    +0.000 A 
ATOM      7  C   UNL     1       2.266  -0.888   0.252  0.00  0.00    +0.000 A 
ATOM      8  C   UNL     1       2.757   0.402   0.132  0.00  0.00    +0.000 A 
ATOM      9  H   UNL     1       4.650  -0.063   0.905  0.00  0.00    +0.000 HD
ATOM     10  H   UNL     1       4.504   1.530   0.225  0.00  0.00    +0.000 HD
ENDROOT
BRANCH   4  13
ATOM     11  O   UNL     1      -1.814  -1.236  -0.821  0.00  0.00    +0.000 OA
ATOM     12  N   UNL     1      -2.172   0.913  -0.028  0.00  0.00    +0.000 N 
ATOM     13  C   UNL     1      -1.353  -0.166  -0.384  0.00  0.00    +0.000 C 
ATOM     14  H   UNL     1      -1.760   1.746   0.380  0.00  0.00    +0.000 HD
BRANCH  12  15
ATOM     15  C   UNL     1      -3.614   0.892  -0.131  0.00  0.00    +0.000 C 
ATOM     16  C   UNL     1      -4.242   0.163   1.039  0.00  0.00    +0.000 C 
ENDBRANCH  12  15
ENDBRANCH   4  13
TORSDOF 2
