REMARK  Name = 118599297
REMARK  11 active torsions:
REMARK  status: ('A' for Active; 'I' for Inactive)
REMARK    1  A    between atoms: N_2  and  C_6
REMARK    2  A    between atoms: N_3  and  C_13
REMARK    3  A    between atoms: N_3  and  C_14
REMARK    4  A    between atoms: C_5  and  C_6
REMARK    5  A    between atoms: C_5  and  C_8
REMARK    6  A    between atoms: C_5  and  C_9
REMARK    7  A    between atoms: C_6  and  C_7
REMARK    8  A    between atoms: C_10  and  C_11
REMARK    9  A    between atoms: C_12  and  C_13
REMARK   10  A    between atoms: C_12  and  C_15
REMARK   11  A    between atoms: C_15  and  C_17
REMARK                            x       y       z     vdW  Elec       q    Type
REMARK                         _______ _______ _______ _____ _____    ______ ____
ROOT
ATOM      1  N   UNL     1      -2.960  -0.960   0.473  0.00  0.00    +0.000 NA
ATOM      2  C   UNL     1      -1.594   0.914  -0.209  0.00  0.00    +0.000 A 
ATOM      3  C   UNL     1      -1.833  -0.443  -0.065  0.00  0.00    +0.000 A 
ATOM      4  C   UNL     1      -2.575   1.798   0.227  0.00  0.00    +0.000 A 
ATOM      5  C   UNL     1      -3.748   1.304   0.786  0.00  0.00    +0.000 A 
ATOM      6  C   UNL     1      -3.891  -0.071   0.886  0.00  0.00    +0.000 A 
ENDROOT
BRANCH   2   9
ATOM      7  O   UNL     1      -0.416   2.163  -1.807  0.00  0.00    +0.000 OA
ATOM      8  N   UNL     1       0.832   1.115  -0.157  0.00  0.00    +0.000 N 
ATOM      9  C   UNL     1      -0.345   1.452  -0.808  0.00  0.00    +0.000 C 
ATOM     10  H   UNL     1       0.786   0.488   0.641  0.00  0.00    +0.000 HD
BRANCH   8  11
ATOM     11  C   UNL     1       2.124   1.581  -0.602  0.00  0.00    +0.000 C 
ATOM     12  C   UNL     1       2.677   0.646  -1.676  0.00  0.00    +0.000 C 
BRANCH  11  13
ATOM     13  C   UNL     1       3.105   1.785   0.577  0.00  0.00    +0.000 C 
ATOM     14  C   UNL     1       3.489   0.447   1.219  0.00  0.00    +0.000 C 
ATOM     15  C   UNL     1       2.581   2.742   1.652  0.00  0.00    +0.000 C 
ENDBRANCH  11  13
ENDBRANCH   8  11
ENDBRANCH   2   9
BRANCH   3  16
ATOM     16  N   UNL     1      -0.838  -1.350  -0.510  0.00  0.00    +0.000 N 
ATOM     17  H   UNL     1      -0.189  -0.998  -1.206  0.00  0.00    +0.000 HD
BRANCH  16  18
ATOM     18  C   UNL     1      -0.986  -2.765  -0.407  0.00  0.00    +0.000 C 
BRANCH  18  19
ATOM     19  C   UNL     1       0.364  -3.462  -0.551  0.00  0.00    +0.000 C 
BRANCH  19  20
ATOM     20  C   UNL     1       1.352  -3.069   0.551  0.00  0.00    +0.000 C 
ATOM     21  C   UNL     1       2.663  -3.829   0.418  0.00  0.00    +0.000 C 
ENDBRANCH  19  20
ENDBRANCH  18  19
ENDBRANCH  16  18
ENDBRANCH   3  16
TORSDOF 7
