REMARK  Name = 118615818
REMARK  4 active torsions:
REMARK  status: ('A' for Active; 'I' for Inactive)
REMARK    1  A    between atoms: N_3  and  C_12
REMARK    2  A    between atoms: N_4  and  C_8
REMARK    3  A    between atoms: C_5  and  C_9
REMARK    4  A    between atoms: C_6  and  C_11
REMARK                            x       y       z     vdW  Elec       q    Type
REMARK                         _______ _______ _______ _____ _____    ______ ____
ROOT
ATOM      1  N   UNL     1      -1.749   1.484   0.302  0.00  0.00    +0.000 NA
ATOM      2  C   UNL     1       0.168   0.075  -0.124  0.00  0.00    +0.000 A 
ATOM      3  C   UNL     1      -2.034  -0.890  -0.054  0.00  0.00    +0.000 A 
ATOM      4  C   UNL     1      -0.661  -1.037  -0.219  0.00  0.00    +0.000 A 
ATOM      5  C   UNL     1      -0.420   1.302   0.135  0.00  0.00    +0.000 A 
ATOM      6  C   UNL     1      -2.523   0.381   0.203  0.00  0.00    +0.000 A 
ATOM      7  C   UNL     1      -2.947  -2.059  -0.149  0.00  0.00    +0.000 C 
ENDROOT
BRANCH   2  10
ATOM      8  O   UNL     1       2.205   0.528  -1.194  0.00  0.00    +0.000 OA
ATOM      9  N   UNL     1       2.257  -0.944   0.596  0.00  0.00    +0.000 N 
ATOM     10  C   UNL     1       1.605  -0.089  -0.298  0.00  0.00    +0.000 C 
ATOM     11  C   UNL     1       3.681  -1.192   0.568  0.00  0.00    +0.000 C 
ATOM     12  H   UNL     1       1.710  -1.431   1.301  0.00  0.00    +0.000 HD
ENDBRANCH   2  10
BRANCH   5  13
ATOM     13  N   UNL     1       0.419   2.441   0.234  0.00  0.00    +0.000 N 
ATOM     14  H   UNL     1       1.363   2.319   0.580  0.00  0.00    +0.000 HD
ATOM     15  H   UNL     1      -0.039   3.325   0.419  0.00  0.00    +0.000 HD
ENDBRANCH   5  13
TORSDOF 2
