REMARK  Name = 118705755
REMARK  6 active torsions:
REMARK  status: ('A' for Active; 'I' for Inactive)
REMARK    1  A    between atoms: N_2  and  C_6
REMARK    2  A    between atoms: N_2  and  C_9
REMARK    3  A    between atoms: N_3  and  C_10
REMARK    4  A    between atoms: C_5  and  C_7
REMARK    5  A    between atoms: C_9  and  C_13
REMARK    6  A    between atoms: C_10  and  C_14
REMARK                            x       y       z     vdW  Elec       q    Type
REMARK                         _______ _______ _______ _____ _____    ______ ____
ROOT
ATOM      1  N   UNL     1      -2.533   0.962   0.029  0.00  0.00    +0.000 NA
ATOM      2  C   UNL     1      -1.081  -0.971   0.031  0.00  0.00    +0.000 A 
ATOM      3  C   UNL     1      -1.307   0.395   0.084  0.00  0.00    +0.000 A 
ATOM      4  C   UNL     1      -2.184  -1.809  -0.086  0.00  0.00    +0.000 A 
ATOM      5  C   UNL     1      -3.461  -1.264  -0.146  0.00  0.00    +0.000 A 
ATOM      6  C   UNL     1      -3.581   0.116  -0.085  0.00  0.00    +0.000 A 
ENDROOT
BRANCH   2   9
ATOM      7  O   UNL     1       0.546  -2.355   0.999  0.00  0.00    +0.000 OA
ATOM      8  N   UNL     1       1.155  -1.183  -0.907  0.00  0.00    +0.000 N 
ATOM      9  C   UNL     1       0.253  -1.553   0.096  0.00  0.00    +0.000 C 
ATOM     10  H   UNL     1       0.854  -0.520  -1.617  0.00  0.00    +0.000 HD
BRANCH   8  11
ATOM     11  C   UNL     1       2.505  -1.692  -0.993  0.00  0.00    +0.000 C 
BRANCH  11  12
ATOM     12  C   UNL     1       3.411  -0.790  -0.218  0.00  0.00    +0.000 C 
ATOM     13  C   UNL     1       4.144  -1.187   0.828  0.00  0.00    +0.000 C 
ENDBRANCH  11  12
ENDBRANCH   8  11
ENDBRANCH   2   9
BRANCH   3  14
ATOM     14  N   UNL     1      -0.187   1.256   0.206  0.00  0.00    +0.000 N 
ATOM     15  H   UNL     1       0.654   0.834   0.589  0.00  0.00    +0.000 HD
BRANCH  14  16
ATOM     16  C   UNL     1      -0.311   2.675   0.269  0.00  0.00    +0.000 C 
BRANCH  16  17
ATOM     17  C   UNL     1       1.053   3.274   0.390  0.00  0.00    +0.000 C 
ATOM     18  C   UNL     1       1.577   4.126  -0.499  0.00  0.00    +0.000 C 
ENDBRANCH  16  17
ENDBRANCH  14  16
ENDBRANCH   3  14
TORSDOF 6
