REMARK  Name = 118705756
REMARK  12 active torsions:
REMARK  status: ('A' for Active; 'I' for Inactive)
REMARK    1  A    between atoms: N_2  and  C_9
REMARK    2  A    between atoms: N_2  and  C_15
REMARK    3  A    between atoms: N_3  and  C_10
REMARK    4  A    between atoms: C_5  and  C_7
REMARK    5  A    between atoms: C_5  and  C_11
REMARK    6  A    between atoms: C_5  and  C_12
REMARK    7  A    between atoms: C_6  and  C_8
REMARK    8  A    between atoms: C_6  and  C_13
REMARK    9  A    between atoms: C_6  and  C_14
REMARK   10  A    between atoms: C_7  and  C_9
REMARK   11  A    between atoms: C_8  and  C_10
REMARK   12  A    between atoms: C_16  and  C_17
REMARK                            x       y       z     vdW  Elec       q    Type
REMARK                         _______ _______ _______ _____ _____    ______ ____
ROOT
ATOM      1  N   UNL     1       2.492  -1.929   0.750  0.00  0.00    +0.000 NA
ATOM      2  C   UNL     1       1.553  -1.257   0.046  0.00  0.00    +0.000 A 
ATOM      3  C   UNL     1       0.340  -1.801  -0.344  0.00  0.00    +0.000 A 
ATOM      4  C   UNL     1       0.072  -3.118   0.011  0.00  0.00    +0.000 A 
ATOM      5  C   UNL     1       1.013  -3.842   0.735  0.00  0.00    +0.000 A 
ATOM      6  C   UNL     1       2.197  -3.207   1.078  0.00  0.00    +0.000 A 
ENDROOT
BRANCH   3   9
ATOM      7  O   UNL     1      -1.029  -1.459  -2.217  0.00  0.00    +0.000 OA
ATOM      8  N   UNL     1      -1.157   0.110  -0.515  0.00  0.00    +0.000 N 
ATOM      9  C   UNL     1      -0.651  -1.052  -1.106  0.00  0.00    +0.000 C 
ATOM     10  H   UNL     1      -0.815   0.385   0.401  0.00  0.00    +0.000 HD
BRANCH   8  11
ATOM     11  C   UNL     1      -2.160   0.947  -1.134  0.00  0.00    +0.000 C 
BRANCH  11  12
ATOM     12  C   UNL     1      -3.565   0.494  -0.737  0.00  0.00    +0.000 C 
BRANCH  12  13
ATOM     13  C   UNL     1      -3.858   0.522   0.777  0.00  0.00    +0.000 C 
ATOM     14  C   UNL     1      -3.696   1.949   1.309  0.00  0.00    +0.000 C 
ATOM     15  C   UNL     1      -5.258   0.004   1.111  0.00  0.00    +0.000 C 
ENDBRANCH  12  13
ENDBRANCH  11  12
ENDBRANCH   8  11
ENDBRANCH   3   9
BRANCH   2  16
ATOM     16  N   UNL     1       1.828   0.055  -0.306  0.00  0.00    +0.000 N 
ATOM     17  H   UNL     1       1.307   0.432  -1.091  0.00  0.00    +0.000 HD
BRANCH  16  18
ATOM     18  C   UNL     1       3.051   0.738   0.037  0.00  0.00    +0.000 C 
BRANCH  18  19
ATOM     19  C   UNL     1       3.042   2.170  -0.495  0.00  0.00    +0.000 C 
BRANCH  19  20
ATOM     20  C   UNL     1       1.895   3.057   0.030  0.00  0.00    +0.000 C 
ATOM     21  C   UNL     1       1.910   4.457  -0.585  0.00  0.00    +0.000 C 
ATOM     22  C   UNL     1       1.980   3.162   1.555  0.00  0.00    +0.000 C 
ENDBRANCH  19  20
ENDBRANCH  18  19
ENDBRANCH  16  18
ENDBRANCH   2  16
TORSDOF 8
