REMARK  Name = 118861700
REMARK  2 active torsions:
REMARK  status: ('A' for Active; 'I' for Inactive)
REMARK    1  A    between atoms: C_5  and  C_9
REMARK    2  A    between atoms: C_7  and  C_11
REMARK                            x       y       z     vdW  Elec       q    Type
REMARK                         _______ _______ _______ _____ _____    ______ ____
ROOT
ATOM      1  N   UNL     1       0.956  -1.598  -0.001  0.00  0.00    +0.000 NA
ATOM      2  N   UNL     1       3.183  -0.779  -0.006  0.00  0.00    +0.000 N 
ATOM      3  C   UNL     1       1.358   0.786   0.002  0.00  0.00    +0.000 A 
ATOM      4  C   UNL     1      -0.011   1.025   0.004  0.00  0.00    +0.000 A 
ATOM      5  C   UNL     1      -0.898  -0.046   0.004  0.00  0.00    +0.000 A 
ATOM      6  C   UNL     1       1.787  -0.531  -0.001  0.00  0.00    +0.000 A 
ATOM      7  C   UNL     1       2.306   1.937   0.003  0.00  0.00    +0.000 C 
ATOM      8  C   UNL     1      -0.368  -1.327   0.001  0.00  0.00    +0.000 A 
ATOM      9  H   UNL     1       3.796  -0.121   0.458  0.00  0.00    +0.000 HD
ATOM     10  H   UNL     1       3.466  -1.752  -0.018  0.00  0.00    +0.000 HD
ENDROOT
BRANCH   5  13
ATOM     11  O   UNL     1      -2.819   1.316  -0.012  0.00  0.00    +0.000 OA
ATOM     12  N   UNL     1      -3.160  -0.952   0.003  0.00  0.00    +0.000 N 
ATOM     13  C   UNL     1      -2.334   0.170   0.004  0.00  0.00    +0.000 C 
ATOM     14  H   UNL     1      -2.846  -1.914   0.011  0.00  0.00    +0.000 HD
ATOM     15  H   UNL     1      -4.168  -0.830  -0.004  0.00  0.00    +0.000 HD
ENDBRANCH   5  13
TORSDOF 1
