REMARK  Name = 118999822
REMARK  2 active torsions:
REMARK  status: ('A' for Active; 'I' for Inactive)
REMARK    1  A    between atoms: C_7  and  C_10
REMARK    2  A    between atoms: C_8  and  C_13
REMARK                            x       y       z     vdW  Elec       q    Type
REMARK                         _______ _______ _______ _____ _____    ______ ____
ROOT
ATOM      1  N   UNL     1       1.927   1.498   0.138  0.00  0.00    +0.000 NA
ATOM      2  N   UNL     1       3.686  -0.106   0.057  0.00  0.00    +0.000 N 
ATOM      3  C   UNL     1       0.058  -0.564  -0.121  0.00  0.00    +0.000 A 
ATOM      4  C   UNL     1      -0.369   0.755  -0.016  0.00  0.00    +0.000 A 
ATOM      5  C   UNL     1       1.418  -0.854  -0.096  0.00  0.00    +0.000 A 
ATOM      6  C   UNL     1       2.303   0.204   0.034  0.00  0.00    +0.000 A 
ATOM      7  C   UNL     1       0.597   1.741   0.111  0.00  0.00    +0.000 A 
ATOM      8  H   UNL     1       3.970  -1.013   0.406  0.00  0.00    +0.000 HD
ATOM      9  H   UNL     1       4.329   0.669   0.158  0.00  0.00    +0.000 HD
ENDROOT
BRANCH   4  12
ATOM     10  O   UNL     1      -2.440   1.196   1.015  0.00  0.00    +0.000 OA
ATOM     11  N   UNL     1      -2.360   1.391  -1.268  0.00  0.00    +0.000 N 
ATOM     12  C   UNL     1      -1.778   1.117  -0.034  0.00  0.00    +0.000 C 
ATOM     13  H   UNL     1      -1.835   1.337  -2.135  0.00  0.00    +0.000 HD
ATOM     14  H   UNL     1      -3.337   1.654  -1.337  0.00  0.00    +0.000 HD
ENDBRANCH   4  12
BRANCH   3  17
ATOM     15  F   UNL     1      -0.332  -2.913  -0.349  0.00  0.00    +0.000 F 
ATOM     16  F   UNL     1      -1.789  -1.781   0.789  0.00  0.00    +0.000 F 
ATOM     17  C   UNL     1      -0.921  -1.684  -0.260  0.00  0.00    +0.000 C 
ENDBRANCH   3  17
TORSDOF 2
