REMARK  Name = 118992597
REMARK  3 active torsions:
REMARK  status: ('A' for Active; 'I' for Inactive)
REMARK    1  A    between atoms: N_5  and  C_10
REMARK    2  A    between atoms: C_7  and  C_12
REMARK    3  A    between atoms: C_8  and  C_13
REMARK                            x       y       z     vdW  Elec       q    Type
REMARK                         _______ _______ _______ _____ _____    ______ ____
ROOT
ATOM      1  N   UNL     1      -0.003   2.052   0.036  0.00  0.00    +0.000 NA
ATOM      2  C   UNL     1      -1.376   0.076  -0.193  0.00  0.00    +0.000 A 
ATOM      3  C   UNL     1       1.016  -0.139  -0.055  0.00  0.00    +0.000 A 
ATOM      4  C   UNL     1      -0.239  -0.725  -0.177  0.00  0.00    +0.000 A 
ATOM      5  C   UNL     1       1.079   1.242   0.047  0.00  0.00    +0.000 A 
ATOM      6  C   UNL     1      -1.205   1.446  -0.084  0.00  0.00    +0.000 A 
ENDROOT
BRANCH   3   9
ATOM      7  O   UNL     1       2.803  -1.272  -1.088  0.00  0.00    +0.000 OA
ATOM      8  N   UNL     1       2.648  -1.448   1.193  0.00  0.00    +0.000 N 
ATOM      9  C   UNL     1       2.201  -0.985  -0.040  0.00  0.00    +0.000 C 
ATOM     10  H   UNL     1       2.173  -1.218   2.060  0.00  0.00    +0.000 HD
ATOM     11  H   UNL     1       3.471  -2.036   1.262  0.00  0.00    +0.000 HD
ENDBRANCH   3   9
BRANCH   2  14
ATOM     12  F   UNL     1      -2.834  -1.776   0.212  0.00  0.00    +0.000 F 
ATOM     13  F   UNL     1      -3.713   0.204   0.298  0.00  0.00    +0.000 F 
ATOM     14  C   UNL     1      -2.732  -0.521  -0.322  0.00  0.00    +0.000 C 
ENDBRANCH   2  14
BRANCH   5  15
ATOM     15  N   UNL     1       2.355   1.847   0.172  0.00  0.00    +0.000 N 
ATOM     16  H   UNL     1       3.091   1.333   0.641  0.00  0.00    +0.000 HD
ATOM     17  H   UNL     1       2.371   2.857   0.241  0.00  0.00    +0.000 HD
ENDBRANCH   5  15
TORSDOF 3
