REMARK  Name = 119004084
REMARK  2 active torsions:
REMARK  status: ('A' for Active; 'I' for Inactive)
REMARK    1  A    between atoms: C_7  and  C_11
REMARK    2  A    between atoms: C_8  and  C_12
REMARK                            x       y       z     vdW  Elec       q    Type
REMARK                         _______ _______ _______ _____ _____    ______ ____
ROOT
ATOM      1  N   UNL     1      -1.936  -1.641  -0.112  0.00  0.00    +0.000 NA
ATOM      2  N   UNL     1      -2.842   0.547  -0.148  0.00  0.00    +0.000 N 
ATOM      3  C   UNL     1       0.641  -0.581   0.114  0.00  0.00    +0.000 A 
ATOM      4  C   UNL     1      -0.459   0.267   0.039  0.00  0.00    +0.000 A 
ATOM      5  C   UNL     1      -1.715  -0.308  -0.072  0.00  0.00    +0.000 A 
ATOM      6  C   UNL     1       0.454  -1.958   0.076  0.00  0.00    +0.000 A 
ATOM      7  C   UNL     1      -0.843  -2.434  -0.037  0.00  0.00    +0.000 A 
ATOM      8  H   UNL     1      -2.808   1.438   0.331  0.00  0.00    +0.000 HD
ATOM      9  H   UNL     1      -3.745   0.096  -0.234  0.00  0.00    +0.000 HD
ENDROOT
BRANCH   4  12
ATOM     10  O   UNL     1      -0.133   2.371  -0.968  0.00  0.00    +0.000 OA
ATOM     11  N   UNL     1      -0.299   2.334   1.318  0.00  0.00    +0.000 N 
ATOM     12  C   UNL     1      -0.280   1.714   0.075  0.00  0.00    +0.000 C 
ATOM     13  H   UNL     1      -0.425   1.812   2.179  0.00  0.00    +0.000 HD
ATOM     14  H   UNL     1      -0.185   3.339   1.403  0.00  0.00    +0.000 HD
ENDBRANCH   4  12
BRANCH   3  17
ATOM     15  F   UNL     1       2.985  -1.018   0.293  0.00  0.00    +0.000 F 
ATOM     16  F   UNL     1       2.397   0.752  -0.812  0.00  0.00    +0.000 F 
ATOM     17  C   UNL     1       2.030  -0.044   0.234  0.00  0.00    +0.000 C 
ENDBRANCH   3  17
TORSDOF 2
