REMARK  Name = 119022333
REMARK  3 active torsions:
REMARK  status: ('A' for Active; 'I' for Inactive)
REMARK    1  A    between atoms: N_5  and  C_10
REMARK    2  A    between atoms: C_7  and  C_11
REMARK    3  A    between atoms: C_9  and  C_13
REMARK                            x       y       z     vdW  Elec       q    Type
REMARK                         _______ _______ _______ _____ _____    ______ ____
ROOT
ATOM      1  N   UNL     1       0.019   2.077  -0.004  0.00  0.00    +0.000 NA
ATOM      2  C   UNL     1       1.050  -0.105  -0.149  0.00  0.00    +0.000 A 
ATOM      3  C   UNL     1      -0.202  -0.707  -0.103  0.00  0.00    +0.000 A 
ATOM      4  C   UNL     1      -1.343   0.080  -0.007  0.00  0.00    +0.000 A 
ATOM      5  C   UNL     1       1.106   1.279  -0.097  0.00  0.00    +0.000 A 
ATOM      6  C   UNL     1      -1.180   1.456   0.038  0.00  0.00    +0.000 A 
ENDROOT
BRANCH   4   9
ATOM      7  O   UNL     1      -2.821  -1.754   0.024  0.00  0.00    +0.000 OA
ATOM      8  N   UNL     1      -3.762   0.334   0.141  0.00  0.00    +0.000 N 
ATOM      9  C   UNL     1      -2.665  -0.519   0.046  0.00  0.00    +0.000 C 
ATOM     10  H   UNL     1      -3.721   1.345   0.169  0.00  0.00    +0.000 HD
ATOM     11  H   UNL     1      -4.697  -0.059   0.187  0.00  0.00    +0.000 HD
ENDBRANCH   4   9
BRANCH   2  14
ATOM     12  F   UNL     1       3.138  -0.794   0.793  0.00  0.00    +0.000 F 
ATOM     13  F   UNL     1       2.006  -2.293  -0.290  0.00  0.00    +0.000 F 
ATOM     14  C   UNL     1       2.272  -0.953  -0.252  0.00  0.00    +0.000 C 
ENDBRANCH   2  14
BRANCH   5  15
ATOM     15  N   UNL     1       2.381   1.898  -0.141  0.00  0.00    +0.000 N 
ATOM     16  H   UNL     1       3.172   1.406   0.257  0.00  0.00    +0.000 HD
ATOM     17  H   UNL     1       2.393   2.910  -0.105  0.00  0.00    +0.000 HD
ENDBRANCH   5  15
TORSDOF 3
