REMARK  Name = 121015141
REMARK  1 active torsions:
REMARK  status: ('A' for Active; 'I' for Inactive)
REMARK    1  A    between atoms: C_9  and  C_14
REMARK                            x       y       z     vdW  Elec       q    Type
REMARK                         _______ _______ _______ _____ _____    ______ ____
ROOT
ATOM      1  O   UNL     1       1.755  -2.828  -0.001  0.00  0.00    +0.000 OA
ATOM      2  N   UNL     1      -0.502   0.512  -0.001  0.00  0.00    +0.000 N 
ATOM      3  N   UNL     1      -0.329  -1.891  -0.000  0.00  0.00    +0.000 NA
ATOM      4  N   UNL     1       1.498   1.895  -0.000  0.00  0.00    +0.000 NA
ATOM      5  C   UNL     1       0.916   0.666  -0.001  0.00  0.00    +0.000 A 
ATOM      6  C   UNL     1      -1.026  -0.787  -0.000  0.00  0.00    +0.000 A 
ATOM      7  C   UNL     1       1.698  -0.494  -0.000  0.00  0.00    +0.000 A 
ATOM      8  C   UNL     1      -1.366   1.598  -0.002  0.00  0.00    +0.000 A 
ATOM      9  C   UNL     1      -3.295   0.138   0.001  0.00  0.00    +0.000 A 
ATOM     10  C   UNL     1      -2.523  -0.965   0.001  0.00  0.00    +0.000 A 
ATOM     11  C   UNL     1      -2.701   1.466  -0.001  0.00  0.00    +0.000 A 
ATOM     12  C   UNL     1       1.046  -1.826  -0.001  0.00  0.00    +0.000 A 
ATOM     13  C   UNL     1       3.092  -0.389   0.001  0.00  0.00    +0.000 A 
ATOM     14  C   UNL     1      -4.792   0.071   0.002  0.00  0.00    +0.000 C 
ATOM     15  C   UNL     1       3.682   0.866   0.002  0.00  0.00    +0.000 A 
ATOM     16  C   UNL     1       2.848   1.967   0.001  0.00  0.00    +0.000 A 
ENDROOT
TORSDOF 0
