REMARK  Name = 121228649
REMARK  1 active torsions:
REMARK  status: ('A' for Active; 'I' for Inactive)
REMARK    1  A    between atoms: C_5  and  C_10
REMARK                            x       y       z     vdW  Elec       q    Type
REMARK                         _______ _______ _______ _____ _____    ______ ____
ROOT
ATOM      1  F   UNL     1      -0.740  -2.291  -0.000  0.00  0.00    +0.000 F 
ATOM      2  N   UNL     1       1.120   1.402   0.000  0.00  0.00    +0.000 NA
ATOM      3  N   UNL     1       3.238   0.311  -0.000  0.00  0.00    +0.000 N 
ATOM      4  C   UNL     1      -0.901   0.075   0.001  0.00  0.00    +0.000 A 
ATOM      5  C   UNL     1      -0.144  -1.091   0.000  0.00  0.00    +0.000 A 
ATOM      6  C   UNL     1       1.244  -1.012   0.000  0.00  0.00    +0.000 A 
ATOM      7  C   UNL     1       1.823   0.247   0.000  0.00  0.00    +0.000 A 
ATOM      8  C   UNL     1      -0.227   1.286   0.000  0.00  0.00    +0.000 A 
ATOM      9  H   UNL     1       3.755  -0.453   0.418  0.00  0.00    +0.000 HD
ATOM     10  H   UNL     1       3.656   1.233   0.006  0.00  0.00    +0.000 HD
ENDROOT
BRANCH   4  12
ATOM     11  O   UNL     1      -3.060   1.043  -0.000  0.00  0.00    +0.000 OA
ATOM     12  C   UNL     1      -2.353   0.030  -0.000  0.00  0.00    +0.000 C 
ENDBRANCH   4  12
TORSDOF 1
