REMARK  Name = 121260737
REMARK  4 active torsions:
REMARK  status: ('A' for Active; 'I' for Inactive)
REMARK    1  A    between atoms: S_1  and  N_5
REMARK    2  A    between atoms: S_1  and  C_10
REMARK    3  A    between atoms: N_7  and  C_11
REMARK    4  A    between atoms: C_8  and  C_9
REMARK                            x       y       z     vdW  Elec       q    Type
REMARK                         _______ _______ _______ _____ _____    ______ ____
ROOT
ATOM      1  N   UNL     1       3.352   0.485  -0.272  0.00  0.00    +0.000 NA
ATOM      2  C   UNL     1       1.030  -0.055   0.128  0.00  0.00    +0.000 A 
ATOM      3  C   UNL     1       2.056   0.841  -0.127  0.00  0.00    +0.000 A 
ATOM      4  C   UNL     1       1.354  -1.402   0.241  0.00  0.00    +0.000 A 
ATOM      5  C   UNL     1       2.677  -1.807   0.098  0.00  0.00    +0.000 A 
ATOM      6  C   UNL     1       3.630  -0.833  -0.156  0.00  0.00    +0.000 A 
ENDROOT
BRANCH   2   9
ATOM      7  O   UNL     1      -0.666   1.472   0.728  0.00  0.00    +0.000 OA
ATOM      8  N   UNL     1      -1.365  -0.597  -0.123  0.00  0.00    +0.000 N 
ATOM      9  C   UNL     1      -0.386   0.367   0.280  0.00  0.00    +0.000 C 
ATOM     10  H   UNL     1      -1.058  -1.401  -0.686  0.00  0.00    +0.000 HD
BRANCH   8  11
ATOM     11  S   UNL     1      -3.058  -0.355  -0.049  0.00  0.00    +0.000 S 
ATOM     12  O   UNL     1      -3.748  -1.463  -0.680  0.00  0.00    +0.000 OA
ATOM     13  O   UNL     1      -3.407   0.074   1.292  0.00  0.00    +0.000 OA
ATOM     14  C   UNL     1      -3.200   1.058  -1.115  0.00  0.00    +0.000 C 
ENDBRANCH   8  11
ENDBRANCH   2   9
BRANCH   3  15
ATOM     15  N   UNL     1       1.732   2.216  -0.246  0.00  0.00    +0.000 N 
ATOM     16  H   UNL     1       0.823   2.469  -0.614  0.00  0.00    +0.000 HD
ATOM     17  H   UNL     1       2.503   2.846  -0.428  0.00  0.00    +0.000 HD
ENDBRANCH   3  15
TORSDOF 3
