REMARK  Name = 121380162
REMARK  2 active torsions:
REMARK  status: ('A' for Active; 'I' for Inactive)
REMARK    1  A    between atoms: N_3  and  C_7
REMARK    2  A    between atoms: C_6  and  C_11
REMARK                            x       y       z     vdW  Elec       q    Type
REMARK                         _______ _______ _______ _____ _____    ______ ____
ROOT
ATOM      1  N   UNL     1      -0.125   1.761   0.332  0.00  0.00    +0.000 NA
ATOM      2  C   UNL     1      -0.588  -0.601   0.102  0.00  0.00    +0.000 A 
ATOM      3  C   UNL     1       0.242   0.463   0.418  0.00  0.00    +0.000 A 
ATOM      4  C   UNL     1      -1.878  -0.314  -0.331  0.00  0.00    +0.000 A 
ATOM      5  C   UNL     1      -2.292   1.010  -0.433  0.00  0.00    +0.000 A 
ATOM      6  C   UNL     1      -1.386   2.001  -0.093  0.00  0.00    +0.000 A 
ENDROOT
BRANCH   3   7
ATOM      7  N   UNL     1       1.552   0.244   0.862  0.00  0.00    +0.000 NA
ATOM      8  N   UNL     1       2.379   0.201  -0.074  0.00  0.00    +0.000 NA
ATOM      9  N   UNL     1       3.128   0.162  -0.935  0.00  0.00    +0.000 NA
ENDBRANCH   3   7
BRANCH   2  11
ATOM     10  O   UNL     1      -0.879  -2.943  -0.062  0.00  0.00    +0.000 OA
ATOM     11  C   UNL     1      -0.152  -1.985   0.213  0.00  0.00    +0.000 C 
ENDBRANCH   2  11
TORSDOF 2
