REMARK  Name = 121593660
REMARK  5 active torsions:
REMARK  status: ('A' for Active; 'I' for Inactive)
REMARK    1  A    between atoms: N_2  and  C_6
REMARK    2  A    between atoms: N_3  and  C_7
REMARK    3  A    between atoms: N_3  and  C_11
REMARK    4  A    between atoms: C_6  and  C_7
REMARK    5  A    between atoms: C_8  and  C_9
REMARK                            x       y       z     vdW  Elec       q    Type
REMARK                         _______ _______ _______ _____ _____    ______ ____
ROOT
ATOM      1  O   UNL     1      -0.778  -1.621  -0.896  0.00  0.00    +0.000 OA
ATOM      2  N   UNL     1      -1.241   0.626  -0.553  0.00  0.00    +0.000 N 
ATOM      3  C   UNL     1      -0.409  -0.486  -0.606  0.00  0.00    +0.000 C 
ATOM      4  H   UNL     1      -0.881   1.524  -0.245  0.00  0.00    +0.000 HD
ENDROOT
BRANCH   3   7
ATOM      5  N   UNL     1       2.893   1.267  -0.145  0.00  0.00    +0.000 NA
ATOM      6  N   UNL     1       4.985   0.485   0.686  0.00  0.00    +0.000 N 
ATOM      7  C   UNL     1       1.017  -0.253  -0.258  0.00  0.00    +0.000 A 
ATOM      8  C   UNL     1       1.804  -1.275   0.262  0.00  0.00    +0.000 A 
ATOM      9  C   UNL     1       1.604   0.988  -0.441  0.00  0.00    +0.000 A 
ATOM     10  C   UNL     1       3.135  -1.028   0.579  0.00  0.00    +0.000 A 
ATOM     11  C   UNL     1       3.627   0.249   0.358  0.00  0.00    +0.000 A 
ATOM     12  H   UNL     1       5.408  -0.070   1.419  0.00  0.00    +0.000 HD
ATOM     13  H   UNL     1       5.339   1.421   0.529  0.00  0.00    +0.000 HD
ENDBRANCH   3   7
BRANCH   2  14
ATOM     14  C   UNL     1      -2.648   0.557  -0.839  0.00  0.00    +0.000 C 
BRANCH  14  15
ATOM     15  C   UNL     1      -3.452   0.268   0.420  0.00  0.00    +0.000 C 
BRANCH  15  16
ATOM     16  N   UNL     1      -4.876   0.231   0.114  0.00  0.00    +0.000 NA
ATOM     17  C   UNL     1      -5.661  -0.009   1.318  0.00  0.00    +0.000 C 
ATOM     18  H   UNL     1      -5.062  -0.508  -0.564  0.00  0.00    +0.000 HD
ENDBRANCH  15  16
ENDBRANCH  14  15
ENDBRANCH   2  14
TORSDOF 4
