REMARK  Name = 12254382
REMARK  2 active torsions:
REMARK  status: ('A' for Active; 'I' for Inactive)
REMARK    1  A    between atoms: N_2  and  C_9
REMARK    2  A    between atoms: C_10  and  C_12
REMARK                            x       y       z     vdW  Elec       q    Type
REMARK                         _______ _______ _______ _____ _____    ______ ____
ROOT
ATOM      1  N   UNL     1      -0.947   1.878   0.103  0.00  0.00    +0.000 NA
ATOM      2  C   UNL     1      -0.332   0.641   0.043  0.00  0.00    +0.000 A 
ATOM      3  C   UNL     1      -1.126  -0.530  -0.015  0.00  0.00    +0.000 A 
ATOM      4  C   UNL     1      -2.513  -0.434  -0.012  0.00  0.00    +0.000 A 
ATOM      5  C   UNL     1      -2.298   1.931   0.104  0.00  0.00    +0.000 A 
ATOM      6  C   UNL     1      -3.118   0.816   0.048  0.00  0.00    +0.000 A 
ENDROOT
BRANCH   3   9
ATOM      7  O   UNL     1      -0.241  -2.486   0.953  0.00  0.00    +0.000 OA
ATOM      8  N   UNL     1      -0.224  -2.367  -1.337  0.00  0.00    +0.000 N 
ATOM      9  C   UNL     1      -0.502  -1.844  -0.079  0.00  0.00    +0.000 C 
ATOM     10  H   UNL     1      -0.435  -1.859  -2.191  0.00  0.00    +0.000 HD
ATOM     11  H   UNL     1       0.205  -3.280  -1.440  0.00  0.00    +0.000 HD
ENDBRANCH   3   9
BRANCH   2  12
ATOM     12  N   UNL     1       1.044   0.554   0.040  0.00  0.00    +0.000 N 
ATOM     13  C   UNL     1       3.259   0.296   0.787  0.00  0.00    +0.000 C 
ATOM     14  C   UNL     1       3.272   0.537  -0.712  0.00  0.00    +0.000 C 
ATOM     15  C   UNL     1       1.823  -0.151   1.054  0.00  0.00    +0.000 C 
ATOM     16  C   UNL     1       1.902   1.159  -0.976  0.00  0.00    +0.000 C 
ENDBRANCH   2  12
TORSDOF 2
