REMARK  Name = 122696815
REMARK  3 active torsions:
REMARK  status: ('A' for Active; 'I' for Inactive)
REMARK    1  A    between atoms: N_2  and  C_5
REMARK    2  A    between atoms: C_5  and  C_7
REMARK    3  A    between atoms: C_5  and  C_8
REMARK                            x       y       z     vdW  Elec       q    Type
REMARK                         _______ _______ _______ _____ _____    ______ ____
ROOT
ATOM      1  O   UNL     1      -2.160   2.406  -0.001  0.00  0.00    +0.000 OA
ATOM      2  N   UNL     1       1.163   0.146   0.000  0.00  0.00    +0.000 N 
ATOM      3  N   UNL     1      -0.147  -1.887   0.001  0.00  0.00    +0.000 NA
ATOM      4  N   UNL     1       0.128   2.312  -0.001  0.00  0.00    +0.000 NA
ATOM      5  C   UNL     1      -0.075  -0.530   0.001  0.00  0.00    +0.000 A 
ATOM      6  C   UNL     1      -1.238   0.253   0.000  0.00  0.00    +0.000 A 
ATOM      7  C   UNL     1       1.151   1.518  -0.000  0.00  0.00    +0.000 A 
ATOM      8  C   UNL     1      -1.130   1.740  -0.000  0.00  0.00    +0.000 A 
ATOM      9  C   UNL     1      -2.489  -0.368  -0.001  0.00  0.00    +0.000 A 
ATOM     10  C   UNL     1      -2.560  -1.754  -0.001  0.00  0.00    +0.000 A 
ATOM     11  C   UNL     1      -1.372  -2.461   0.000  0.00  0.00    +0.000 A 
ENDROOT
BRANCH   2  12
ATOM     12  C   UNL     1       2.373  -0.657  -0.000  0.00  0.00    +0.000 C 
ATOM     13  C   UNL     1       3.176  -0.355   1.258  0.00  0.00    +0.000 C 
ATOM     14  C   UNL     1       3.180  -0.361  -1.258  0.00  0.00    +0.000 C 
ENDBRANCH   2  12
TORSDOF 1
