REMARK  Name = 12267033
REMARK  5 active torsions:
REMARK  status: ('A' for Active; 'I' for Inactive)
REMARK    1  A    between atoms: N_2  and  C_5
REMARK    2  A    between atoms: N_4  and  C_10
REMARK    3  A    between atoms: C_5  and  C_6
REMARK    4  A    between atoms: C_6  and  C_9
REMARK    5  A    between atoms: C_7  and  C_8
REMARK                            x       y       z     vdW  Elec       q    Type
REMARK                         _______ _______ _______ _____ _____    ______ ____
ROOT
ATOM      1  N   UNL     1      -2.594   1.245  -0.068  0.00  0.00    +0.000 NA
ATOM      2  C   UNL     1      -0.827  -0.354   0.144  0.00  0.00    +0.000 A 
ATOM      3  C   UNL     1      -1.330   0.913   0.278  0.00  0.00    +0.000 A 
ATOM      4  C   UNL     1      -1.620  -1.359  -0.362  0.00  0.00    +0.000 A 
ATOM      5  C   UNL     1      -2.926  -1.057  -0.729  0.00  0.00    +0.000 A 
ATOM      6  C   UNL     1      -3.361   0.248  -0.563  0.00  0.00    +0.000 A 
ENDROOT
BRANCH   2   9
ATOM      7  O   UNL     1       0.830  -1.826   0.910  0.00  0.00    +0.000 OA
ATOM      8  N   UNL     1       1.498   0.340   0.417  0.00  0.00    +0.000 N 
ATOM      9  C   UNL     1       0.568  -0.687   0.534  0.00  0.00    +0.000 C 
ATOM     10  H   UNL     1       1.227   1.228   0.007  0.00  0.00    +0.000 HD
BRANCH   8  11
ATOM     11  C   UNL     1       2.889   0.167   0.731  0.00  0.00    +0.000 C 
BRANCH  11  12
ATOM     12  C   UNL     1       3.705  -0.285  -0.474  0.00  0.00    +0.000 C 
ATOM     13  C   UNL     1       3.668   0.717  -1.619  0.00  0.00    +0.000 C 
ENDBRANCH  11  12
ENDBRANCH   8  11
ENDBRANCH   2   9
BRANCH   3  14
ATOM     14  N   UNL     1      -0.499   1.937   0.800  0.00  0.00    +0.000 N 
ATOM     15  H   UNL     1      -0.917   2.860   0.842  0.00  0.00    +0.000 HD
ATOM     16  H   UNL     1       0.116   1.691   1.568  0.00  0.00    +0.000 HD
ENDBRANCH   3  14
TORSDOF 4
