REMARK  Name = 12267034
REMARK  6 active torsions:
REMARK  status: ('A' for Active; 'I' for Inactive)
REMARK    1  A    between atoms: N_2  and  C_6
REMARK    2  A    between atoms: N_4  and  C_11
REMARK    3  A    between atoms: C_5  and  C_6
REMARK    4  A    between atoms: C_5  and  C_7
REMARK    5  A    between atoms: C_7  and  C_8
REMARK    6  A    between atoms: C_9  and  C_10
REMARK                            x       y       z     vdW  Elec       q    Type
REMARK                         _______ _______ _______ _____ _____    ______ ____
ROOT
ATOM      1  N   UNL     1       3.486   0.119   0.196  0.00  0.00    +0.000 NA
ATOM      2  C   UNL     1       1.110  -0.034  -0.031  0.00  0.00    +0.000 A 
ATOM      3  C   UNL     1       2.342  -0.600   0.167  0.00  0.00    +0.000 A 
ATOM      4  C   UNL     1       0.998   1.326  -0.211  0.00  0.00    +0.000 A 
ATOM      5  C   UNL     1       2.154   2.099  -0.188  0.00  0.00    +0.000 A 
ATOM      6  C   UNL     1       3.362   1.454   0.018  0.00  0.00    +0.000 A 
ENDROOT
BRANCH   2   9
ATOM      7  O   UNL     1      -0.192  -1.872   0.622  0.00  0.00    +0.000 OA
ATOM      8  N   UNL     1      -1.163  -0.372  -0.857  0.00  0.00    +0.000 N 
ATOM      9  C   UNL     1      -0.131  -0.851  -0.059  0.00  0.00    +0.000 C 
ATOM     10  H   UNL     1      -1.027   0.452  -1.434  0.00  0.00    +0.000 HD
BRANCH   8  11
ATOM     11  C   UNL     1      -2.431  -1.037  -0.969  0.00  0.00    +0.000 C 
BRANCH  11  12
ATOM     12  C   UNL     1      -3.435  -0.552   0.072  0.00  0.00    +0.000 C 
BRANCH  12  13
ATOM     13  C   UNL     1      -3.746   0.940  -0.060  0.00  0.00    +0.000 C 
ATOM     14  C   UNL     1      -4.793   1.381   0.950  0.00  0.00    +0.000 C 
ENDBRANCH  12  13
ENDBRANCH  11  12
ENDBRANCH   8  11
ENDBRANCH   2   9
BRANCH   3  15
ATOM     15  N   UNL     1       2.439  -2.002   0.350  0.00  0.00    +0.000 N 
ATOM     16  H   UNL     1       1.678  -2.486   0.808  0.00  0.00    +0.000 HD
ATOM     17  H   UNL     1       3.372  -2.373   0.482  0.00  0.00    +0.000 HD
ENDBRANCH   3  15
TORSDOF 5
