REMARK  Name = 123260746
REMARK  3 active torsions:
REMARK  status: ('A' for Active; 'I' for Inactive)
REMARK    1  A    between atoms: C_7  and  C_9
REMARK    2  A    between atoms: C_8  and  C_13
REMARK    3  A    between atoms: C_9  and  C_14
REMARK                            x       y       z     vdW  Elec       q    Type
REMARK                         _______ _______ _______ _____ _____    ______ ____
ROOT
ATOM      1  N   UNL     1      -2.630  -0.961  -0.273  0.00  0.00    +0.000 NA
ATOM      2  N   UNL     1      -2.679   1.378  -0.644  0.00  0.00    +0.000 N 
ATOM      3  C   UNL     1       0.051  -0.791   0.503  0.00  0.00    +0.000 A 
ATOM      4  C   UNL     1      -0.640   0.354   0.121  0.00  0.00    +0.000 A 
ATOM      5  C   UNL     1      -0.598  -2.021   0.497  0.00  0.00    +0.000 A 
ATOM      6  C   UNL     1      -1.966   0.216  -0.254  0.00  0.00    +0.000 A 
ATOM      7  C   UNL     1      -1.926  -2.053   0.105  0.00  0.00    +0.000 A 
ATOM      8  H   UNL     1      -2.432   2.264  -0.220  0.00  0.00    +0.000 HD
ATOM      9  H   UNL     1      -3.645   1.244  -0.918  0.00  0.00    +0.000 HD
ENDROOT
BRANCH   4  12
ATOM     10  O   UNL     1       0.605   2.077  -0.893  0.00  0.00    +0.000 OA
ATOM     11  N   UNL     1      -0.027   2.404   1.286  0.00  0.00    +0.000 N 
ATOM     12  C   UNL     1       0.026   1.652   0.119  0.00  0.00    +0.000 C 
ATOM     13  H   UNL     1      -0.502   2.073   2.120  0.00  0.00    +0.000 HD
ATOM     14  H   UNL     1       0.414   3.317   1.340  0.00  0.00    +0.000 HD
ENDBRANCH   4  12
BRANCH   3  15
ATOM     15  C   UNL     1       1.483  -0.733   0.921  0.00  0.00    +0.000 C 
BRANCH  15  18
ATOM     16  O   UNL     1       2.221  -0.981  -1.377  0.00  0.00    +0.000 OA
ATOM     17  N   UNL     1       3.625   0.044   0.126  0.00  0.00    +0.000 N 
ATOM     18  C   UNL     1       2.454  -0.586  -0.238  0.00  0.00    +0.000 C 
ATOM     19  H   UNL     1       3.803   0.360   1.074  0.00  0.00    +0.000 HD
ATOM     20  H   UNL     1       4.360   0.209  -0.553  0.00  0.00    +0.000 HD
ENDBRANCH  15  18
ENDBRANCH   3  15
TORSDOF 3
