REMARK  Name = 123302989
REMARK  9 active torsions:
REMARK  status: ('A' for Active; 'I' for Inactive)
REMARK    1  A    between atoms: N_2  and  C_8
REMARK    2  A    between atoms: N_3  and  C_9
REMARK    3  A    between atoms: N_4  and  C_12
REMARK    4  A    between atoms: N_6  and  C_17
REMARK    5  A    between atoms: C_7  and  C_8
REMARK    6  A    between atoms: C_7  and  C_9
REMARK    7  A    between atoms: C_10  and  C_11
REMARK    8  A    between atoms: C_12  and  C_14
REMARK    9  A    between atoms: C_12  and  C_15
REMARK                            x       y       z     vdW  Elec       q    Type
REMARK                         _______ _______ _______ _____ _____    ______ ____
ROOT
ATOM      1  N   UNL     1      -1.562   0.123   0.740  0.00  0.00    +0.000 NA
ATOM      2  C   UNL     1       0.688   0.712   0.080  0.00  0.00    +0.000 A 
ATOM      3  C   UNL     1       0.304   0.710  -1.257  0.00  0.00    +0.000 A 
ATOM      4  C   UNL     1      -0.275   0.415   1.031  0.00  0.00    +0.000 A 
ATOM      5  C   UNL     1      -1.898   0.130  -0.570  0.00  0.00    +0.000 A 
ATOM      6  C   UNL     1      -1.011   0.414  -1.596  0.00  0.00    +0.000 A 
ENDROOT
BRANCH   2   9
ATOM      7  O   UNL     1       2.304   1.484   1.593  0.00  0.00    +0.000 OA
ATOM      8  N   UNL     1       3.066   0.741  -0.469  0.00  0.00    +0.000 N 
ATOM      9  C   UNL     1       2.085   1.024   0.475  0.00  0.00    +0.000 C 
ATOM     10  H   UNL     1       2.820   0.309  -1.352  0.00  0.00    +0.000 HD
BRANCH   8  11
ATOM     11  C   UNL     1       4.465   0.964  -0.225  0.00  0.00    +0.000 C 
BRANCH  11  12
ATOM     12  C   UNL     1       5.154  -0.251   0.389  0.00  0.00    +0.000 C 
BRANCH  12  13
ATOM     13  C   UNL     1       5.087  -1.479  -0.520  0.00  0.00    +0.000 C 
BRANCH  13  14
ATOM     14  N   UNL     1       5.773  -2.606   0.103  0.00  0.00    +0.000 NA
ATOM     15  H   UNL     1       5.321  -2.837   0.986  0.00  0.00    +0.000 HD
ATOM     16  H   UNL     1       5.679  -3.429  -0.490  0.00  0.00    +0.000 HD
ENDBRANCH  13  14
ENDBRANCH  12  13
ENDBRANCH  11  12
ENDBRANCH   8  11
ENDBRANCH   2   9
BRANCH   5  18
ATOM     17  N   UNL     1      -3.860  -0.396   0.198  0.00  0.00    +0.000 NA
ATOM     18  N   UNL     1      -3.231  -0.172  -0.861  0.00  0.00    +0.000 NA
BRANCH  17  19
ATOM     19  C   UNL     1      -5.264  -0.716  -0.057  0.00  0.00    +0.000 C 
ATOM     20  C   UNL     1      -6.070   0.574  -0.073  0.00  0.00    +0.000 C 
ATOM     21  C   UNL     1      -5.755  -1.674   1.019  0.00  0.00    +0.000 C 
ENDBRANCH  17  19
ENDBRANCH   5  18
TORSDOF 7
