REMARK  Name = 123486589
REMARK  5 active torsions:
REMARK  status: ('A' for Active; 'I' for Inactive)
REMARK    1  A    between atoms: N_3  and  C_6
REMARK    2  A    between atoms: C_6  and  C_7
REMARK    3  A    between atoms: C_7  and  C_10
REMARK    4  A    between atoms: C_8  and  C_9
REMARK    5  A    between atoms: C_15  and  C_16
REMARK                            x       y       z     vdW  Elec       q    Type
REMARK                         _______ _______ _______ _____ _____    ______ ____
ROOT
ATOM      1  O   UNL     1      -4.333  -1.116  -0.906  0.00  0.00    +0.000 OA
ATOM      2  N   UNL     1      -1.599  -0.820  -0.264  0.00  0.00    +0.000 NA
ATOM      3  N   UNL     1      -3.331   0.736   0.152  0.00  0.00    +0.000 N 
ATOM      4  C   UNL     1       0.661  -0.284   0.404  0.00  0.00    +0.000 A 
ATOM      5  C   UNL     1       0.232   0.940   0.903  0.00  0.00    +0.000 A 
ATOM      6  C   UNL     1      -1.980   0.378   0.232  0.00  0.00    +0.000 A 
ATOM      7  C   UNL     1      -0.285  -1.121  -0.164  0.00  0.00    +0.000 A 
ATOM      8  C   UNL     1      -1.113   1.285   0.820  0.00  0.00    +0.000 A 
ATOM      9  C   UNL     1      -4.386  -0.004  -0.391  0.00  0.00    +0.000 C 
ATOM     10  C   UNL     1      -5.697   0.734  -0.280  0.00  0.00    +0.000 C 
ATOM     11  H   UNL     1      -3.566   1.648   0.539  0.00  0.00    +0.000 HD
ENDROOT
BRANCH   4  14
ATOM     12  O   UNL     1       2.381  -1.876   0.487  0.00  0.00    +0.000 OA
ATOM     13  N   UNL     1       3.015   0.355   0.499  0.00  0.00    +0.000 N 
ATOM     14  C   UNL     1       2.091  -0.683   0.475  0.00  0.00    +0.000 C 
ATOM     15  H   UNL     1       2.708   1.319   0.429  0.00  0.00    +0.000 HD
BRANCH  13  16
ATOM     16  C   UNL     1       4.434   0.131   0.542  0.00  0.00    +0.000 C 
BRANCH  16  17
ATOM     17  C   UNL     1       5.049   0.036  -0.849  0.00  0.00    +0.000 C 
ATOM     18  C   UNL     1       4.863   1.309  -1.662  0.00  0.00    +0.000 C 
ENDBRANCH  16  17
ENDBRANCH  13  16
ENDBRANCH   4  14
TORSDOF 3
