REMARK  Name = 123650531
REMARK  4 active torsions:
REMARK  status: ('A' for Active; 'I' for Inactive)
REMARK    1  A    between atoms: N_3  and  C_15
REMARK    2  A    between atoms: C_7  and  C_9
REMARK    3  A    between atoms: C_8  and  C_13
REMARK    4  A    between atoms: C_9  and  C_14
REMARK                            x       y       z     vdW  Elec       q    Type
REMARK                         _______ _______ _______ _____ _____    ______ ____
ROOT
ATOM      1  N   UNL     1      -2.598   0.958  -0.357  0.00  0.00    +0.000 N 
ATOM      2  N   UNL     1      -2.201  -1.363  -0.098  0.00  0.00    +0.000 NA
ATOM      3  C   UNL     1       0.478  -0.848   0.509  0.00  0.00    +0.000 A 
ATOM      4  C   UNL     1      -0.388   0.203   0.227  0.00  0.00    +0.000 A 
ATOM      5  C   UNL     1      -1.707  -0.106  -0.068  0.00  0.00    +0.000 A 
ATOM      6  C   UNL     1       0.006  -2.155   0.489  0.00  0.00    +0.000 A 
ATOM      7  C   UNL     1      -1.329  -2.358   0.182  0.00  0.00    +0.000 A 
ATOM      8  C   UNL     1      -3.973   0.746  -0.672  0.00  0.00    +0.000 C 
ATOM      9  H   UNL     1      -2.329   1.885  -0.046  0.00  0.00    +0.000 HD
ENDROOT
BRANCH   4  12
ATOM     10  O   UNL     1       0.533   2.119  -0.786  0.00  0.00    +0.000 OA
ATOM     11  N   UNL     1       0.017   2.274   1.443  0.00  0.00    +0.000 N 
ATOM     12  C   UNL     1       0.091   1.581   0.241  0.00  0.00    +0.000 C 
ATOM     13  H   UNL     1      -0.348   1.849   2.290  0.00  0.00    +0.000 HD
ATOM     14  H   UNL     1       0.331   3.237   1.510  0.00  0.00    +0.000 HD
ENDBRANCH   4  12
BRANCH   3  15
ATOM     15  C   UNL     1       1.915  -0.604   0.837  0.00  0.00    +0.000 C 
BRANCH  15  18
ATOM     16  O   UNL     1       2.515  -0.661  -1.514  0.00  0.00    +0.000 OA
ATOM     17  N   UNL     1       3.868   0.495  -0.059  0.00  0.00    +0.000 N 
ATOM     18  C   UNL     1       2.772  -0.280  -0.375  0.00  0.00    +0.000 C 
ATOM     19  H   UNL     1       4.067   0.797   0.889  0.00  0.00    +0.000 HD
ATOM     20  H   UNL     1       4.524   0.786  -0.776  0.00  0.00    +0.000 HD
ENDBRANCH  15  18
ENDBRANCH   3  15
TORSDOF 3
