REMARK  Name = 123621053
REMARK  5 active torsions:
REMARK  status: ('A' for Active; 'I' for Inactive)
REMARK    1  A    between atoms: N_3  and  C_9
REMARK    2  A    between atoms: C_6  and  C_7
REMARK    3  A    between atoms: C_6  and  C_8
REMARK    4  A    between atoms: C_7  and  C_10
REMARK    5  A    between atoms: C_11  and  C_14
REMARK                            x       y       z     vdW  Elec       q    Type
REMARK                         _______ _______ _______ _____ _____    ______ ____
ROOT
ATOM      1  N   UNL     1      -0.849  -1.779   0.013  0.00  0.00    +0.000 NA
ATOM      2  C   UNL     1      -0.752  -0.431  -0.010  0.00  0.00    +0.000 A 
ATOM      3  C   UNL     1      -1.841   0.425  -0.022  0.00  0.00    +0.000 A 
ATOM      4  C   UNL     1      -3.112  -0.138  -0.009  0.00  0.00    +0.000 A 
ATOM      5  C   UNL     1      -3.253  -1.522   0.015  0.00  0.00    +0.000 A 
ATOM      6  C   UNL     1      -2.100  -2.291   0.025  0.00  0.00    +0.000 A 
ENDROOT
BRANCH   3   9
ATOM      7  O   UNL     1      -1.663   2.503  -1.117  0.00  0.00    +0.000 OA
ATOM      8  N   UNL     1      -1.640   2.537   1.176  0.00  0.00    +0.000 N 
ATOM      9  C   UNL     1      -1.704   1.875  -0.045  0.00  0.00    +0.000 C 
ATOM     10  H   UNL     1      -1.679   2.041   2.061  0.00  0.00    +0.000 HD
ATOM     11  H   UNL     1      -1.551   3.547   1.218  0.00  0.00    +0.000 HD
ENDBRANCH   3   9
BRANCH   2  13
ATOM     12  O   UNL     1       1.939  -1.762   0.005  0.00  0.00    +0.000 OA
ATOM     13  N   UNL     1       0.548   0.130  -0.024  0.00  0.00    +0.000 N 
ATOM     14  C   UNL     1       1.764  -0.548  -0.016  0.00  0.00    +0.000 C 
ATOM     15  H   UNL     1       0.594   1.145  -0.040  0.00  0.00    +0.000 HD
BRANCH  14  16
ATOM     16  C   UNL     1       2.926   0.438  -0.006  0.00  0.00    +0.000 C 
BRANCH  16  17
ATOM     17  C   UNL     1       4.301  -0.226   0.003  0.00  0.00    +0.000 C 
ATOM     18  C   UNL     1       5.438   0.787   0.012  0.00  0.00    +0.000 C 
ENDBRANCH  16  17
ENDBRANCH  14  16
ENDBRANCH   2  13
TORSDOF 4
