REMARK  Name = 123711792
REMARK  3 active torsions:
REMARK  status: ('A' for Active; 'I' for Inactive)
REMARK    1  A    between atoms: N_4  and  C_12
REMARK    2  A    between atoms: C_5  and  C_9
REMARK    3  A    between atoms: C_11  and  C_12
REMARK                            x       y       z     vdW  Elec       q    Type
REMARK                         _______ _______ _______ _____ _____    ______ ____
ROOT
ATOM      1  N   UNL     1      -3.066   1.072  -0.194  0.00  0.00    +0.000 NA
ATOM      2  N   UNL     1      -4.851  -0.504  -0.104  0.00  0.00    +0.000 N 
ATOM      3  C   UNL     1      -0.789   0.307   0.078  0.00  0.00    +0.000 A 
ATOM      4  C   UNL     1      -1.239  -1.000   0.227  0.00  0.00    +0.000 A 
ATOM      5  C   UNL     1      -2.601  -1.272   0.167  0.00  0.00    +0.000 A 
ATOM      6  C   UNL     1      -1.735   1.298  -0.129  0.00  0.00    +0.000 A 
ATOM      7  C   UNL     1      -3.466  -0.211  -0.044  0.00  0.00    +0.000 A 
ATOM      8  H   UNL     1      -5.135  -1.423  -0.421  0.00  0.00    +0.000 HD
ATOM      9  H   UNL     1      -5.478   0.274  -0.264  0.00  0.00    +0.000 HD
ENDROOT
BRANCH   3  10
ATOM     10  C   UNL     1       0.626   0.624   0.137  0.00  0.00    +0.000 C 
ATOM     11  C   UNL     1       1.635  -0.259  -0.049  0.00  0.00    +0.000 C 
BRANCH  11  13
ATOM     12  O   UNL     1       3.379   1.340   0.252  0.00  0.00    +0.000 OA
ATOM     13  C   UNL     1       3.057   0.179   0.024  0.00  0.00    +0.000 C 
BRANCH  13  14
ATOM     14  N   UNL     1       3.889  -0.894  -0.197  0.00  0.00    +0.000 NA
ATOM     15  C   UNL     1       5.160  -0.680  -0.167  0.00  0.00    +0.000 C 
ENDBRANCH  13  14
ENDBRANCH  11  13
ENDBRANCH   3  10
TORSDOF 3
