REMARK  Name = 123855593
REMARK  7 active torsions:
REMARK  status: ('A' for Active; 'I' for Inactive)
REMARK    1  A    between atoms: O_1  and  N_4
REMARK    2  A    between atoms: O_1  and  C_11
REMARK    3  A    between atoms: C_7  and  C_8
REMARK    4  A    between atoms: C_7  and  C_9
REMARK    5  A    between atoms: C_8  and  C_10
REMARK    6  A    between atoms: C_9  and  C_11
REMARK    7  A    between atoms: C_12  and  C_13
REMARK                            x       y       z     vdW  Elec       q    Type
REMARK                         _______ _______ _______ _____ _____    ______ ____
ROOT
ATOM      1  O   UNL     1       0.752  -2.251   0.298  0.00  0.00    +0.000 OA
ATOM      2  N   UNL     1      -0.157  -0.149   0.028  0.00  0.00    +0.000 N 
ATOM      3  C   UNL     1       0.882  -1.040   0.147  0.00  0.00    +0.000 C 
ATOM      4  H   UNL     1      -0.096   0.848  -0.141  0.00  0.00    +0.000 HD
ENDROOT
BRANCH   3   7
ATOM      5  N   UNL     1       3.700   1.452   0.366  0.00  0.00    +0.000 NA
ATOM      6  N   UNL     1       6.018   1.255  -0.150  0.00  0.00    +0.000 N 
ATOM      7  C   UNL     1       2.247  -0.456   0.060  0.00  0.00    +0.000 A 
ATOM      8  C   UNL     1       3.324  -1.214  -0.386  0.00  0.00    +0.000 A 
ATOM      9  C   UNL     1       2.485   0.861   0.421  0.00  0.00    +0.000 A 
ATOM     10  C   UNL     1       4.589  -0.640  -0.456  0.00  0.00    +0.000 A 
ATOM     11  C   UNL     1       4.723   0.684  -0.072  0.00  0.00    +0.000 A 
ATOM     12  H   UNL     1       6.819   0.644  -0.050  0.00  0.00    +0.000 HD
ATOM     13  H   UNL     1       6.112   2.221   0.138  0.00  0.00    +0.000 HD
ENDBRANCH   3   7
BRANCH   2  14
ATOM     14  O   UNL     1      -1.442  -0.718   0.112  0.00  0.00    +0.000 OA
BRANCH  14  16
ATOM     15  O   UNL     1      -2.266   1.420  -0.179  0.00  0.00    +0.000 OA
ATOM     16  C   UNL     1      -2.431   0.219  -0.013  0.00  0.00    +0.000 C 
BRANCH  16  17
ATOM     17  C   UNL     1      -3.771  -0.472   0.088  0.00  0.00    +0.000 C 
BRANCH  17  18
ATOM     18  C   UNL     1      -4.933   0.507  -0.068  0.00  0.00    +0.000 C 
BRANCH  18  19
ATOM     19  C   UNL     1      -6.280  -0.212  -0.002  0.00  0.00    +0.000 C 
ATOM     20  C   UNL     1      -7.438   0.754  -0.195  0.00  0.00    +0.000 C 
ENDBRANCH  18  19
ENDBRANCH  17  18
ENDBRANCH  16  17
ENDBRANCH  14  16
ENDBRANCH   2  14
TORSDOF 6
