REMARK  Name = 123909110
REMARK  6 active torsions:
REMARK  status: ('A' for Active; 'I' for Inactive)
REMARK    1  A    between atoms: O_1  and  N_4
REMARK    2  A    between atoms: O_1  and  C_14
REMARK    3  A    between atoms: N_6  and  C_8
REMARK    4  A    between atoms: C_7  and  C_11
REMARK    5  A    between atoms: C_9  and  C_12
REMARK    6  A    between atoms: C_9  and  C_14
REMARK                            x       y       z     vdW  Elec       q    Type
REMARK                         _______ _______ _______ _____ _____    ______ ____
ROOT
ATOM      1  N   UNL     1       3.741  -0.219   0.732  0.00  0.00    +0.000 NA
ATOM      2  C   UNL     1       1.545  -0.038  -0.264  0.00  0.00    +0.000 A 
ATOM      3  C   UNL     1       2.516  -0.719   0.453  0.00  0.00    +0.000 A 
ATOM      4  C   UNL     1       1.851   1.238  -0.724  0.00  0.00    +0.000 A 
ATOM      5  C   UNL     1       3.101   1.786  -0.458  0.00  0.00    +0.000 A 
ATOM      6  C   UNL     1       4.002   1.024   0.268  0.00  0.00    +0.000 A 
ENDROOT
BRANCH   2   9
ATOM      7  O   UNL     1       0.121  -1.665  -1.180  0.00  0.00    +0.000 OA
ATOM      8  N   UNL     1      -0.867   0.090  -0.058  0.00  0.00    +0.000 N 
ATOM      9  C   UNL     1       0.205  -0.614  -0.551  0.00  0.00    +0.000 C 
ATOM     10  H   UNL     1      -0.829   0.953   0.475  0.00  0.00    +0.000 HD
BRANCH   8  11
ATOM     11  O   UNL     1      -2.128  -0.468  -0.339  0.00  0.00    +0.000 OA
BRANCH  11  13
ATOM     12  O   UNL     1      -3.031   1.315   0.819  0.00  0.00    +0.000 OA
ATOM     13  C   UNL     1      -3.150   0.279   0.179  0.00  0.00    +0.000 C 
BRANCH  13  14
ATOM     14  C   UNL     1      -4.462  -0.386  -0.166  0.00  0.00    +0.000 C 
ATOM     15  C   UNL     1      -5.654   0.394   0.361  0.00  0.00    +0.000 C 
ENDBRANCH  13  14
ENDBRANCH  11  13
ENDBRANCH   8  11
ENDBRANCH   2   9
BRANCH   3  16
ATOM     16  N   UNL     1       2.210  -2.019   0.928  0.00  0.00    +0.000 N 
ATOM     17  H   UNL     1       1.250  -2.235   1.165  0.00  0.00    +0.000 HD
ATOM     18  H   UNL     1       2.940  -2.494   1.446  0.00  0.00    +0.000 HD
ENDBRANCH   3  16
TORSDOF 5
