REMARK  Name = 123920016
REMARK  4 active torsions:
REMARK  status: ('A' for Active; 'I' for Inactive)
REMARK    1  A    between atoms: N_2  and  C_7
REMARK    2  A    between atoms: C_5  and  C_6
REMARK    3  A    between atoms: C_7  and  C_12
REMARK    4  A    between atoms: C_13  and  C_14
REMARK                            x       y       z     vdW  Elec       q    Type
REMARK                         _______ _______ _______ _____ _____    ______ ____
ROOT
ATOM      1  N   UNL     1      -3.326  -1.241  -0.184  0.00  0.00    +0.000 NA
ATOM      2  N   UNL     1      -5.297   0.095  -0.251  0.00  0.00    +0.000 N 
ATOM      3  C   UNL     1      -1.177  -0.175   0.120  0.00  0.00    +0.000 A 
ATOM      4  C   UNL     1      -1.794   1.070   0.174  0.00  0.00    +0.000 A 
ATOM      5  C   UNL     1      -1.980  -1.290  -0.059  0.00  0.00    +0.000 A 
ATOM      6  C   UNL     1      -3.176   1.160   0.050  0.00  0.00    +0.000 A 
ATOM      7  C   UNL     1      -3.890  -0.014  -0.126  0.00  0.00    +0.000 A 
ATOM      8  H   UNL     1      -5.762   0.875   0.198  0.00  0.00    +0.000 HD
ATOM      9  H   UNL     1      -5.816  -0.766  -0.373  0.00  0.00    +0.000 HD
ENDROOT
BRANCH   3  12
ATOM     10  O   UNL     1       0.764  -1.346   0.707  0.00  0.00    +0.000 OA
ATOM     11  N   UNL     1       1.032   0.798  -0.152  0.00  0.00    +0.000 N 
ATOM     12  C   UNL     1       0.298  -0.306   0.249  0.00  0.00    +0.000 C 
ATOM     13  H   UNL     1       0.564   1.673  -0.364  0.00  0.00    +0.000 HD
BRANCH  11  14
ATOM     14  C   UNL     1       2.398   0.858  -0.082  0.00  0.00    +0.000 C 
ATOM     15  C   UNL     1       2.961   2.233   0.131  0.00  0.00    +0.000 C 
ATOM     16  C   UNL     1       3.194  -0.222  -0.194  0.00  0.00    +0.000 C 
BRANCH  16  17
ATOM     17  C   UNL     1       4.640  -0.248  -0.132  0.00  0.00    +0.000 C 
ATOM     18  C   UNL     1       5.356  -1.372  -0.252  0.00  0.00    +0.000 C 
ENDBRANCH  16  17
ENDBRANCH  11  14
ENDBRANCH   3  12
TORSDOF 3
