REMARK  Name = 12404026
REMARK  2 active torsions:
REMARK  status: ('A' for Active; 'I' for Inactive)
REMARK    1  A    between atoms: C_5  and  C_8
REMARK    2  A    between atoms: C_6  and  C_11
REMARK                            x       y       z     vdW  Elec       q    Type
REMARK                         _______ _______ _______ _____ _____    ______ ____
ROOT
ATOM      1  N   UNL     1      -1.528   1.361  -0.005  0.00  0.00    +0.000 NA
ATOM      2  N   UNL     1      -3.534   0.075   0.027  0.00  0.00    +0.000 N 
ATOM      3  C   UNL     1      -0.035  -1.003  -0.010  0.00  0.00    +0.000 A 
ATOM      4  C   UNL     1       0.609   0.230  -0.024  0.00  0.00    +0.000 A 
ATOM      5  C   UNL     1      -1.425  -1.055   0.007  0.00  0.00    +0.000 A 
ATOM      6  C   UNL     1       0.739  -2.279  -0.012  0.00  0.00    +0.000 C 
ATOM      7  C   UNL     1      -2.118   0.145   0.009  0.00  0.00    +0.000 A 
ATOM      8  C   UNL     1      -0.176   1.371  -0.021  0.00  0.00    +0.000 A 
ATOM      9  H   UNL     1      -4.036   0.954   0.034  0.00  0.00    +0.000 HD
ATOM     10  H   UNL     1      -3.971  -0.731   0.456  0.00  0.00    +0.000 HD
ENDROOT
BRANCH   4  13
ATOM     11  O   UNL     1       2.691   0.407  -1.111  0.00  0.00    +0.000 OA
ATOM     12  N   UNL     1       2.719   0.403   1.182  0.00  0.00    +0.000 N 
ATOM     13  C   UNL     1       2.058   0.345  -0.042  0.00  0.00    +0.000 C 
ATOM     14  H   UNL     1       2.221   0.360   2.065  0.00  0.00    +0.000 HD
ATOM     15  H   UNL     1       3.728   0.490   1.226  0.00  0.00    +0.000 HD
ENDBRANCH   4  13
TORSDOF 1
