REMARK  Name = 12471476
REMARK  2 active torsions:
REMARK  status: ('A' for Active; 'I' for Inactive)
REMARK    1  A    between atoms: N_4  and  C_6
REMARK    2  A    between atoms: C_5  and  C_10
REMARK                            x       y       z     vdW  Elec       q    Type
REMARK                         _______ _______ _______ _____ _____    ______ ____
ROOT
ATOM      1  N   UNL     1       1.905  -0.882  -0.135  0.00  0.00    +0.000 NA
ATOM      2  C   UNL     1      -0.265   0.166   0.054  0.00  0.00    +0.000 A 
ATOM      3  C   UNL     1       0.555  -0.940  -0.101  0.00  0.00    +0.000 A 
ATOM      4  C   UNL     1       0.340   1.412   0.182  0.00  0.00    +0.000 A 
ATOM      5  C   UNL     1       1.726   1.512   0.151  0.00  0.00    +0.000 A 
ATOM      6  C   UNL     1       2.457   0.346  -0.008  0.00  0.00    +0.000 A 
ENDROOT
BRANCH   2   9
ATOM      7 CL   UNL     1      -2.635   1.456  -0.514  0.00  0.00    +0.000 Cl
ATOM      8  O   UNL     1      -2.312  -0.928   0.515  0.00  0.00    +0.000 OA
ATOM      9  C   UNL     1      -1.718   0.072   0.088  0.00  0.00    +0.000 C 
ENDBRANCH   2   9
BRANCH   3  10
ATOM     10  N   UNL     1      -0.054  -2.213  -0.232  0.00  0.00    +0.000 N 
ATOM     11  H   UNL     1      -0.563  -2.511   0.596  0.00  0.00    +0.000 HD
ATOM     12  H   UNL     1      -0.618  -2.313  -1.071  0.00  0.00    +0.000 HD
ENDBRANCH   3  10
TORSDOF 2
