REMARK  Name = 12563417
REMARK  4 active torsions:
REMARK  status: ('A' for Active; 'I' for Inactive)
REMARK    1  A    between atoms: N_3  and  C_6
REMARK    2  A    between atoms: N_3  and  C_8
REMARK    3  A    between atoms: C_7  and  C_11
REMARK    4  A    between atoms: C_8  and  C_13
REMARK                            x       y       z     vdW  Elec       q    Type
REMARK                         _______ _______ _______ _____ _____    ______ ____
ROOT
ATOM      1  N   UNL     1      -0.596   1.876   0.018  0.00  0.00    +0.000 NA
ATOM      2  C   UNL     1      -0.210   0.580  -0.002  0.00  0.00    +0.000 A 
ATOM      3  C   UNL     1      -1.089  -0.491  -0.023  0.00  0.00    +0.000 A 
ATOM      4  C   UNL     1      -2.451  -0.214  -0.024  0.00  0.00    +0.000 A 
ATOM      5  C   UNL     1      -2.887   1.106  -0.004  0.00  0.00    +0.000 A 
ATOM      6  C   UNL     1      -1.928   2.105   0.016  0.00  0.00    +0.000 A 
ENDROOT
BRANCH   3   9
ATOM      7  O   UNL     1      -0.424  -2.470  -1.114  0.00  0.00    +0.000 OA
ATOM      8  N   UNL     1      -0.450  -2.511   1.178  0.00  0.00    +0.000 N 
ATOM      9  C   UNL     1      -0.642  -1.877  -0.044  0.00  0.00    +0.000 C 
ATOM     10  H   UNL     1      -0.615  -2.041   2.062  0.00  0.00    +0.000 HD
ATOM     11  H   UNL     1      -0.133  -3.474   1.222  0.00  0.00    +0.000 HD
ENDBRANCH   3   9
BRANCH   2  12
ATOM     12  N   UNL     1       1.181   0.306  -0.001  0.00  0.00    +0.000 N 
ATOM     13  H   UNL     1       1.454  -0.614   0.330  0.00  0.00    +0.000 HD
BRANCH  12  14
ATOM     14  C   UNL     1       2.168   1.335   0.020  0.00  0.00    +0.000 C 
BRANCH  14  16
ATOM     15  O   UNL     1       3.783  -0.474  -0.027  0.00  0.00    +0.000 OA
ATOM     16  C   UNL     1       3.545   0.729   0.009  0.00  0.00    +0.000 C 
ENDBRANCH  14  16
ENDBRANCH  12  14
ENDBRANCH   2  12
TORSDOF 4
