REMARK  Name = 126568298
REMARK  3 active torsions:
REMARK  status: ('A' for Active; 'I' for Inactive)
REMARK    1  A    between atoms: C_8  and  C_9
REMARK    2  A    between atoms: C_9  and  C_12
REMARK    3  A    between atoms: C_10  and  C_15
REMARK                            x       y       z     vdW  Elec       q    Type
REMARK                         _______ _______ _______ _____ _____    ______ ____
ROOT
ATOM      1  N   UNL     1      -2.319  -1.682  -0.218  0.00  0.00    +0.000 NA
ATOM      2  N   UNL     1      -3.294   0.463  -0.469  0.00  0.00    +0.000 N 
ATOM      3  C   UNL     1       0.160  -0.504   0.313  0.00  0.00    +0.000 A 
ATOM      4  C   UNL     1      -0.950   0.292   0.053  0.00  0.00    +0.000 A 
ATOM      5  C   UNL     1       0.032  -1.889   0.307  0.00  0.00    +0.000 A 
ATOM      6  C   UNL     1      -2.156  -0.340  -0.204  0.00  0.00    +0.000 A 
ATOM      7  C   UNL     1      -1.218  -2.424   0.038  0.00  0.00    +0.000 A 
ATOM      8  H   UNL     1      -3.360   1.371  -0.027  0.00  0.00    +0.000 HD
ATOM      9  H   UNL     1      -4.159  -0.029  -0.659  0.00  0.00    +0.000 HD
ENDROOT
BRANCH   4  12
ATOM     10  O   UNL     1      -0.568   2.370  -0.987  0.00  0.00    +0.000 OA
ATOM     11  N   UNL     1      -1.046   2.409   1.255  0.00  0.00    +0.000 N 
ATOM     12  C   UNL     1      -0.833   1.746   0.053  0.00  0.00    +0.000 C 
ATOM     13  H   UNL     1      -1.270   1.913   2.112  0.00  0.00    +0.000 HD
ATOM     14  H   UNL     1      -0.984   3.420   1.312  0.00  0.00    +0.000 HD
ENDBRANCH   4  12
BRANCH   3  16
ATOM     15  F   UNL     1       2.245  -0.647   1.478  0.00  0.00    +0.000 F 
ATOM     16  C   UNL     1       1.497   0.096   0.599  0.00  0.00    +0.000 C 
BRANCH  16  19
ATOM     17  F   UNL     1       3.546   0.787  -0.335  0.00  0.00    +0.000 F 
ATOM     18  F   UNL     1       2.570  -0.944  -1.224  0.00  0.00    +0.000 F 
ATOM     19  C   UNL     1       2.336   0.267  -0.660  0.00  0.00    +0.000 C 
ENDBRANCH  16  19
ENDBRANCH   3  16
TORSDOF 3
