REMARK  Name = 126505671
REMARK  2 active torsions:
REMARK  status: ('A' for Active; 'I' for Inactive)
REMARK    1  A    between atoms: N_3  and  C_9
REMARK    2  A    between atoms: C_7  and  C_12
REMARK                            x       y       z     vdW  Elec       q    Type
REMARK                         _______ _______ _______ _____ _____    ______ ____
ROOT
ATOM      1  N   UNL     1       0.700   1.719   0.207  0.00  0.00    +0.000 NA
ATOM      2  C   UNL     1      -1.524   0.031   0.053  0.00  0.00    +0.000 A 
ATOM      3  C   UNL     1      -0.281  -0.482   0.408  0.00  0.00    +0.000 A 
ATOM      4  C   UNL     1       0.789   0.396   0.470  0.00  0.00    +0.000 A 
ATOM      5  C   UNL     1      -1.656   1.387  -0.226  0.00  0.00    +0.000 A 
ATOM      6  C   UNL     1      -0.524   2.181  -0.135  0.00  0.00    +0.000 A 
ENDROOT
BRANCH   4   7
ATOM      7  N   UNL     1       2.059  -0.071   0.824  0.00  0.00    +0.000 NA
ATOM      8  N   UNL     1       4.124  -0.956   0.183  0.00  0.00    +0.000 N 
ATOM      9  N   UNL     1       2.618  -0.527  -1.476  0.00  0.00    +0.000 N 
ATOM     10  C   UNL     1       2.867  -0.488  -0.122  0.00  0.00    +0.000 C 
ATOM     11  H   UNL     1       4.452  -0.988   1.142  0.00  0.00    +0.000 HD
ATOM     12  H   UNL     1       4.758  -1.281  -0.538  0.00  0.00    +0.000 HD
ATOM     13  H   UNL     1       1.737  -0.215  -1.871  0.00  0.00    +0.000 HD
ATOM     14  H   UNL     1       3.315  -0.871  -2.127  0.00  0.00    +0.000 HD
ENDBRANCH   4   7
BRANCH   2  17
ATOM     15  O   UNL     1      -2.592  -2.060   0.231  0.00  0.00    +0.000 OA
ATOM     16  N   UNL     1      -3.899  -0.281  -0.390  0.00  0.00    +0.000 N 
ATOM     17  C   UNL     1      -2.680  -0.847  -0.028  0.00  0.00    +0.000 C 
ATOM     18  H   UNL     1      -4.057   0.694  -0.612  0.00  0.00    +0.000 HD
ATOM     19  H   UNL     1      -4.724  -0.871  -0.447  0.00  0.00    +0.000 HD
ENDBRANCH   2  17
TORSDOF 2
