REMARK  Name = 126674544
REMARK  6 active torsions:
REMARK  status: ('A' for Active; 'I' for Inactive)
REMARK    1  A    between atoms: N_3  and  C_11
REMARK    2  A    between atoms: N_5  and  C_15
REMARK    3  A    between atoms: N_6  and  C_16
REMARK    4  A    between atoms: C_7  and  C_10
REMARK    5  A    between atoms: C_8  and  C_13
REMARK    6  A    between atoms: C_10  and  C_14
REMARK                            x       y       z     vdW  Elec       q    Type
REMARK                         _______ _______ _______ _____ _____    ______ ____
ROOT
ATOM      1  N   UNL     1      -1.175   1.891  -1.119  0.00  0.00    +0.000 NA
ATOM      2  C   UNL     1       0.588   0.636  -0.041  0.00  0.00    +0.000 A 
ATOM      3  C   UNL     1      -1.698  -0.080   0.180  0.00  0.00    +0.000 A 
ATOM      4  C   UNL     1      -0.349  -0.259   0.465  0.00  0.00    +0.000 A 
ATOM      5  C   UNL     1      -2.056   1.001  -0.610  0.00  0.00    +0.000 A 
ATOM      6  C   UNL     1       0.127   1.684  -0.821  0.00  0.00    +0.000 A 
ENDROOT
BRANCH   3   9
ATOM      7  O   UNL     1      -3.220  -0.830   1.814  0.00  0.00    +0.000 OA
ATOM      8  N   UNL     1      -2.983  -2.136  -0.056  0.00  0.00    +0.000 N 
ATOM      9  C   UNL     1      -2.672  -1.021   0.716  0.00  0.00    +0.000 C 
ATOM     10  H   UNL     1      -2.551  -2.304  -0.959  0.00  0.00    +0.000 HD
ATOM     11  H   UNL     1      -3.659  -2.821   0.266  0.00  0.00    +0.000 HD
ENDBRANCH   3   9
BRANCH   5  12
ATOM     12  N   UNL     1      -3.430   1.188  -0.907  0.00  0.00    +0.000 N 
ATOM     13  H   UNL     1      -4.027   0.373  -0.973  0.00  0.00    +0.000 HD
ATOM     14  H   UNL     1      -3.662   1.988  -1.483  0.00  0.00    +0.000 HD
ENDBRANCH   5  12
BRANCH   2  15
ATOM     15  C   UNL     1       2.021   0.474   0.242  0.00  0.00    +0.000 C 
ATOM     16  C   UNL     1       2.743   1.412   0.877  0.00  0.00    +0.000 C 
BRANCH  16  17
ATOM     17  N   UNL     1       4.063   1.411   1.209  0.00  0.00    +0.000 N 
ATOM     18  H   UNL     1       4.443   2.216   1.693  0.00  0.00    +0.000 HD
ATOM     19  H   UNL     1       4.677   0.642   0.985  0.00  0.00    +0.000 HD
ENDBRANCH  16  17
BRANCH  15  21
ATOM     20  N   UNL     1       2.186  -1.754  -0.757  0.00  0.00    +0.000 NA
ATOM     21  C   UNL     1       2.748  -0.765  -0.152  0.00  0.00    +0.000 C 
ATOM     22  C   UNL     1       3.107  -2.852  -1.039  0.00  0.00    +0.000 C 
ENDBRANCH  15  21
ENDBRANCH   2  15
TORSDOF 5
