REMARK  Name = 126674974
REMARK  3 active torsions:
REMARK  status: ('A' for Active; 'I' for Inactive)
REMARK    1  A    between atoms: N_3  and  C_8
REMARK    2  A    between atoms: C_5  and  C_10
REMARK    3  A    between atoms: C_7  and  C_11
REMARK                            x       y       z     vdW  Elec       q    Type
REMARK                         _______ _______ _______ _____ _____    ______ ____
ROOT
ATOM      1  N   UNL     1      -0.470   1.877   0.036  0.00  0.00    +0.000 NA
ATOM      2  C   UNL     1       0.814  -0.171  -0.010  0.00  0.00    +0.000 A 
ATOM      3  C   UNL     1      -0.358  -0.916   0.062  0.00  0.00    +0.000 A 
ATOM      4  C   UNL     1      -1.586  -0.266   0.120  0.00  0.00    +0.000 A 
ATOM      5  C   UNL     1       0.705   1.210  -0.019  0.00  0.00    +0.000 A 
ATOM      6  C   UNL     1      -1.588   1.119   0.105  0.00  0.00    +0.000 A 
ENDROOT
BRANCH   2   9
ATOM      7  O   UNL     1       2.615  -1.164  -1.158  0.00  0.00    +0.000 OA
ATOM      8  N   UNL     1       2.729  -1.152   1.132  0.00  0.00    +0.000 N 
ATOM      9  C   UNL     1       2.095  -0.860  -0.071  0.00  0.00    +0.000 C 
ATOM     10  H   UNL     1       2.324  -0.905   2.029  0.00  0.00    +0.000 HD
ATOM     11  H   UNL     1       3.627  -1.625   1.148  0.00  0.00    +0.000 HD
ENDBRANCH   2   9
BRANCH   5  12
ATOM     12  N   UNL     1       1.895   1.977  -0.089  0.00  0.00    +0.000 N 
ATOM     13  H   UNL     1       2.738   1.602   0.328  0.00  0.00    +0.000 HD
ATOM     14  H   UNL     1       1.784   2.983  -0.098  0.00  0.00    +0.000 HD
ENDBRANCH   5  12
BRANCH   4  15
ATOM     15  C   UNL     1      -2.827  -1.015   0.196  0.00  0.00    +0.000 C 
ATOM     16  C   UNL     1      -4.024  -0.639  -0.305  0.00  0.00    +0.000 C 
ENDBRANCH   4  15
TORSDOF 3
