REMARK  Name = 126719554
REMARK  8 active torsions:
REMARK  status: ('A' for Active; 'I' for Inactive)
REMARK    1  A    between atoms: N_2  and  C_5
REMARK    2  A    between atoms: N_2  and  C_6
REMARK    3  A    between atoms: N_4  and  C_17
REMARK    4  A    between atoms: C_5  and  C_7
REMARK    5  A    between atoms: C_6  and  C_8
REMARK    6  A    between atoms: C_7  and  C_10
REMARK    7  A    between atoms: C_8  and  C_11
REMARK    8  A    between atoms: C_14  and  C_16
REMARK                            x       y       z     vdW  Elec       q    Type
REMARK                         _______ _______ _______ _____ _____    ______ ____
ROOT
ATOM      1  N   UNL     1      -2.093  -0.070   0.009  0.00  0.00    +0.000 N 
ATOM      2  N   UNL     1       0.029  -1.001  -0.487  0.00  0.00    +0.000 NA
ATOM      3  C   UNL     1      -0.695   0.033  -0.003  0.00  0.00    +0.000 A 
ATOM      4  C   UNL     1      -0.141   1.204   0.488  0.00  0.00    +0.000 A 
ATOM      5  C   UNL     1       1.244   1.321   0.483  0.00  0.00    +0.000 A 
ATOM      6  C   UNL     1       2.023   0.279  -0.007  0.00  0.00    +0.000 A 
ATOM      7  C   UNL     1       1.372  -0.851  -0.477  0.00  0.00    +0.000 A 
ENDROOT
BRANCH   6  10
ATOM      8  O   UNL     1       4.036   1.479  -0.074  0.00  0.00    +0.000 OA
ATOM      9  N   UNL     1       4.188  -0.832   0.035  0.00  0.00    +0.000 N 
ATOM     10  C   UNL     1       3.472   0.371  -0.026  0.00  0.00    +0.000 C 
ATOM     11  C   UNL     1       5.631  -0.904   0.049  0.00  0.00    +0.000 C 
ATOM     12  H   UNL     1       3.693  -1.709   0.155  0.00  0.00    +0.000 HD
ENDBRANCH   6  10
BRANCH   1  13
ATOM     13  C   UNL     1      -2.742  -1.278  -0.504  0.00  0.00    +0.000 C 
BRANCH  13  14
ATOM     14  C   UNL     1      -2.760  -2.373   0.558  0.00  0.00    +0.000 C 
ATOM     15  C   UNL     1      -3.466  -3.638   0.089  0.00  0.00    +0.000 C 
ENDBRANCH  13  14
ENDBRANCH   1  13
BRANCH   1  16
ATOM     16  C   UNL     1      -2.923   0.998   0.512  0.00  0.00    +0.000 C 
BRANCH  16  17
ATOM     17  C   UNL     1      -3.134   2.067  -0.555  0.00  0.00    +0.000 C 
ATOM     18  C   UNL     1      -4.042   3.196  -0.089  0.00  0.00    +0.000 C 
ENDBRANCH  16  17
ENDBRANCH   1  16
TORSDOF 5
