REMARK  Name = 12711131
REMARK  3 active torsions:
REMARK  status: ('A' for Active; 'I' for Inactive)
REMARK    1  A    between atoms: N_3  and  C_5
REMARK    2  A    between atoms: C_4  and  C_7
REMARK    3  A    between atoms: C_7  and  C_9
REMARK                            x       y       z     vdW  Elec       q    Type
REMARK                         _______ _______ _______ _____ _____    ______ ____
ROOT
ATOM      1  N   UNL     1       1.856  -0.949   0.109  0.00  0.00    +0.000 NA
ATOM      2  C   UNL     1      -0.264   0.204  -0.037  0.00  0.00    +0.000 A 
ATOM      3  C   UNL     1       0.504  -0.942   0.089  0.00  0.00    +0.000 A 
ATOM      4  C   UNL     1       0.397   1.422  -0.149  0.00  0.00    +0.000 A 
ATOM      5  C   UNL     1       1.787   1.456  -0.132  0.00  0.00    +0.000 A 
ATOM      6  C   UNL     1       2.464   0.254  -0.002  0.00  0.00    +0.000 A 
ENDROOT
BRANCH   2   8
ATOM      7  O   UNL     1      -2.346  -0.802  -0.502  0.00  0.00    +0.000 OA
ATOM      8  C   UNL     1      -1.720   0.179  -0.056  0.00  0.00    +0.000 C 
ATOM      9  C   UNL     1      -2.514   1.366   0.476  0.00  0.00    +0.000 C 
ENDBRANCH   2   8
BRANCH   3  10
ATOM     10  N   UNL     1      -0.163  -2.188   0.203  0.00  0.00    +0.000 N 
ATOM     11  H   UNL     1      -1.068  -2.212   0.657  0.00  0.00    +0.000 HD
ATOM     12  H   UNL     1       0.425  -3.008   0.287  0.00  0.00    +0.000 HD
ENDBRANCH   3  10
TORSDOF 2
