REMARK  Name = 12793687
REMARK  8 active torsions:
REMARK  status: ('A' for Active; 'I' for Inactive)
REMARK    1  A    between atoms: N_2  and  C_5
REMARK    2  A    between atoms: N_2  and  C_6
REMARK    3  A    between atoms: N_3  and  C_9
REMARK    4  A    between atoms: N_3  and  C_13
REMARK    5  A    between atoms: C_5  and  C_10
REMARK    6  A    between atoms: C_6  and  C_11
REMARK    7  A    between atoms: C_7  and  C_8
REMARK    8  A    between atoms: C_13  and  C_16
REMARK                            x       y       z     vdW  Elec       q    Type
REMARK                         _______ _______ _______ _____ _____    ______ ____
ROOT
ATOM      1  N   UNL     1      -2.620  -0.190  -0.312  0.00  0.00    +0.000 NA
ATOM      2  C   UNL     1      -0.417  -0.708   0.500  0.00  0.00    +0.000 A 
ATOM      3  C   UNL     1      -1.373   0.179   0.057  0.00  0.00    +0.000 A 
ATOM      4  C   UNL     1      -0.734  -2.052   0.577  0.00  0.00    +0.000 A 
ATOM      5  C   UNL     1      -2.007  -2.471   0.205  0.00  0.00    +0.000 A 
ATOM      6  C   UNL     1      -2.905  -1.509  -0.228  0.00  0.00    +0.000 A 
ENDROOT
BRANCH   2   9
ATOM      7  O   UNL     1       1.081   0.040   2.075  0.00  0.00    +0.000 OA
ATOM      8  N   UNL     1       1.931  -0.237  -0.085  0.00  0.00    +0.000 N 
ATOM      9  C   UNL     1       0.933  -0.275   0.895  0.00  0.00    +0.000 C 
BRANCH   8  10
ATOM     10  C   UNL     1       3.271   0.204   0.278  0.00  0.00    +0.000 C 
ATOM     11  C   UNL     1       3.394   1.704   0.095  0.00  0.00    +0.000 C 
ENDBRANCH   8  10
BRANCH   8  12
ATOM     12  C   UNL     1       1.746  -0.614  -1.484  0.00  0.00    +0.000 C 
ATOM     13  C   UNL     1       2.038  -2.091  -1.671  0.00  0.00    +0.000 C 
ENDBRANCH   8  12
ENDBRANCH   2   9
BRANCH   3  14
ATOM     14  N   UNL     1      -1.043   1.556  -0.020  0.00  0.00    +0.000 N 
ATOM     15  H   UNL     1      -0.054   1.774  -0.082  0.00  0.00    +0.000 HD
BRANCH  14  16
ATOM     16  C   UNL     1      -1.968   2.545  -0.467  0.00  0.00    +0.000 C 
ATOM     17  C   UNL     1      -1.329   3.919  -0.416  0.00  0.00    +0.000 C 
ENDBRANCH  14  16
ENDBRANCH   3  14
TORSDOF 5
