REMARK  Name = 12812773
REMARK  3 active torsions:
REMARK  status: ('A' for Active; 'I' for Inactive)
REMARK    1  A    between atoms: N_2  and  C_5
REMARK    2  A    between atoms: N_2  and  C_11
REMARK    3  A    between atoms: C_12  and  C_14
REMARK                            x       y       z     vdW  Elec       q    Type
REMARK                         _______ _______ _______ _____ _____    ______ ____
ROOT
ATOM      1  N   UNL     1       1.005   1.810   0.261  0.00  0.00    +0.000 NA
ATOM      2  C   UNL     1       0.806   0.456   0.226  0.00  0.00    +0.000 A 
ATOM      3  C   UNL     1       1.860  -0.433  -0.030  0.00  0.00    +0.000 A 
ATOM      4  C   UNL     1       3.135   0.074  -0.254  0.00  0.00    +0.000 A 
ATOM      5  C   UNL     1       2.258   2.265   0.038  0.00  0.00    +0.000 A 
ATOM      6  C   UNL     1       3.346   1.448  -0.221  0.00  0.00    +0.000 A 
ENDROOT
BRANCH   3   9
ATOM      7  O   UNL     1       1.744  -2.567   0.960  0.00  0.00    +0.000 OA
ATOM      8  N   UNL     1       1.317  -2.446  -1.290  0.00  0.00    +0.000 N 
ATOM      9  C   UNL     1       1.648  -1.874  -0.067  0.00  0.00    +0.000 C 
ATOM     10  H   UNL     1       1.226  -1.894  -2.137  0.00  0.00    +0.000 HD
ATOM     11  H   UNL     1       1.152  -3.444  -1.371  0.00  0.00    +0.000 HD
ENDBRANCH   3   9
BRANCH   2  12
ATOM     12  N   UNL     1      -0.465  -0.041   0.450  0.00  0.00    +0.000 N 
ATOM     13  H   UNL     1      -0.654  -0.977   0.108  0.00  0.00    +0.000 HD
BRANCH  12  14
ATOM     14  C   UNL     1      -1.613   0.795   0.722  0.00  0.00    +0.000 C 
ATOM     15  C   UNL     1      -2.147   1.433  -0.565  0.00  0.00    +0.000 C 
ATOM     16  C   UNL     1      -2.709   0.006   1.446  0.00  0.00    +0.000 C 
ATOM     17  C   UNL     1      -2.843   0.421  -1.475  0.00  0.00    +0.000 C 
ATOM     18  C   UNL     1      -3.405  -1.004   0.533  0.00  0.00    +0.000 C 
ATOM     19  C   UNL     1      -3.937  -0.343  -0.735  0.00  0.00    +0.000 C 
ENDBRANCH  12  14
ENDBRANCH   2  12
TORSDOF 3
