REMARK  Name = 129661540
REMARK  5 active torsions:
REMARK  status: ('A' for Active; 'I' for Inactive)
REMARK    1  A    between atoms: N_2  and  C_7
REMARK    2  A    between atoms: C_5  and  C_6
REMARK    3  A    between atoms: C_5  and  C_7
REMARK    4  A    between atoms: C_6  and  C_8
REMARK    5  A    between atoms: C_8  and  C_9
REMARK                            x       y       z     vdW  Elec       q    Type
REMARK                         _______ _______ _______ _____ _____    ______ ____
ROOT
ATOM      1  N   UNL     1      -2.356  -1.395   0.013  0.00  0.00    +0.000 NA
ATOM      2  N   UNL     1      -4.664  -0.804  -0.030  0.00  0.00    +0.000 N 
ATOM      3  C   UNL     1      -0.682   0.349   0.014  0.00  0.00    +0.000 A 
ATOM      4  C   UNL     1      -1.680   1.317  -0.014  0.00  0.00    +0.000 A 
ATOM      5  C   UNL     1      -1.069  -0.981   0.027  0.00  0.00    +0.000 A 
ATOM      6  C   UNL     1      -3.015   0.930  -0.029  0.00  0.00    +0.000 A 
ATOM      7  C   UNL     1      -3.298  -0.426  -0.014  0.00  0.00    +0.000 A 
ATOM      8  H   UNL     1      -5.344  -0.169   0.370  0.00  0.00    +0.000 HD
ATOM      9  H   UNL     1      -4.866  -1.796  -0.013  0.00  0.00    +0.000 HD
ENDROOT
BRANCH   3  11
ATOM     10  O   UNL     1       1.062   1.921   0.002  0.00  0.00    +0.000 OA
ATOM     11  C   UNL     1       0.759   0.731   0.031  0.00  0.00    +0.000 C 
BRANCH  11  12
ATOM     12  C   UNL     1       1.805  -0.374   0.062  0.00  0.00    +0.000 C 
BRANCH  12  13
ATOM     13  C   UNL     1       3.244   0.149   0.021  0.00  0.00    +0.000 C 
BRANCH  13  14
ATOM     14  C   UNL     1       4.272  -0.983  -0.025  0.00  0.00    +0.000 C 
BRANCH  14  15
ATOM     15  N   UNL     1       5.623  -0.434  -0.058  0.00  0.00    +0.000 NA
ATOM     16  H   UNL     1       5.740   0.140  -0.892  0.00  0.00    +0.000 HD
ATOM     17  H   UNL     1       6.295  -1.196  -0.140  0.00  0.00    +0.000 HD
ENDBRANCH  14  15
ENDBRANCH  13  14
ENDBRANCH  12  13
ENDBRANCH  11  12
ENDBRANCH   3  11
TORSDOF 5
