REMARK  Name = 129673238
REMARK  4 active torsions:
REMARK  status: ('A' for Active; 'I' for Inactive)
REMARK    1  A    between atoms: N_3  and  C_7
REMARK    2  A    between atoms: C_4  and  C_6
REMARK    3  A    between atoms: C_5  and  C_8
REMARK    4  A    between atoms: C_6  and  C_9
REMARK                            x       y       z     vdW  Elec       q    Type
REMARK                         _______ _______ _______ _____ _____    ______ ____
ROOT
ATOM      1  O   UNL     1       1.079  -1.893   1.106  0.00  0.00    +0.000 OA
ATOM      2  C   UNL     1       1.023  -0.785   0.583  0.00  0.00    +0.000 C 
ENDROOT
BRANCH   2   4
ATOM      3  N   UNL     1       4.399   0.055  -0.890  0.00  0.00    +0.000 NA
ATOM      4  C   UNL     1       2.276  -0.061   0.259  0.00  0.00    +0.000 A 
ATOM      5  C   UNL     1       3.248  -0.582  -0.579  0.00  0.00    +0.000 A 
ATOM      6  C   UNL     1       2.500   1.194   0.816  0.00  0.00    +0.000 A 
ATOM      7  C   UNL     1       3.673   1.879   0.520  0.00  0.00    +0.000 A 
ATOM      8  C   UNL     1       4.582   1.272  -0.330  0.00  0.00    +0.000 A 
BRANCH   5   9
ATOM      9  N   UNL     1       3.027  -1.861  -1.148  0.00  0.00    +0.000 N 
ATOM     10  H   UNL     1       2.483  -2.537  -0.626  0.00  0.00    +0.000 HD
ATOM     11  H   UNL     1       3.753  -2.215  -1.759  0.00  0.00    +0.000 HD
ENDBRANCH   5   9
ENDBRANCH   2   4
BRANCH   2  13
ATOM     12  C   UNL     1      -1.440  -0.758   0.464  0.00  0.00    +0.000 C 
ATOM     13  C   UNL     1      -0.266  -0.132   0.222  0.00  0.00    +0.000 C 
BRANCH  12  14
ATOM     14  C   UNL     1      -2.755  -0.229   0.140  0.00  0.00    +0.000 A 
ATOM     15  C   UNL     1      -2.924   1.139  -0.071  0.00  0.00    +0.000 A 
ATOM     16  C   UNL     1      -3.848  -1.090   0.041  0.00  0.00    +0.000 A 
ATOM     17  C   UNL     1      -4.185   1.647  -0.382  0.00  0.00    +0.000 A 
ATOM     18  C   UNL     1      -5.110  -0.582  -0.270  0.00  0.00    +0.000 A 
ATOM     19  C   UNL     1      -5.278   0.786  -0.481  0.00  0.00    +0.000 A 
ENDBRANCH  12  14
ENDBRANCH   2  13
TORSDOF 4
