REMARK  Name = 129783319
REMARK  4 active torsions:
REMARK  status: ('A' for Active; 'I' for Inactive)
REMARK    1  A    between atoms: N_2  and  C_11
REMARK    2  A    between atoms: N_4  and  C_16
REMARK    3  A    between atoms: N_4  and  C_17
REMARK    4  A    between atoms: N_5  and  C_9
REMARK                            x       y       z     vdW  Elec       q    Type
REMARK                         _______ _______ _______ _____ _____    ______ ____
ROOT
ATOM      1  O   UNL     1       1.971   2.619   0.413  0.00  0.00    +0.000 OA
ATOM      2  N   UNL     1      -0.014   1.487  -0.094  0.00  0.00    +0.000 N 
ATOM      3  N   UNL     1       0.015  -0.869  -0.436  0.00  0.00    +0.000 NA
ATOM      4  N   UNL     1       2.004  -2.068  -0.281  0.00  0.00    +0.000 NA
ATOM      5  C   UNL     1       2.093   0.307   0.087  0.00  0.00    +0.000 A 
ATOM      6  C   UNL     1       1.361   1.587   0.154  0.00  0.00    +0.000 A 
ATOM      7  C   UNL     1      -0.621   0.259  -0.376  0.00  0.00    +0.000 A 
ATOM      8  C   UNL     1       1.397  -0.860  -0.203  0.00  0.00    +0.000 A 
ATOM      9  C   UNL     1      -0.826   2.700  -0.052  0.00  0.00    +0.000 C 
ATOM     10  C   UNL     1       3.467   0.240   0.308  0.00  0.00    +0.000 A 
ATOM     11  C   UNL     1       4.107  -0.991   0.232  0.00  0.00    +0.000 A 
ATOM     12  C   UNL     1       3.338  -2.104  -0.063  0.00  0.00    +0.000 A 
ENDROOT
BRANCH   7  14
ATOM     13  N   UNL     1      -4.042  -0.687   0.195  0.00  0.00    +0.000 N 
ATOM     14  N   UNL     1      -1.972   0.237  -0.606  0.00  0.00    +0.000 NA
ATOM     15  C   UNL     1      -2.672  -0.490   0.200  0.00  0.00    +0.000 C 
ATOM     16  C   UNL     1      -4.893  -0.044  -0.797  0.00  0.00    +0.000 C 
ATOM     17  C   UNL     1      -4.714  -1.324   1.318  0.00  0.00    +0.000 C 
ENDBRANCH   7  14
TORSDOF 1
