REMARK  Name = 129969386
REMARK  1 active torsions:
REMARK  status: ('A' for Active; 'I' for Inactive)
REMARK    1  A    between atoms: C_6  and  C_11
REMARK                            x       y       z     vdW  Elec       q    Type
REMARK                         _______ _______ _______ _____ _____    ______ ____
ROOT
ATOM      1  F   UNL     1      -0.713  -2.115  -0.001  0.00  0.00    +0.000 F 
ATOM      2  N   UNL     1       1.556   1.343   0.000  0.00  0.00    +0.000 NA
ATOM      3  N   UNL     1       3.535   0.018  -0.000  0.00  0.00    +0.000 N 
ATOM      4  C   UNL     1      -0.603   0.255   0.001  0.00  0.00    +0.000 A 
ATOM      5  C   UNL     1       0.016  -0.990   0.000  0.00  0.00    +0.000 A 
ATOM      6  C   UNL     1       1.404  -1.070   0.000  0.00  0.00    +0.000 A 
ATOM      7  C   UNL     1       2.122   0.116   0.000  0.00  0.00    +0.000 A 
ATOM      8  C   UNL     1       0.204   1.381   0.000  0.00  0.00    +0.000 A 
ATOM      9  H   UNL     1       3.962  -0.800   0.418  0.00  0.00    +0.000 HD
ATOM     10  H   UNL     1       4.056   0.886   0.006  0.00  0.00    +0.000 HD
ENDROOT
BRANCH   4  13
ATOM     11  F   UNL     1      -2.795  -0.749   0.000  0.00  0.00    +0.000 F 
ATOM     12  O   UNL     1      -2.675   1.435  -0.001  0.00  0.00    +0.000 OA
ATOM     13  C   UNL     1      -2.051   0.376   0.000  0.00  0.00    +0.000 C 
ENDBRANCH   4  13
TORSDOF 1
