REMARK  Name = 129933479
REMARK  3 active torsions:
REMARK  status: ('A' for Active; 'I' for Inactive)
REMARK    1  A    between atoms: N_3  and  C_8
REMARK    2  A    between atoms: N_4  and  C_10
REMARK    3  A    between atoms: C_7  and  C_10
REMARK                            x       y       z     vdW  Elec       q    Type
REMARK                         _______ _______ _______ _____ _____    ______ ____
ROOT
ATOM      1  O   UNL     1       0.924  -1.485  -1.141  0.00  0.00    +0.000 OA
ATOM      2  C   UNL     1       0.710  -0.350  -0.678  0.00  0.00    +0.000 C 
ENDROOT
BRANCH   2   3
ATOM      3  N   UNL     1       1.714   0.603  -0.537  0.00  0.00    +0.000 NA
ATOM      4  N   UNL     1       3.804   1.201   0.500  0.00  0.00    +0.000 N 
ATOM      5  N   UNL     1       2.833  -0.818   0.930  0.00  0.00    +0.000 N 
ATOM      6  C   UNL     1       2.733   0.372   0.249  0.00  0.00    +0.000 C 
ATOM      7  H   UNL     1       3.872   2.114   0.064  0.00  0.00    +0.000 HD
ATOM      8  H   UNL     1       4.551   0.927   1.129  0.00  0.00    +0.000 HD
ATOM      9  H   UNL     1       2.134  -1.550   0.860  0.00  0.00    +0.000 HD
ATOM     10  H   UNL     1       3.623  -1.004   1.539  0.00  0.00    +0.000 HD
ENDBRANCH   2   3
BRANCH   2  12
ATOM     11  N   UNL     1      -2.834  -0.498   0.549  0.00  0.00    +0.000 NA
ATOM     12  C   UNL     1      -0.637   0.052  -0.298  0.00  0.00    +0.000 A 
ATOM     13  C   UNL     1      -1.577  -0.842   0.191  0.00  0.00    +0.000 A 
ATOM     14  C   UNL     1      -1.012   1.385  -0.427  0.00  0.00    +0.000 A 
ATOM     15  C   UNL     1      -2.296   1.777  -0.069  0.00  0.00    +0.000 A 
ATOM     16  C   UNL     1      -3.162   0.806   0.409  0.00  0.00    +0.000 A 
BRANCH  13  17
ATOM     17  N   UNL     1      -1.202  -2.203   0.322  0.00  0.00    +0.000 N 
ATOM     18  H   UNL     1      -0.534  -2.590  -0.332  0.00  0.00    +0.000 HD
ATOM     19  H   UNL     1      -1.909  -2.829   0.690  0.00  0.00    +0.000 HD
ENDBRANCH  13  17
ENDBRANCH   2  12
TORSDOF 3
