REMARK  Name = 129916453
REMARK  5 active torsions:
REMARK  status: ('A' for Active; 'I' for Inactive)
REMARK    1  A    between atoms: O_1  and  N_3
REMARK    2  A    between atoms: O_1  and  C_13
REMARK    3  A    between atoms: N_3  and  C_10
REMARK    4  A    between atoms: N_5  and  C_8
REMARK    5  A    between atoms: C_6  and  C_7
REMARK                            x       y       z     vdW  Elec       q    Type
REMARK                         _______ _______ _______ _____ _____    ______ ____
ROOT
ATOM      1  N   UNL     1      -2.591   0.386  -0.654  0.00  0.00    +0.000 NA
ATOM      2  C   UNL     1      -0.404   0.185   0.357  0.00  0.00    +0.000 A 
ATOM      3  C   UNL     1      -1.323   0.816  -0.466  0.00  0.00    +0.000 A 
ATOM      4  C   UNL     1      -0.813  -0.961   1.030  0.00  0.00    +0.000 A 
ATOM      5  C   UNL     1      -2.110  -1.434   0.863  0.00  0.00    +0.000 A 
ATOM      6  C   UNL     1      -2.952  -0.730   0.017  0.00  0.00    +0.000 A 
ENDROOT
BRANCH   2   9
ATOM      7  O   UNL     1       1.102   1.809   1.013  0.00  0.00    +0.000 OA
ATOM      8  N   UNL     1       2.012  -0.152   0.198  0.00  0.00    +0.000 N 
ATOM      9  C   UNL     1       0.972   0.680   0.544  0.00  0.00    +0.000 C 
ATOM     10  C   UNL     1       3.411   0.205   0.346  0.00  0.00    +0.000 C 
BRANCH   8  11
ATOM     11  O   UNL     1       1.835  -1.441  -0.337  0.00  0.00    +0.000 OA
ATOM     12  C   UNL     1       1.776  -1.349  -1.757  0.00  0.00    +0.000 C 
ENDBRANCH   8  11
ENDBRANCH   2   9
BRANCH   3  13
ATOM     13  N   UNL     1      -0.914   1.986  -1.155  0.00  0.00    +0.000 N 
ATOM     14  H   UNL     1      -0.219   2.584  -0.725  0.00  0.00    +0.000 HD
ATOM     15  H   UNL     1      -1.606   2.423  -1.752  0.00  0.00    +0.000 HD
ENDBRANCH   3  13
TORSDOF 3
