REMARK  Name = 129935091
REMARK  4 active torsions:
REMARK  status: ('A' for Active; 'I' for Inactive)
REMARK    1  A    between atoms: N_3  and  C_10
REMARK    2  A    between atoms: N_4  and  C_11
REMARK    3  A    between atoms: N_5  and  C_13
REMARK    4  A    between atoms: C_8  and  C_13
REMARK                            x       y       z     vdW  Elec       q    Type
REMARK                         _______ _______ _______ _____ _____    ______ ____
ROOT
ATOM      1  N   UNL     1      -2.475  -1.170   0.557  0.00  0.00    +0.000 NA
ATOM      2  C   UNL     1      -0.411  -0.237  -0.288  0.00  0.00    +0.000 A 
ATOM      3  C   UNL     1      -1.008   1.015  -0.383  0.00  0.00    +0.000 A 
ATOM      4  C   UNL     1      -1.181  -1.288   0.184  0.00  0.00    +0.000 A 
ATOM      5  C   UNL     1      -2.337   1.176  -0.009  0.00  0.00    +0.000 A 
ATOM      6  C   UNL     1      -3.021   0.062   0.450  0.00  0.00    +0.000 A 
ENDROOT
BRANCH   4   7
ATOM      7  N   UNL     1      -0.579  -2.568   0.283  0.00  0.00    +0.000 N 
ATOM      8  H   UNL     1       0.139  -2.821  -0.383  0.00  0.00    +0.000 HD
ATOM      9  H   UNL     1      -1.166  -3.313   0.640  0.00  0.00    +0.000 HD
ENDBRANCH   4   7
BRANCH   5  10
ATOM     10  N   UNL     1      -2.967   2.429  -0.094  0.00  0.00    +0.000 N 
ATOM     11  H   UNL     1      -2.454   3.232  -0.431  0.00  0.00    +0.000 HD
ATOM     12  H   UNL     1      -3.935   2.529   0.181  0.00  0.00    +0.000 HD
ENDBRANCH   5  10
BRANCH   2  14
ATOM     13  O   UNL     1       1.382  -1.467  -1.174  0.00  0.00    +0.000 OA
ATOM     14  C   UNL     1       0.982  -0.396  -0.683  0.00  0.00    +0.000 C 
BRANCH  14  15
ATOM     15  N   UNL     1       1.811   0.711  -0.523  0.00  0.00    +0.000 NA
ATOM     16  N   UNL     1       3.777   1.630   0.520  0.00  0.00    +0.000 N 
ATOM     17  N   UNL     1       3.166  -0.534   0.905  0.00  0.00    +0.000 N 
ATOM     18  C   UNL     1       2.861   0.638   0.254  0.00  0.00    +0.000 C 
ATOM     19  H   UNL     1       3.686   2.551   0.106  0.00  0.00    +0.000 HD
ATOM     20  H   UNL     1       4.564   1.472   1.140  0.00  0.00    +0.000 HD
ATOM     21  H   UNL     1       2.601  -1.371   0.820  0.00  0.00    +0.000 HD
ATOM     22  H   UNL     1       3.980  -0.597   1.506  0.00  0.00    +0.000 HD
ENDBRANCH  14  15
ENDBRANCH   2  14
TORSDOF 4
