REMARK  Name = 130198322
REMARK  6 active torsions:
REMARK  status: ('A' for Active; 'I' for Inactive)
REMARK    1  A    between atoms: N_2  and  N_3
REMARK    2  A    between atoms: N_2  and  C_6
REMARK    3  A    between atoms: N_5  and  C_11
REMARK    4  A    between atoms: C_6  and  C_7
REMARK    5  A    between atoms: C_6  and  C_8
REMARK    6  A    between atoms: C_9  and  C_10
REMARK                            x       y       z     vdW  Elec       q    Type
REMARK                         _______ _______ _______ _____ _____    ______ ____
ROOT
ATOM      1  N   UNL     1      -3.150   0.861   0.559  0.00  0.00    +0.000 NA
ATOM      2  C   UNL     1      -1.138  -0.191  -0.272  0.00  0.00    +0.000 A 
ATOM      3  C   UNL     1      -1.879   0.918   0.101  0.00  0.00    +0.000 A 
ATOM      4  C   UNL     1      -1.740  -1.440  -0.169  0.00  0.00    +0.000 A 
ATOM      5  C   UNL     1      -3.046  -1.540   0.297  0.00  0.00    +0.000 A 
ATOM      6  C   UNL     1      -3.701  -0.370   0.645  0.00  0.00    +0.000 A 
ENDROOT
BRANCH   2   9
ATOM      7  O   UNL     1       0.494   0.569  -1.776  0.00  0.00    +0.000 OA
ATOM      8  N   UNL     1       1.208  -0.771  -0.020  0.00  0.00    +0.000 N 
ATOM      9  C   UNL     1       0.260  -0.096  -0.769  0.00  0.00    +0.000 C 
ATOM     10  H   UNL     1       0.971  -1.317   0.802  0.00  0.00    +0.000 HD
BRANCH   8  11
ATOM     11  N   UNL     1       2.534  -0.709  -0.416  0.00  0.00    +0.000 NA
ATOM     12  H   UNL     1       2.814  -1.672  -0.600  0.00  0.00    +0.000 HD
BRANCH  11  13
ATOM     13  C   UNL     1       3.351  -0.153   0.662  0.00  0.00    +0.000 C 
ATOM     14  C   UNL     1       3.288   1.371   0.643  0.00  0.00    +0.000 C 
ATOM     15  C   UNL     1       4.788  -0.644   0.514  0.00  0.00    +0.000 C 
ENDBRANCH  11  13
ENDBRANCH   8  11
ENDBRANCH   2   9
BRANCH   3  16
ATOM     16  N   UNL     1      -1.271   2.195   0.002  0.00  0.00    +0.000 N 
ATOM     17  H   UNL     1      -0.269   2.266   0.129  0.00  0.00    +0.000 HD
ATOM     18  H   UNL     1      -1.837   2.988   0.278  0.00  0.00    +0.000 HD
ENDBRANCH   3  16
TORSDOF 4
