REMARK  Name = 130249353
REMARK  4 active torsions:
REMARK  status: ('A' for Active; 'I' for Inactive)
REMARK    1  A    between atoms: N_5  and  C_15
REMARK    2  A    between atoms: C_7  and  C_14
REMARK    3  A    between atoms: C_8  and  C_10
REMARK    4  A    between atoms: C_8  and  C_13
REMARK                            x       y       z     vdW  Elec       q    Type
REMARK                         _______ _______ _______ _____ _____    ______ ____
ROOT
ATOM      1  O   UNL     1       3.071  -1.439   0.177  0.00  0.00    +0.000 OA
ATOM      2  N   UNL     1       2.283   0.754  -0.118  0.00  0.00    +0.000 N 
ATOM      3  N   UNL     1       0.101   1.697  -0.195  0.00  0.00    +0.000 NA
ATOM      4  C   UNL     1       0.877   0.599  -0.058  0.00  0.00    +0.000 A 
ATOM      5  C   UNL     1      -1.828   0.263   0.061  0.00  0.00    +0.000 A 
ATOM      6  C   UNL     1       0.383  -0.680   0.139  0.00  0.00    +0.000 A 
ATOM      7  C   UNL     1       3.252  -0.239  -0.001  0.00  0.00    +0.000 C 
ATOM      8  C   UNL     1      -0.997  -0.843   0.198  0.00  0.00    +0.000 A 
ATOM      9  C   UNL     1      -1.235   1.500  -0.132  0.00  0.00    +0.000 A 
ATOM     10  H   UNL     1       2.592   1.712  -0.265  0.00  0.00    +0.000 HD
ENDROOT
BRANCH   5  13
ATOM     11  O   UNL     1      -3.987   1.084   0.466  0.00  0.00    +0.000 OA
ATOM     12  N   UNL     1      -3.811  -1.109  -0.267  0.00  0.00    +0.000 N 
ATOM     13  C   UNL     1      -3.273   0.127   0.114  0.00  0.00    +0.000 C 
ATOM     14  C   UNL     1      -5.228  -1.392  -0.289  0.00  0.00    +0.000 C 
ATOM     15  H   UNL     1      -3.202  -1.837  -0.625  0.00  0.00    +0.000 HD
ENDBRANCH   5  13
BRANCH   7  16
ATOM     16  C   UNL     1       4.646   0.358  -0.125  0.00  0.00    +0.000 C 
ATOM     17  C   UNL     1       5.744  -0.679   0.030  0.00  0.00    +0.000 C 
ENDBRANCH   7  16
TORSDOF 2
