REMARK  Name = 130219978
REMARK  6 active torsions:
REMARK  status: ('A' for Active; 'I' for Inactive)
REMARK    1  A    between atoms: N_5  and  C_17
REMARK    2  A    between atoms: C_6  and  C_7
REMARK    3  A    between atoms: C_6  and  C_8
REMARK    4  A    between atoms: C_6  and  C_9
REMARK    5  A    between atoms: C_7  and  C_10
REMARK    6  A    between atoms: C_13  and  C_16
REMARK                            x       y       z     vdW  Elec       q    Type
REMARK                         _______ _______ _______ _____ _____    ______ ____
ROOT
ATOM      1  O   UNL     1      -2.327   1.409  -0.365  0.00  0.00    +0.000 OA
ATOM      2  N   UNL     1      -1.525  -0.798  -0.344  0.00  0.00    +0.000 N 
ATOM      3  N   UNL     1       0.655  -1.728  -0.147  0.00  0.00    +0.000 NA
ATOM      4  C   UNL     1      -2.498   0.195  -0.416  0.00  0.00    +0.000 C 
ATOM      5  C   UNL     1      -0.127  -0.627  -0.196  0.00  0.00    +0.000 A 
ATOM      6  C   UNL     1       0.352   0.670  -0.113  0.00  0.00    +0.000 A 
ATOM      7  C   UNL     1       2.562  -0.259   0.086  0.00  0.00    +0.000 A 
ATOM      8  C   UNL     1       1.724   0.849   0.031  0.00  0.00    +0.000 A 
ATOM      9  C   UNL     1       1.983  -1.515  -0.006  0.00  0.00    +0.000 A 
ATOM     10  H   UNL     1      -1.817  -1.770  -0.406  0.00  0.00    +0.000 HD
ENDROOT
BRANCH   7  13
ATOM     11  O   UNL     1       4.682  -1.012   0.746  0.00  0.00    +0.000 OA
ATOM     12  N   UNL     1       4.566   1.080  -0.247  0.00  0.00    +0.000 N 
ATOM     13  C   UNL     1       3.999  -0.107   0.233  0.00  0.00    +0.000 C 
ATOM     14  C   UNL     1       5.981   1.369  -0.195  0.00  0.00    +0.000 C 
ATOM     15  H   UNL     1       3.987   1.757  -0.732  0.00  0.00    +0.000 HD
ENDBRANCH   7  13
BRANCH   4  16
ATOM     16  C   UNL     1      -3.887  -0.423  -0.539  0.00  0.00    +0.000 C 
BRANCH  16  17
ATOM     17  C   UNL     1      -5.008   0.440   0.059  0.00  0.00    +0.000 C 
ATOM     18  C   UNL     1      -6.379  -0.213  -0.137  0.00  0.00    +0.000 C 
ATOM     19  C   UNL     1      -4.755   0.670   1.550  0.00  0.00    +0.000 C 
ENDBRANCH  16  17
ENDBRANCH   4  16
TORSDOF 3
