REMARK  Name = 130251079
REMARK  1 active torsions:
REMARK  status: ('A' for Active; 'I' for Inactive)
REMARK    1  A    between atoms: N_2  and  C_8
REMARK                            x       y       z     vdW  Elec       q    Type
REMARK                         _______ _______ _______ _____ _____    ______ ____
ROOT
ATOM      1  O   UNL     1       1.196   2.595  -0.000  0.00  0.00    +0.000 OA
ATOM      2  N   UNL     1       0.932  -1.415   0.000  0.00  0.00    +0.000 N 
ATOM      3  N   UNL     1      -1.484  -1.317   0.001  0.00  0.00    +0.000 NA
ATOM      4  N   UNL     1       2.275   0.574  -0.000  0.00  0.00    +0.000 NA
ATOM      5  C   UNL     1      -0.278  -0.691   0.001  0.00  0.00    +0.000 A 
ATOM      6  C   UNL     1      -0.193   0.709   0.000  0.00  0.00    +0.000 A 
ATOM      7  C   UNL     1      -1.362   1.472  -0.000  0.00  0.00    +0.000 A 
ATOM      8  C   UNL     1       0.854  -2.865  -0.001  0.00  0.00    +0.000 C 
ATOM      9  C   UNL     1       2.108  -0.709  -0.000  0.00  0.00    +0.000 A 
ATOM     10  C   UNL     1       1.144   1.369   0.000  0.00  0.00    +0.000 A 
ATOM     11  C   UNL     1      -2.592   0.831  -0.001  0.00  0.00    +0.000 A 
ATOM     12  C   UNL     1      -2.600  -0.551  -0.000  0.00  0.00    +0.000 A 
ENDROOT
TORSDOF 0
