REMARK  Name = 130219421
REMARK  5 active torsions:
REMARK  status: ('A' for Active; 'I' for Inactive)
REMARK    1  A    between atoms: C_6  and  C_7
REMARK    2  A    between atoms: C_6  and  C_8
REMARK    3  A    between atoms: C_6  and  C_9
REMARK    4  A    between atoms: C_7  and  C_10
REMARK    5  A    between atoms: C_13  and  C_16
REMARK                            x       y       z     vdW  Elec       q    Type
REMARK                         _______ _______ _______ _____ _____    ______ ____
ROOT
ATOM      1  O   UNL     1      -2.029   1.320  -0.580  0.00  0.00    +0.000 OA
ATOM      2  N   UNL     1      -1.118  -0.815  -0.228  0.00  0.00    +0.000 N 
ATOM      3  N   UNL     1       1.107  -1.598   0.078  0.00  0.00    +0.000 NA
ATOM      4  C   UNL     1      -2.140   0.106  -0.438  0.00  0.00    +0.000 C 
ATOM      5  C   UNL     1       0.270  -0.557  -0.131  0.00  0.00    +0.000 A 
ATOM      6  C   UNL     1       0.686   0.758  -0.258  0.00  0.00    +0.000 A 
ATOM      7  C   UNL     1       2.940  -0.022   0.049  0.00  0.00    +0.000 A 
ATOM      8  C   UNL     1       2.048   1.023  -0.165  0.00  0.00    +0.000 A 
ATOM      9  C   UNL     1       2.424  -1.303   0.162  0.00  0.00    +0.000 A 
ATOM     10  H   UNL     1      -1.362  -1.798  -0.132  0.00  0.00    +0.000 HD
ENDROOT
BRANCH   7  13
ATOM     11  O   UNL     1       5.175  -0.712   0.322  0.00  0.00    +0.000 OA
ATOM     12  N   UNL     1       4.816   1.532   0.020  0.00  0.00    +0.000 N 
ATOM     13  C   UNL     1       4.369   0.219   0.147  0.00  0.00    +0.000 C 
ATOM     14  H   UNL     1       4.228   2.343  -0.129  0.00  0.00    +0.000 HD
ATOM     15  H   UNL     1       5.810   1.729   0.078  0.00  0.00    +0.000 HD
ENDBRANCH   7  13
BRANCH   4  16
ATOM     16  C   UNL     1      -3.497  -0.589  -0.441  0.00  0.00    +0.000 C 
BRANCH  16  17
ATOM     17  C   UNL     1      -4.655   0.302   0.033  0.00  0.00    +0.000 C 
ATOM     18  C   UNL     1      -4.401   0.774   1.466  0.00  0.00    +0.000 C 
ATOM     19  C   UNL     1      -5.993  -0.438  -0.036  0.00  0.00    +0.000 C 
ENDBRANCH  16  17
ENDBRANCH   4  16
TORSDOF 3
