REMARK  Name = 130249255
REMARK  3 active torsions:
REMARK  status: ('A' for Active; 'I' for Inactive)
REMARK    1  A    between atoms: C_6  and  C_8
REMARK    2  A    between atoms: C_6  and  C_12
REMARK    3  A    between atoms: C_10  and  C_14
REMARK                            x       y       z     vdW  Elec       q    Type
REMARK                         _______ _______ _______ _____ _____    ______ ____
ROOT
ATOM      1  O   UNL     1       2.796  -1.364  -0.008  0.00  0.00    +0.000 OA
ATOM      2  N   UNL     1       1.864   0.792  -0.004  0.00  0.00    +0.000 N 
ATOM      3  N   UNL     1      -0.375   1.593   0.004  0.00  0.00    +0.000 NA
ATOM      4  C   UNL     1       0.472   0.539   0.000  0.00  0.00    +0.000 A 
ATOM      5  C   UNL     1       2.896  -0.141  -0.008  0.00  0.00    +0.000 C 
ATOM      6  C   UNL     1       0.063  -0.784  -0.001  0.00  0.00    +0.000 A 
ATOM      7  C   UNL     1      -2.206   0.014   0.005  0.00  0.00    +0.000 A 
ATOM      8  C   UNL     1      -1.303  -1.044   0.002  0.00  0.00    +0.000 A 
ATOM      9  C   UNL     1      -1.696   1.302   0.006  0.00  0.00    +0.000 A 
ATOM     10  H   UNL     1       2.109   1.780  -0.004  0.00  0.00    +0.000 HD
ENDROOT
BRANCH   7  13
ATOM     11  O   UNL     1      -4.453   0.718  -0.009  0.00  0.00    +0.000 OA
ATOM     12  N   UNL     1      -4.079  -1.544   0.000  0.00  0.00    +0.000 N 
ATOM     13  C   UNL     1      -3.639  -0.223   0.005  0.00  0.00    +0.000 C 
ATOM     14  H   UNL     1      -3.484  -2.363   0.006  0.00  0.00    +0.000 HD
ATOM     15  H   UNL     1      -5.076  -1.738  -0.007  0.00  0.00    +0.000 HD
ENDBRANCH   7  13
BRANCH   5  16
ATOM     16  C   UNL     1       4.248   0.557  -0.011  0.00  0.00    +0.000 C 
ATOM     17  C   UNL     1       5.412  -0.417   0.019  0.00  0.00    +0.000 C 
ENDBRANCH   5  16
TORSDOF 2
