REMARK  Name = 130478104
REMARK  3 active torsions:
REMARK  status: ('A' for Active; 'I' for Inactive)
REMARK    1  A    between atoms: N_3  and  C_6
REMARK    2  A    between atoms: C_6  and  C_11
REMARK    3  A    between atoms: C_9  and  C_13
REMARK                            x       y       z     vdW  Elec       q    Type
REMARK                         _______ _______ _______ _____ _____    ______ ____
ROOT
ATOM      1  N   UNL     1       2.207   0.357   0.227  0.00  0.00    +0.000 N 
ATOM      2  N   UNL     1       0.050   1.368   0.173  0.00  0.00    +0.000 NA
ATOM      3  C   UNL     1       0.797   0.241   0.146  0.00  0.00    +0.000 A 
ATOM      4  C   UNL     1       0.270  -1.036   0.043  0.00  0.00    +0.000 A 
ATOM      5  C   UNL     1      -1.914  -0.029  -0.013  0.00  0.00    +0.000 A 
ATOM      6  C   UNL     1      -1.113  -1.165  -0.038  0.00  0.00    +0.000 A 
ATOM      7  C   UNL     1      -1.289   1.203   0.093  0.00  0.00    +0.000 A 
ATOM      8  H   UNL     1       2.579   1.296   0.302  0.00  0.00    +0.000 HD
ENDROOT
BRANCH   5  11
ATOM      9  O   UNL     1      -3.931  -1.235  -0.174  0.00  0.00    +0.000 OA
ATOM     10  N   UNL     1      -4.098   1.050  -0.064  0.00  0.00    +0.000 N 
ATOM     11  C   UNL     1      -3.361  -0.131  -0.095  0.00  0.00    +0.000 C 
ATOM     12  H   UNL     1      -3.712   1.983   0.003  0.00  0.00    +0.000 HD
ATOM     13  H   UNL     1      -5.111   1.007  -0.113  0.00  0.00    +0.000 HD
ENDBRANCH   5  11
BRANCH   1  14
ATOM     14  C   UNL     1       3.074  -0.775   0.206  0.00  0.00    +0.000 C 
BRANCH  14  16
ATOM     15  F   UNL     1       4.789   0.479  -0.783  0.00  0.00    +0.000 F 
ATOM     16  C   UNL     1       4.519  -0.325   0.280  0.00  0.00    +0.000 C 
ENDBRANCH  14  16
ENDBRANCH   1  14
TORSDOF 3
