REMARK  Name = 130504940
REMARK  4 active torsions:
REMARK  status: ('A' for Active; 'I' for Inactive)
REMARK    1  A    between atoms: N_3  and  C_7
REMARK    2  A    between atoms: N_5  and  C_14
REMARK    3  A    between atoms: C_6  and  C_8
REMARK    4  A    between atoms: C_7  and  C_13
REMARK                            x       y       z     vdW  Elec       q    Type
REMARK                         _______ _______ _______ _____ _____    ______ ____
ROOT
ATOM      1  N   UNL     1       1.999   0.878  -0.523  0.00  0.00    +0.000 NA
ATOM      2  N   UNL     1       4.100   0.210   0.380  0.00  0.00    +0.000 N 
ATOM      3  C   UNL     1       0.055  -0.514  -0.167  0.00  0.00    +0.000 A 
ATOM      4  C   UNL     1       0.826  -1.419   0.555  0.00  0.00    +0.000 A 
ATOM      5  C   UNL     1       2.716  -0.023   0.184  0.00  0.00    +0.000 A 
ATOM      6  C   UNL     1       2.183  -1.175   0.739  0.00  0.00    +0.000 A 
ATOM      7  C   UNL     1       0.684   0.609  -0.681  0.00  0.00    +0.000 A 
ATOM      8  C   UNL     1       4.768   1.359  -0.139  0.00  0.00    +0.000 C 
ATOM      9  H   UNL     1       4.659  -0.571   0.706  0.00  0.00    +0.000 HD
ENDROOT
BRANCH   3  12
ATOM     10  O   UNL     1      -1.831  -1.893  -0.361  0.00  0.00    +0.000 OA
ATOM     11  N   UNL     1      -2.168   0.392  -0.568  0.00  0.00    +0.000 N 
ATOM     12  C   UNL     1      -1.364  -0.740  -0.376  0.00  0.00    +0.000 C 
ATOM     13  H   UNL     1      -1.759   1.318  -0.511  0.00  0.00    +0.000 HD
BRANCH  11  14
ATOM     14  C   UNL     1      -3.598   0.333  -0.765  0.00  0.00    +0.000 C 
BRANCH  14  16
ATOM     15  F   UNL     1      -4.026   1.575   1.173  0.00  0.00    +0.000 F 
ATOM     16  C   UNL     1      -4.344   0.408   0.550  0.00  0.00    +0.000 C 
ENDBRANCH  14  16
ENDBRANCH  11  14
ENDBRANCH   3  12
TORSDOF 3
