REMARK  Name = 130504925
REMARK  3 active torsions:
REMARK  status: ('A' for Active; 'I' for Inactive)
REMARK    1  A    between atoms: N_3  and  C_6
REMARK    2  A    between atoms: C_6  and  C_10
REMARK    3  A    between atoms: C_7  and  C_8
REMARK                            x       y       z     vdW  Elec       q    Type
REMARK                         _______ _______ _______ _____ _____    ______ ____
ROOT
ATOM      1  N   UNL     1       2.807   0.941   0.068  0.00  0.00    +0.000 NA
ATOM      2  N   UNL     1       4.445  -0.789   0.043  0.00  0.00    +0.000 N 
ATOM      3  C   UNL     1       0.462   0.359  -0.012  0.00  0.00    +0.000 A 
ATOM      4  C   UNL     1       0.791  -0.992  -0.054  0.00  0.00    +0.000 A 
ATOM      5  C   UNL     1       1.498   1.277   0.048  0.00  0.00    +0.000 A 
ATOM      6  C   UNL     1       2.127  -1.377  -0.036  0.00  0.00    +0.000 A 
ATOM      7  C   UNL     1       3.089  -0.381   0.025  0.00  0.00    +0.000 A 
ATOM      8  H   UNL     1       4.671  -1.696   0.433  0.00  0.00    +0.000 HD
ATOM      9  H   UNL     1       5.144  -0.058   0.093  0.00  0.00    +0.000 HD
ENDROOT
BRANCH   3  12
ATOM     10  O   UNL     1      -1.252   1.883   0.473  0.00  0.00    +0.000 OA
ATOM     11  N   UNL     1      -1.849  -0.056  -0.650  0.00  0.00    +0.000 N 
ATOM     12  C   UNL     1      -0.924   0.793  -0.029  0.00  0.00    +0.000 C 
ATOM     13  H   UNL     1      -1.535  -0.914  -1.091  0.00  0.00    +0.000 HD
BRANCH  11  14
ATOM     14  C   UNL     1      -3.257   0.246  -0.769  0.00  0.00    +0.000 C 
BRANCH  14  16
ATOM     15  F   UNL     1      -3.897  -1.629   0.479  0.00  0.00    +0.000 F 
ATOM     16  C   UNL     1      -4.040  -0.277   0.416  0.00  0.00    +0.000 C 
ENDBRANCH  14  16
ENDBRANCH  11  14
ENDBRANCH   3  12
TORSDOF 3
