REMARK  Name = 130504931
REMARK  4 active torsions:
REMARK  status: ('A' for Active; 'I' for Inactive)
REMARK    1  A    between atoms: N_3  and  C_7
REMARK    2  A    between atoms: N_5  and  C_9
REMARK    3  A    between atoms: C_6  and  C_8
REMARK    4  A    between atoms: C_7  and  C_11
REMARK                            x       y       z     vdW  Elec       q    Type
REMARK                         _______ _______ _______ _____ _____    ______ ____
ROOT
ATOM      1  N   UNL     1      -3.096   0.268   0.274  0.00  0.00    +0.000 NA
ATOM      2  C   UNL     1      -0.727   0.013  -0.134  0.00  0.00    +0.000 A 
ATOM      3  C   UNL     1      -1.849   0.775   0.146  0.00  0.00    +0.000 A 
ATOM      4  C   UNL     1      -0.895  -1.358  -0.294  0.00  0.00    +0.000 A 
ATOM      5  C   UNL     1      -2.162  -1.917  -0.170  0.00  0.00    +0.000 A 
ATOM      6  C   UNL     1      -3.220  -1.068   0.112  0.00  0.00    +0.000 A 
ENDROOT
BRANCH   2   9
ATOM      7  O   UNL     1       0.833   1.461  -1.117  0.00  0.00    +0.000 OA
ATOM      8  N   UNL     1       1.582   0.128   0.626  0.00  0.00    +0.000 N 
ATOM      9  C   UNL     1       0.605   0.588  -0.263  0.00  0.00    +0.000 C 
ATOM     10  H   UNL     1       1.331  -0.585   1.306  0.00  0.00    +0.000 HD
BRANCH   8  11
ATOM     11  C   UNL     1       2.942   0.617   0.640  0.00  0.00    +0.000 C 
BRANCH  11  13
ATOM     12  F   UNL     1       3.841  -1.487   0.144  0.00  0.00    +0.000 F 
ATOM     13  C   UNL     1       3.833  -0.193  -0.277  0.00  0.00    +0.000 C 
ENDBRANCH  11  13
ENDBRANCH   8  11
ENDBRANCH   2   9
BRANCH   3  14
ATOM     14  N   UNL     1      -1.686   2.174   0.313  0.00  0.00    +0.000 N 
ATOM     15  H   UNL     1      -0.810   2.518   0.688  0.00  0.00    +0.000 HD
ATOM     16  H   UNL     1      -2.524   2.705   0.514  0.00  0.00    +0.000 HD
ENDBRANCH   3  14
TORSDOF 4
