REMARK  Name = 130627080
REMARK  3 active torsions:
REMARK  status: ('A' for Active; 'I' for Inactive)
REMARK    1  A    between atoms: N_5  and  C_13
REMARK    2  A    between atoms: C_6  and  C_11
REMARK    3  A    between atoms: C_12  and  C_14
REMARK                            x       y       z     vdW  Elec       q    Type
REMARK                         _______ _______ _______ _____ _____    ______ ____
ROOT
ATOM      1  O   UNL     1       3.652   1.398  -0.228  0.00  0.00    +0.000 OA
ATOM      2  N   UNL     1       2.653  -0.718   0.051  0.00  0.00    +0.000 N 
ATOM      3  N   UNL     1       0.886   0.849  -0.072  0.00  0.00    +0.000 NA
ATOM      4  C   UNL     1      -1.398   0.075   0.093  0.00  0.00    +0.000 A 
ATOM      5  C   UNL     1       1.282  -0.436   0.065  0.00  0.00    +0.000 A 
ATOM      6  C   UNL     1      -0.952  -1.234   0.231  0.00  0.00    +0.000 A 
ATOM      7  C   UNL     1       0.412  -1.504   0.218  0.00  0.00    +0.000 A 
ATOM      8  C   UNL     1      -0.447   1.072  -0.054  0.00  0.00    +0.000 A 
ATOM      9  C   UNL     1       3.715   0.181  -0.089  0.00  0.00    +0.000 C 
ATOM     10  C   UNL     1       5.048  -0.523  -0.048  0.00  0.00    +0.000 C 
ATOM     11  H   UNL     1       2.899  -1.700   0.157  0.00  0.00    +0.000 HD
ENDROOT
BRANCH   4  14
ATOM     12  O   UNL     1      -3.213   1.516   0.451  0.00  0.00    +0.000 OA
ATOM     13  N   UNL     1      -3.694  -0.616  -0.324  0.00  0.00    +0.000 N 
ATOM     14  C   UNL     1      -2.816   0.390   0.101  0.00  0.00    +0.000 C 
ATOM     15  C   UNL     1      -5.128  -0.449  -0.395  0.00  0.00    +0.000 C 
ATOM     16  H   UNL     1      -3.326  -1.492  -0.679  0.00  0.00    +0.000 HD
ENDBRANCH   4  14
TORSDOF 1
