REMARK  Name = 13071204
REMARK  2 active torsions:
REMARK  status: ('A' for Active; 'I' for Inactive)
REMARK    1  A    between atoms: N_2  and  C_10
REMARK    2  A    between atoms: C_6  and  C_11
REMARK                            x       y       z     vdW  Elec       q    Type
REMARK                         _______ _______ _______ _____ _____    ______ ____
ROOT
ATOM      1  N   UNL     1      -1.293   0.759  -0.001  0.00  0.00    +0.000 N 
ATOM      2  N   UNL     1      -3.239  -0.624  -0.002  0.00  0.00    +0.000 N 
ATOM      3  C   UNL     1      -1.838  -0.465  -0.000  0.00  0.00    +0.000 A 
ATOM      4  C   UNL     1       0.895  -0.133   0.003  0.00  0.00    +0.000 A 
ATOM      5  C   UNL     1       0.033   0.954   0.000  0.00  0.00    +0.000 A 
ATOM      6  C   UNL     1      -1.024  -1.589   0.003  0.00  0.00    +0.000 A 
ATOM      7  C   UNL     1       0.357  -1.416   0.004  0.00  0.00    +0.000 A 
ATOM      8  C   UNL     1      -2.155   1.942  -0.004  0.00  0.00    +0.000 C 
ATOM      9  H   UNL     1      -3.849   0.181   0.002  0.00  0.00    +0.000 HD
ATOM     10  H   UNL     1      -3.619  -1.499  -0.342  0.00  0.00    +0.000 HD
ENDROOT
BRANCH   4  13
ATOM     11  O   UNL     1       3.141  -0.873  -0.013  0.00  0.00    +0.000 OA
ATOM     12  N   UNL     1       2.788   1.379   0.004  0.00  0.00    +0.000 N 
ATOM     13  C   UNL     1       2.334   0.067   0.005  0.00  0.00    +0.000 C 
ATOM     14  H   UNL     1       2.210   2.209   0.013  0.00  0.00    +0.000 HD
ATOM     15  H   UNL     1       3.787   1.558  -0.004  0.00  0.00    +0.000 HD
ENDBRANCH   4  13
TORSDOF 1
