REMARK  Name = 130769412
REMARK  1 active torsions:
REMARK  status: ('A' for Active; 'I' for Inactive)
REMARK    1  A    between atoms: C_5  and  C_10
REMARK                            x       y       z     vdW  Elec       q    Type
REMARK                         _______ _______ _______ _____ _____    ______ ____
ROOT
ATOM      1  F   UNL     1      -0.761  -2.400   0.000  0.00  0.00    +0.000 F 
ATOM      2  N   UNL     1      -0.903   1.733  -0.000  0.00  0.00    +0.000 NA
ATOM      3  N   UNL     1       1.465   1.829   0.000  0.00  0.00    +0.000 N 
ATOM      4  C   UNL     1       0.377  -0.317   0.000  0.00  0.00    +0.000 A 
ATOM      5  C   UNL     1       0.271   1.064   0.000  0.00  0.00    +0.000 A 
ATOM      6  C   UNL     1      -0.798  -1.060   0.000  0.00  0.00    +0.000 A 
ATOM      7  C   UNL     1      -2.027  -0.408   0.000  0.00  0.00    +0.000 A 
ATOM      8  C   UNL     1      -2.025   0.978  -0.000  0.00  0.00    +0.000 A 
ATOM      9  H   UNL     1       2.274   1.461   0.486  0.00  0.00    +0.000 HD
ATOM     10  H   UNL     1       1.351   2.835  -0.012  0.00  0.00    +0.000 HD
ENDROOT
BRANCH   4  12
ATOM     11  O   UNL     1       2.741  -0.413  -0.000  0.00  0.00    +0.000 OA
ATOM     12  C   UNL     1       1.660  -1.006   0.000  0.00  0.00    +0.000 C 
ENDBRANCH   4  12
TORSDOF 1
