REMARK  Name = 130967266
REMARK  1 active torsions:
REMARK  status: ('A' for Active; 'I' for Inactive)
REMARK    1  A    between atoms: C_6  and  C_11
REMARK                            x       y       z     vdW  Elec       q    Type
REMARK                         _______ _______ _______ _____ _____    ______ ____
ROOT
ATOM      1  F   UNL     1      -0.726  -2.112  -0.002  0.00  0.00    +0.000 F 
ATOM      2  N   UNL     1       1.555   1.337   0.002  0.00  0.00    +0.000 NA
ATOM      3  N   UNL     1       3.530   0.005  -0.003  0.00  0.00    +0.000 N 
ATOM      4  C   UNL     1      -0.608   0.257   0.003  0.00  0.00    +0.000 A 
ATOM      5  C   UNL     1       0.007  -0.990  -0.000  0.00  0.00    +0.000 A 
ATOM      6  C   UNL     1       1.395  -1.075  -0.002  0.00  0.00    +0.000 A 
ATOM      7  C   UNL     1       2.117   0.108  -0.001  0.00  0.00    +0.000 A 
ATOM      8  C   UNL     1       0.204   1.380   0.004  0.00  0.00    +0.000 A 
ATOM      9  H   UNL     1       3.954  -0.815   0.414  0.00  0.00    +0.000 HD
ATOM     10  H   UNL     1       4.054   0.871   0.005  0.00  0.00    +0.000 HD
ENDROOT
BRANCH   4  13
ATOM     11  O   UNL     1      -2.611   1.496  -0.010  0.00  0.00    +0.000 OA
ATOM     12  N   UNL     1      -2.808  -0.789   0.003  0.00  0.00    +0.000 N 
ATOM     13  C   UNL     1      -2.055   0.383   0.004  0.00  0.00    +0.000 C 
ATOM     14  H   UNL     1      -2.410  -1.721   0.009  0.00  0.00    +0.000 HD
ATOM     15  H   UNL     1      -3.822  -0.741  -0.002  0.00  0.00    +0.000 HD
ENDBRANCH   4  13
TORSDOF 1
