REMARK  Name = 131012848
REMARK  2 active torsions:
REMARK  status: ('A' for Active; 'I' for Inactive)
REMARK    1  A    between atoms: N_4  and  C_9
REMARK    2  A    between atoms: C_6  and  C_11
REMARK                            x       y       z     vdW  Elec       q    Type
REMARK                         _______ _______ _______ _____ _____    ______ ____
ROOT
ATOM      1  F   UNL     1       2.209   1.845   0.003  0.00  0.00    +0.000 F 
ATOM      2  N   UNL     1       0.983  -1.576  -0.002  0.00  0.00    +0.000 NA
ATOM      3  C   UNL     1      -0.890  -0.047   0.003  0.00  0.00    +0.000 A 
ATOM      4  C   UNL     1      -0.017   1.034   0.004  0.00  0.00    +0.000 A 
ATOM      5  C   UNL     1       1.356   0.813   0.002  0.00  0.00    +0.000 A 
ATOM      6  C   UNL     1       1.801  -0.499  -0.001  0.00  0.00    +0.000 A 
ATOM      7  C   UNL     1      -0.345  -1.321   0.000  0.00  0.00    +0.000 A 
ENDROOT
BRANCH   3  10
ATOM      8  O   UNL     1      -2.828   1.292  -0.011  0.00  0.00    +0.000 OA
ATOM      9  N   UNL     1      -3.141  -0.980   0.003  0.00  0.00    +0.000 N 
ATOM     10  C   UNL     1      -2.329   0.152   0.004  0.00  0.00    +0.000 C 
ATOM     11  H   UNL     1      -2.816  -1.938   0.010  0.00  0.00    +0.000 HD
ATOM     12  H   UNL     1      -4.150  -0.869  -0.003  0.00  0.00    +0.000 HD
ENDBRANCH   3  10
BRANCH   6  13
ATOM     13  N   UNL     1       3.202  -0.712  -0.004  0.00  0.00    +0.000 N 
ATOM     14  H   UNL     1       3.795  -0.002  -0.415  0.00  0.00    +0.000 HD
ATOM     15  H   UNL     1       3.522  -1.673  -0.014  0.00  0.00    +0.000 HD
ENDBRANCH   6  13
TORSDOF 2
