REMARK  Name = 131028927
REMARK  1 active torsions:
REMARK  status: ('A' for Active; 'I' for Inactive)
REMARK    1  A    between atoms: C_6  and  C_10
REMARK                            x       y       z     vdW  Elec       q    Type
REMARK                         _______ _______ _______ _____ _____    ______ ____
ROOT
ATOM      1  F   UNL     1       0.258  -2.370  -0.022  0.00  0.00    +0.000 F 
ATOM      2  N   UNL     1      -1.862   1.181   0.015  0.00  0.00    +0.000 NA
ATOM      3  N   UNL     1       0.167   2.408  -0.016  0.00  0.00    +0.000 N 
ATOM      4  C   UNL     1       0.249   0.003  -0.019  0.00  0.00    +0.000 A 
ATOM      5  C   UNL     1      -0.510   1.162  -0.006  0.00  0.00    +0.000 A 
ATOM      6  C   UNL     1      -0.422  -1.215  -0.010  0.00  0.00    +0.000 A 
ATOM      7  C   UNL     1      -1.812  -1.236   0.013  0.00  0.00    +0.000 A 
ATOM      8  C   UNL     1      -2.479  -0.022   0.025  0.00  0.00    +0.000 A 
ATOM      9  H   UNL     1       1.075   2.469   0.426  0.00  0.00    +0.000 HD
ATOM     10  H   UNL     1      -0.414   3.237  -0.011  0.00  0.00    +0.000 HD
ENDROOT
BRANCH   4  13
ATOM     11  O   UNL     1       2.334   0.044  -1.115  0.00  0.00    +0.000 OA
ATOM     12  N   UNL     1       2.371   0.025   1.178  0.00  0.00    +0.000 N 
ATOM     13  C   UNL     1       1.706   0.019  -0.043  0.00  0.00    +0.000 C 
ATOM     14  H   UNL     1       1.874   0.014   2.063  0.00  0.00    +0.000 HD
ATOM     15  H   UNL     1       3.384   0.043   1.220  0.00  0.00    +0.000 HD
ENDBRANCH   4  13
TORSDOF 1
