REMARK  Name = 13131590
REMARK  9 active torsions:
REMARK  status: ('A' for Active; 'I' for Inactive)
REMARK    1  A    between atoms: SI_1  and  N_4
REMARK    2  A    between atoms: SI_1  and  C_7
REMARK    3  A    between atoms: SI_1  and  C_8
REMARK    4  A    between atoms: SI_1  and  C_9
REMARK    5  A    between atoms: SI_2  and  N_5
REMARK    6  A    between atoms: SI_2  and  C_10
REMARK    7  A    between atoms: SI_2  and  C_11
REMARK    8  A    between atoms: SI_2  and  C_12
REMARK    9  A    between atoms: C_14  and  C_15
REMARK                            x       y       z     vdW  Elec       q    Type
REMARK                         _______ _______ _______ _____ _____    ______ ____
ROOT
ATOM      1  N   UNL     1      -3.331   0.824  -0.126  0.00  0.00    +0.000 N 
ATOM      2  N   UNL     1      -1.046   1.446  -0.393  0.00  0.00    +0.000 NA
ATOM      3  C   UNL     1      -1.957   0.478  -0.142  0.00  0.00    +0.000 A 
ATOM      4  C   UNL     1       0.644  -0.226  -0.161  0.00  0.00    +0.000 A 
ATOM      5  C   UNL     1      -1.633  -0.846   0.104  0.00  0.00    +0.000 A 
ATOM      6  C   UNL     1      -0.289  -1.201   0.093  0.00  0.00    +0.000 A 
ATOM      7  C   UNL     1       0.251   1.063  -0.397  0.00  0.00    +0.000 A 
ATOM      8  H   UNL     1      -3.425   1.820  -0.321  0.00  0.00    +0.000 HD
ENDROOT
BRANCH   1   9
ATOM      9 SI   UNL     1      -4.796   0.020   0.129  0.00  0.00    +0.000 Si
ATOM     10  C   UNL     1      -6.159   1.284  -0.043  0.00  0.00    +0.000 C 
ATOM     11  C   UNL     1      -4.987  -1.304  -1.163  0.00  0.00    +0.000 C 
ATOM     12  C   UNL     1      -4.798  -0.693   1.846  0.00  0.00    +0.000 C 
ENDBRANCH   1   9
BRANCH   4  15
ATOM     13  O   UNL     1       2.409  -1.728  -0.456  0.00  0.00    +0.000 OA
ATOM     14  N   UNL     1       2.948   0.465   0.136  0.00  0.00    +0.000 N 
ATOM     15  C   UNL     1       2.089  -0.574  -0.182  0.00  0.00    +0.000 C 
ATOM     16  H   UNL     1       2.615   1.379   0.423  0.00  0.00    +0.000 HD
BRANCH  14  17
ATOM     17 SI   UNL     1       4.702   0.285   0.175  0.00  0.00    +0.000 Si
ATOM     18  C   UNL     1       5.460   1.931   0.650  0.00  0.00    +0.000 C 
ATOM     19  C   UNL     1       5.174  -1.005   1.444  0.00  0.00    +0.000 C 
ATOM     20  C   UNL     1       5.321  -0.219  -1.515  0.00  0.00    +0.000 C 
ENDBRANCH  14  17
ENDBRANCH   4  15
TORSDOF 3
