REMARK  Name = 131967585
REMARK  3 active torsions:
REMARK  status: ('A' for Active; 'I' for Inactive)
REMARK    1  A    between atoms: N_3  and  C_12
REMARK    2  A    between atoms: C_5  and  C_8
REMARK    3  A    between atoms: C_6  and  C_9
REMARK                            x       y       z     vdW  Elec       q    Type
REMARK                         _______ _______ _______ _____ _____    ______ ____
ROOT
ATOM      1  N   UNL     1       1.712  -1.438  -0.224  0.00  0.00    +0.000 NA
ATOM      2  N   UNL     1       3.842  -0.445   0.166  0.00  0.00    +0.000 N 
ATOM      3  C   UNL     1       0.503   1.057   0.132  0.00  0.00    +0.000 A 
ATOM      4  C   UNL     1      -0.273  -0.060  -0.152  0.00  0.00    +0.000 A 
ATOM      5  C   UNL     1       1.884   0.928   0.239  0.00  0.00    +0.000 A 
ATOM      6  C   UNL     1      -0.118   2.401   0.327  0.00  0.00    +0.000 C 
ATOM      7  C   UNL     1       0.373  -1.274  -0.320  0.00  0.00    +0.000 A 
ATOM      8  C   UNL     1       2.434  -0.330   0.054  0.00  0.00    +0.000 A 
ATOM      9  H   UNL     1       4.411   0.363  -0.057  0.00  0.00    +0.000 HD
ATOM     10  H   UNL     1       4.240  -1.365   0.024  0.00  0.00    +0.000 HD
ENDROOT
BRANCH   4  13
ATOM     11  O   UNL     1      -2.243   0.728  -1.150  0.00  0.00    +0.000 OA
ATOM     12  N   UNL     1      -2.475  -0.765   0.609  0.00  0.00    +0.000 N 
ATOM     13  C   UNL     1      -1.721   0.014  -0.276  0.00  0.00    +0.000 C 
ATOM     14  C   UNL     1      -3.919  -0.817   0.595  0.00  0.00    +0.000 C 
ATOM     15  H   UNL     1      -1.992  -1.308   1.319  0.00  0.00    +0.000 HD
ENDBRANCH   4  13
TORSDOF 1
