REMARK  Name = 132219781
REMARK  3 active torsions:
REMARK  status: ('A' for Active; 'I' for Inactive)
REMARK    1  A    between atoms: N_2  and  C_6
REMARK    2  A    between atoms: N_3  and  C_7
REMARK    3  A    between atoms: C_12  and  C_13
REMARK                            x       y       z     vdW  Elec       q    Type
REMARK                         _______ _______ _______ _____ _____    ______ ____
ROOT
ATOM      1  O   UNL     1      -0.347  -2.368   0.391  0.00  0.00    +0.000 OA
ATOM      2  N   UNL     1       0.703  -0.301   0.451  0.00  0.00    +0.000 N 
ATOM      3  C   UNL     1      -0.395  -1.141   0.354  0.00  0.00    +0.000 C 
ATOM      4  H   UNL     1       0.591   0.696   0.305  0.00  0.00    +0.000 HD
ENDROOT
BRANCH   3   7
ATOM      5  N   UNL     1      -3.971  -0.561  -0.677  0.00  0.00    +0.000 NA
ATOM      6  N   UNL     1      -5.402   1.322  -0.396  0.00  0.00    +0.000 N 
ATOM      7  C   UNL     1      -1.707  -0.470   0.168  0.00  0.00    +0.000 A 
ATOM      8  C   UNL     1      -1.925   0.822   0.633  0.00  0.00    +0.000 A 
ATOM      9  C   UNL     1      -2.753  -1.113  -0.475  0.00  0.00    +0.000 A 
ATOM     10  C   UNL     1      -3.164   1.423   0.444  0.00  0.00    +0.000 A 
ATOM     11  C   UNL     1      -4.145   0.696  -0.211  0.00  0.00    +0.000 A 
ATOM     12  H   UNL     1      -5.694   2.025   0.272  0.00  0.00    +0.000 HD
ATOM     13  H   UNL     1      -6.118   0.785  -0.870  0.00  0.00    +0.000 HD
ENDBRANCH   3   7
BRANCH   2  14
ATOM     14  C   UNL     1       2.050  -0.803   0.610  0.00  0.00    +0.000 C 
ATOM     15  C   UNL     1       3.909   1.164  -0.675  0.00  0.00    +0.000 C 
ATOM     16  C   UNL     1       2.899   0.161   1.446  0.00  0.00    +0.000 C 
ATOM     17  C   UNL     1       2.695  -1.083  -0.752  0.00  0.00    +0.000 C 
ATOM     18  C   UNL     1       3.253   1.441   0.683  0.00  0.00    +0.000 C 
ATOM     19  C   UNL     1       3.050   0.202  -1.506  0.00  0.00    +0.000 C 
BRANCH  15  20
ATOM     20  N   UNL     1       5.251   0.609  -0.486  0.00  0.00    +0.000 NA
ATOM     21  H   UNL     1       5.697   0.474  -1.393  0.00  0.00    +0.000 HD
ATOM     22  H   UNL     1       5.829   1.277   0.023  0.00  0.00    +0.000 HD
ENDBRANCH  15  20
ENDBRANCH   2  14
TORSDOF 3
