REMARK  Name = 132243552
REMARK  5 active torsions:
REMARK  status: ('A' for Active; 'I' for Inactive)
REMARK    1  A    between atoms: N_5  and  C_16
REMARK    2  A    between atoms: C_6  and  C_7
REMARK    3  A    between atoms: C_6  and  C_8
REMARK    4  A    between atoms: C_6  and  C_9
REMARK    5  A    between atoms: C_12  and  C_15
REMARK                            x       y       z     vdW  Elec       q    Type
REMARK                         _______ _______ _______ _____ _____    ______ ____
ROOT
ATOM      1  O   UNL     1      -2.714  -1.529  -0.291  0.00  0.00    +0.000 OA
ATOM      2  N   UNL     1      -1.981   0.634   0.247  0.00  0.00    +0.000 N 
ATOM      3  N   UNL     1       0.179   1.617   0.412  0.00  0.00    +0.000 NA
ATOM      4  C   UNL     1      -2.928  -0.362   0.026  0.00  0.00    +0.000 C 
ATOM      5  C   UNL     1      -0.573   0.522   0.157  0.00  0.00    +0.000 A 
ATOM      6  C   UNL     1      -0.051  -0.714  -0.190  0.00  0.00    +0.000 A 
ATOM      7  C   UNL     1       2.138   0.270  -0.024  0.00  0.00    +0.000 A 
ATOM      8  C   UNL     1       1.332  -0.834  -0.280  0.00  0.00    +0.000 A 
ATOM      9  C   UNL     1       1.518   1.461   0.315  0.00  0.00    +0.000 A 
ATOM     10  H   UNL     1      -2.307   1.563   0.499  0.00  0.00    +0.000 HD
ENDROOT
BRANCH   7  13
ATOM     11  O   UNL     1       4.272   1.185  -0.352  0.00  0.00    +0.000 OA
ATOM     12  N   UNL     1       4.157  -1.081   0.125  0.00  0.00    +0.000 N 
ATOM     13  C   UNL     1       3.586   0.177  -0.106  0.00  0.00    +0.000 C 
ATOM     14  C   UNL     1       5.581  -1.329   0.102  0.00  0.00    +0.000 C 
ATOM     15  H   UNL     1       3.570  -1.860   0.403  0.00  0.00    +0.000 HD
ENDBRANCH   7  13
BRANCH   4  16
ATOM     16  C   UNL     1      -4.352   0.168   0.218  0.00  0.00    +0.000 C 
ATOM     17  C   UNL     1      -5.284  -0.926   0.735  0.00  0.00    +0.000 C 
ATOM     18  C   UNL     1      -4.881   0.740  -1.097  0.00  0.00    +0.000 C 
ENDBRANCH   4  16
TORSDOF 2
