REMARK  Name = 132456165
REMARK  11 active torsions:
REMARK  status: ('A' for Active; 'I' for Inactive)
REMARK    1  A    between atoms: N_2  and  C_7
REMARK    2  A    between atoms: N_3  and  C_13
REMARK    3  A    between atoms: N_3  and  C_14
REMARK    4  A    between atoms: C_5  and  C_6
REMARK    5  A    between atoms: C_5  and  C_7
REMARK    6  A    between atoms: C_6  and  C_9
REMARK    7  A    between atoms: C_6  and  C_10
REMARK    8  A    between atoms: C_7  and  C_8
REMARK    9  A    between atoms: C_11  and  C_12
REMARK   10  A    between atoms: C_13  and  C_16
REMARK   11  A    between atoms: C_13  and  C_17
REMARK                            x       y       z     vdW  Elec       q    Type
REMARK                         _______ _______ _______ _____ _____    ______ ____
ROOT
ATOM      1  N   UNL     1       2.939  -0.988   0.227  0.00  0.00    +0.000 NA
ATOM      2  C   UNL     1       1.565   0.960  -0.177  0.00  0.00    +0.000 A 
ATOM      3  C   UNL     1       1.758  -0.409  -0.086  0.00  0.00    +0.000 A 
ATOM      4  C   UNL     1       2.654   1.789   0.069  0.00  0.00    +0.000 A 
ATOM      5  C   UNL     1       3.885   1.231   0.394  0.00  0.00    +0.000 A 
ATOM      6  C   UNL     1       3.975  -0.150   0.460  0.00  0.00    +0.000 A 
ENDROOT
BRANCH   2   9
ATOM      7  O   UNL     1       0.157   2.257  -1.531  0.00  0.00    +0.000 OA
ATOM      8  N   UNL     1      -0.793   1.275   0.342  0.00  0.00    +0.000 N 
ATOM      9  C   UNL     1       0.253   1.566  -0.520  0.00  0.00    +0.000 C 
ATOM     10  H   UNL     1      -0.606   0.734   1.182  0.00  0.00    +0.000 HD
BRANCH   8  11
ATOM     11  C   UNL     1      -2.133   1.769   0.130  0.00  0.00    +0.000 C 
ATOM     12  C   UNL     1      -2.276   3.152   0.761  0.00  0.00    +0.000 C 
BRANCH  11  13
ATOM     13  C   UNL     1      -3.184   0.802   0.700  0.00  0.00    +0.000 C 
BRANCH  13  14
ATOM     14  C   UNL     1      -3.091  -0.646   0.176  0.00  0.00    +0.000 C 
ATOM     15  C   UNL     1      -3.260  -0.732  -1.341  0.00  0.00    +0.000 C 
ATOM     16  C   UNL     1      -4.152  -1.512   0.862  0.00  0.00    +0.000 C 
ENDBRANCH  13  14
ENDBRANCH  11  13
ENDBRANCH   8  11
ENDBRANCH   2   9
BRANCH   3  17
ATOM     17  N   UNL     1       0.651  -1.260  -0.333  0.00  0.00    +0.000 N 
ATOM     18  H   UNL     1      -0.133  -0.852  -0.830  0.00  0.00    +0.000 HD
BRANCH  17  19
ATOM     19  C   UNL     1       0.744  -2.682  -0.264  0.00  0.00    +0.000 C 
ATOM     20  C   UNL     1      -0.399  -3.298  -1.061  0.00  0.00    +0.000 C 
ATOM     21  C   UNL     1       0.707  -3.125   1.192  0.00  0.00    +0.000 C 
ENDBRANCH  17  19
ENDBRANCH   3  17
TORSDOF 6
