REMARK  Name = 132457727
REMARK  9 active torsions:
REMARK  status: ('A' for Active; 'I' for Inactive)
REMARK    1  A    between atoms: N_2  and  C_5
REMARK    2  A    between atoms: N_3  and  C_12
REMARK    3  A    between atoms: C_5  and  C_6
REMARK    4  A    between atoms: C_5  and  C_7
REMARK    5  A    between atoms: C_5  and  C_8
REMARK    6  A    between atoms: C_6  and  C_9
REMARK    7  A    between atoms: C_10  and  C_11
REMARK    8  A    between atoms: C_12  and  C_17
REMARK    9  A    between atoms: C_12  and  C_18
REMARK                            x       y       z     vdW  Elec       q    Type
REMARK                         _______ _______ _______ _____ _____    ______ ____
ROOT
ATOM      1  N   UNL     1       3.934  -0.464   0.248  0.00  0.00    +0.000 N 
ATOM      2  N   UNL     1       1.875   0.706  -0.019  0.00  0.00    +0.000 NA
ATOM      3  C   UNL     1      -0.174  -0.544  -0.305  0.00  0.00    +0.000 A 
ATOM      4  C   UNL     1       2.530  -0.474   0.059  0.00  0.00    +0.000 A 
ATOM      5  C   UNL     1       0.534  -1.738  -0.220  0.00  0.00    +0.000 A 
ATOM      6  C   UNL     1       0.537   0.640  -0.200  0.00  0.00    +0.000 A 
ATOM      7  C   UNL     1       1.912  -1.711  -0.035  0.00  0.00    +0.000 A 
ATOM      8  H   UNL     1       4.424  -1.310  -0.027  0.00  0.00    +0.000 HD
ENDROOT
BRANCH   3  11
ATOM      9  O   UNL     1      -2.181  -1.497  -1.055  0.00  0.00    +0.000 OA
ATOM     10  N   UNL     1      -2.310   0.569  -0.012  0.00  0.00    +0.000 N 
ATOM     11  C   UNL     1      -1.646  -0.539  -0.503  0.00  0.00    +0.000 C 
ATOM     12  H   UNL     1      -1.803   1.283   0.501  0.00  0.00    +0.000 HD
BRANCH  10  13
ATOM     13  C   UNL     1      -3.753   0.711  -0.106  0.00  0.00    +0.000 C 
ATOM     14  C   UNL     1      -4.149   2.050   0.535  0.00  0.00    +0.000 C 
ATOM     15  C   UNL     1      -4.165   0.726  -1.584  0.00  0.00    +0.000 C 
BRANCH  13  16
ATOM     16  C   UNL     1      -4.450  -0.435   0.666  0.00  0.00    +0.000 C 
ATOM     17  C   UNL     1      -4.096  -0.525   2.146  0.00  0.00    +0.000 C 
ENDBRANCH  13  16
ENDBRANCH  10  13
ENDBRANCH   3  11
BRANCH   1  18
ATOM     18  C   UNL     1       4.687   0.743   0.359  0.00  0.00    +0.000 C 
ATOM     19  C   UNL     1       6.010   0.455   1.056  0.00  0.00    +0.000 C 
ATOM     20  C   UNL     1       4.907   1.327  -1.030  0.00  0.00    +0.000 C 
ENDBRANCH   1  18
TORSDOF 4
