REMARK  Name = 13346795
REMARK  0 active torsions:
REMARK  status: ('A' for Active; 'I' for Inactive)
REMARK                            x       y       z     vdW  Elec       q    Type
REMARK                         _______ _______ _______ _____ _____    ______ ____
ROOT
ATOM      1  O   UNL     1      -1.491   2.364   0.001  0.00  0.00    +0.000 OA
ATOM      2  N   UNL     1      -2.054   0.087  -0.000  0.00  0.00    +0.000 NA
ATOM      3  N   UNL     1       2.538   0.593   0.000  0.00  0.00    +0.000 NA
ATOM      4  N   UNL     1      -1.782  -2.289   0.000  0.00  0.00    +0.000 N 
ATOM      5  C   UNL     1       0.098  -0.689  -0.000  0.00  0.00    +0.000 A 
ATOM      6  C   UNL     1       0.172   0.686  -0.001  0.00  0.00    +0.000 A 
ATOM      7  C   UNL     1      -1.330  -1.002  -0.000  0.00  0.00    +0.000 C 
ATOM      8  C   UNL     1      -1.198   1.180  -0.000  0.00  0.00    +0.000 C 
ATOM      9  C   UNL     1       1.228  -1.471   0.000  0.00  0.00    +0.000 A 
ATOM     10  C   UNL     1       1.391   1.310  -0.000  0.00  0.00    +0.000 A 
ATOM     11  C   UNL     1       2.426  -0.769   0.000  0.00  0.00    +0.000 A 
ATOM     12  H   UNL     1      -1.152  -3.084   0.001  0.00  0.00    +0.000 HD
ATOM     13  H   UNL     1      -2.776  -2.492   0.001  0.00  0.00    +0.000 HD
ENDROOT
TORSDOF 0
