REMARK  Name = 13425159
REMARK  4 active torsions:
REMARK  status: ('A' for Active; 'I' for Inactive)
REMARK    1  A    between atoms: N_2  and  C_6
REMARK    2  A    between atoms: N_2  and  C_11
REMARK    3  A    between atoms: N_4  and  C_12
REMARK    4  A    between atoms: C_5  and  C_8
REMARK                            x       y       z     vdW  Elec       q    Type
REMARK                         _______ _______ _______ _____ _____    ______ ____
ROOT
ATOM      1  N   UNL     1       2.251   0.091   0.108  0.00  0.00    +0.000 NA
ATOM      2  C   UNL     1      -0.144   0.351  -0.098  0.00  0.00    +0.000 A 
ATOM      3  C   UNL     1       1.001  -0.419   0.031  0.00  0.00    +0.000 A 
ATOM      4  C   UNL     1       0.004   1.732  -0.152  0.00  0.00    +0.000 A 
ATOM      5  C   UNL     1       1.273   2.294  -0.076  0.00  0.00    +0.000 A 
ATOM      6  C   UNL     1       2.355   1.437   0.052  0.00  0.00    +0.000 A 
ENDROOT
BRANCH   2   9
ATOM      7  O   UNL     1      -1.644  -1.362  -0.658  0.00  0.00    +0.000 OA
ATOM      8  N   UNL     1      -2.533   0.540   0.327  0.00  0.00    +0.000 N 
ATOM      9  C   UNL     1      -1.478  -0.228  -0.178  0.00  0.00    +0.000 C 
ATOM     10  C   UNL     1      -3.908   0.095   0.341  0.00  0.00    +0.000 C 
ATOM     11  H   UNL     1      -2.341   1.424   0.787  0.00  0.00    +0.000 HD
ENDBRANCH   2   9
BRANCH   3  12
ATOM     12  N   UNL     1       0.859  -1.828   0.085  0.00  0.00    +0.000 N 
ATOM     13  C   UNL     1       1.964  -2.704   0.218  0.00  0.00    +0.000 C 
ATOM     14  H   UNL     1      -0.052  -2.188   0.349  0.00  0.00    +0.000 HD
ENDBRANCH   3  12
TORSDOF 2
