REMARK  Name = 134591810
REMARK  4 active torsions:
REMARK  status: ('A' for Active; 'I' for Inactive)
REMARK    1  A    between atoms: S_2  and  C_14
REMARK    2  A    between atoms: N_5  and  C_10
REMARK    3  A    between atoms: C_7  and  C_12
REMARK    4  A    between atoms: C_9  and  C_13
REMARK                            x       y       z     vdW  Elec       q    Type
REMARK                         _______ _______ _______ _____ _____    ______ ____
ROOT
ATOM      1  N   UNL     1      -1.193   2.088  -0.213  0.00  0.00    +0.000 NA
ATOM      2  C   UNL     1      -1.905  -0.215  -0.027  0.00  0.00    +0.000 A 
ATOM      3  C   UNL     1      -0.588  -0.614   0.173  0.00  0.00    +0.000 A 
ATOM      4  C   UNL     1       0.427   0.337   0.180  0.00  0.00    +0.000 A 
ATOM      5  C   UNL     1       0.075   1.663  -0.016  0.00  0.00    +0.000 A 
ATOM      6  C   UNL     1      -2.153   1.135  -0.213  0.00  0.00    +0.000 A 
ENDROOT
BRANCH   2   9
ATOM      7  O   UNL     1      -2.777  -2.397   0.143  0.00  0.00    +0.000 OA
ATOM      8  N   UNL     1      -4.280  -0.710  -0.246  0.00  0.00    +0.000 N 
ATOM      9  C   UNL     1      -2.987  -1.184  -0.040  0.00  0.00    +0.000 C 
ATOM     10  H   UNL     1      -4.536   0.258  -0.397  0.00  0.00    +0.000 HD
ATOM     11  H   UNL     1      -5.057  -1.364  -0.253  0.00  0.00    +0.000 HD
ENDBRANCH   2   9
BRANCH   5  12
ATOM     12  N   UNL     1       1.099   2.644  -0.015  0.00  0.00    +0.000 N 
ATOM     13  H   UNL     1       1.911   2.497   0.570  0.00  0.00    +0.000 HD
ATOM     14  H   UNL     1       0.803   3.601  -0.171  0.00  0.00    +0.000 HD
ENDBRANCH   5  12
BRANCH   4  15
ATOM     15  C   UNL     1       1.780  -0.080   0.383  0.00  0.00    +0.000 C 
ATOM     16  C   UNL     1       2.916  -0.430   0.552  0.00  0.00    +0.000 C 
BRANCH  16  18
ATOM     17  I   UNL     1       5.072  -1.317  -1.450  0.00  0.00    +0.000 I 
ATOM     18  S   UNL     1       4.515  -0.922   0.790  0.00  0.00    +0.000 S 
ENDBRANCH  16  18
ENDBRANCH   4  15
TORSDOF 4
