REMARK  Name = 135201993
REMARK  5 active torsions:
REMARK  status: ('A' for Active; 'I' for Inactive)
REMARK    1  A    between atoms: N_5  and  C_11
REMARK    2  A    between atoms: C_8  and  C_9
REMARK    3  A    between atoms: C_8  and  C_10
REMARK    4  A    between atoms: C_9  and  C_15
REMARK    5  A    between atoms: C_12  and  C_16
REMARK                            x       y       z     vdW  Elec       q    Type
REMARK                         _______ _______ _______ _____ _____    ______ ____
ROOT
ATOM      1  N   UNL     1      -1.717   1.787   0.008  0.00  0.00    +0.000 NA
ATOM      2  C   UNL     1      -1.533   0.448  -0.007  0.00  0.00    +0.000 A 
ATOM      3  C   UNL     1      -2.564  -0.477  -0.024  0.00  0.00    +0.000 A 
ATOM      4  C   UNL     1      -3.869   0.003  -0.025  0.00  0.00    +0.000 A 
ATOM      5  C   UNL     1      -4.099   1.374  -0.010  0.00  0.00    +0.000 A 
ATOM      6  C   UNL     1      -2.999   2.216   0.006  0.00  0.00    +0.000 A 
ENDROOT
BRANCH   3   9
ATOM      7  O   UNL     1      -2.210  -2.537  -1.110  0.00  0.00    +0.000 OA
ATOM      8  N   UNL     1      -2.239  -2.569   1.183  0.00  0.00    +0.000 N 
ATOM      9  C   UNL     1      -2.334  -1.915  -0.041  0.00  0.00    +0.000 C 
ATOM     10  H   UNL     1      -2.330  -2.076   2.066  0.00  0.00    +0.000 HD
ATOM     11  H   UNL     1      -2.073  -3.568   1.229  0.00  0.00    +0.000 HD
ENDBRANCH   3   9
BRANCH   2  13
ATOM     12  O   UNL     1       1.067   1.950   0.025  0.00  0.00    +0.000 OA
ATOM     13  N   UNL     1      -0.200  -0.028  -0.005  0.00  0.00    +0.000 N 
ATOM     14  C   UNL     1       0.970   0.727   0.011  0.00  0.00    +0.000 C 
ATOM     15  H   UNL     1      -0.088  -1.038  -0.015  0.00  0.00    +0.000 HD
BRANCH  14  16
ATOM     16  C   UNL     1       2.192  -0.184   0.011  0.00  0.00    +0.000 C 
BRANCH  16  17
ATOM     17  C   UNL     1       3.515   0.577   0.028  0.00  0.00    +0.000 C 
BRANCH  17  20
ATOM     18  I   UNL     1       6.620   0.531  -0.007  0.00  0.00    +0.000 I 
ATOM     19  O   UNL     1       4.686  -1.563  -0.034  0.00  0.00    +0.000 OA
ATOM     20  C   UNL     1       4.715  -0.342  -0.008  0.00  0.00    +0.000 C 
ENDBRANCH  17  20
ENDBRANCH  16  17
ENDBRANCH  14  16
ENDBRANCH   2  13
TORSDOF 5
