REMARK  Name = 135307746
REMARK  4 active torsions:
REMARK  status: ('A' for Active; 'I' for Inactive)
REMARK    1  A    between atoms: S_1  and  N_5
REMARK    2  A    between atoms: S_1  and  C_10
REMARK    3  A    between atoms: N_5  and  C_8
REMARK    4  A    between atoms: C_9  and  C_13
REMARK                            x       y       z     vdW  Elec       q    Type
REMARK                         _______ _______ _______ _____ _____    ______ ____
ROOT
ATOM      1  N   UNL     1       0.146   1.676  -0.328  0.00  0.00    +0.000 NA
ATOM      2  C   UNL     1      -0.141   0.355  -0.341  0.00  0.00    +0.000 A 
ATOM      3  C   UNL     1      -1.389  -0.170  -0.044  0.00  0.00    +0.000 A 
ATOM      4  C   UNL     1      -2.407   0.718   0.286  0.00  0.00    +0.000 A 
ATOM      5  C   UNL     1      -2.150   2.084   0.310  0.00  0.00    +0.000 A 
ATOM      6  C   UNL     1      -0.869   2.509  -0.002  0.00  0.00    +0.000 A 
ENDROOT
BRANCH   3   9
ATOM      7  O   UNL     1      -2.036  -2.170  -1.106  0.00  0.00    +0.000 OA
ATOM      8  N   UNL     1      -1.462  -2.314   1.109  0.00  0.00    +0.000 N 
ATOM      9  C   UNL     1      -1.659  -1.600  -0.068  0.00  0.00    +0.000 C 
ATOM     10  H   UNL     1      -1.145  -1.868   1.964  0.00  0.00    +0.000 HD
ATOM     11  H   UNL     1      -1.629  -3.314   1.147  0.00  0.00    +0.000 HD
ENDBRANCH   3   9
BRANCH   2  12
ATOM     12  N   UNL     1       0.949  -0.503  -0.688  0.00  0.00    +0.000 N 
ATOM     13  H   UNL     1       0.724  -1.497  -0.812  0.00  0.00    +0.000 HD
BRANCH  12  14
ATOM     14  S   UNL     1       2.505  -0.135  -0.051  0.00  0.00    +0.000 S 
ATOM     15  O   UNL     1       3.483  -0.965  -0.728  0.00  0.00    +0.000 OA
ATOM     16  O   UNL     1       2.699   1.298   0.053  0.00  0.00    +0.000 OA
ATOM     17  C   UNL     1       2.331  -0.783   1.597  0.00  0.00    +0.000 C 
ENDBRANCH  12  14
ENDBRANCH   2  12
TORSDOF 3
