REMARK  Name = 13533250
REMARK  4 active torsions:
REMARK  status: ('A' for Active; 'I' for Inactive)
REMARK    1  A    between atoms: N_2  and  C_6
REMARK    2  A    between atoms: N_4  and  C_8
REMARK    3  A    between atoms: C_5  and  C_7
REMARK    4  A    between atoms: C_6  and  C_10
REMARK                            x       y       z     vdW  Elec       q    Type
REMARK                         _______ _______ _______ _____ _____    ______ ____
ROOT
ATOM      1  N   UNL     1      -2.640   0.772   0.165  0.00  0.00    +0.000 NA
ATOM      2  C   UNL     1      -0.407  -0.122  -0.071  0.00  0.00    +0.000 A 
ATOM      3  C   UNL     1      -1.298   0.923   0.112  0.00  0.00    +0.000 A 
ATOM      4  C   UNL     1      -0.927  -1.404  -0.208  0.00  0.00    +0.000 A 
ATOM      5  C   UNL     1      -2.303  -1.600  -0.159  0.00  0.00    +0.000 A 
ATOM      6  C   UNL     1      -3.109  -0.488   0.028  0.00  0.00    +0.000 A 
ENDROOT
BRANCH   2   9
ATOM      7  O   UNL     1       1.512   1.144  -0.534  0.00  0.00    +0.000 OA
ATOM      8  N   UNL     1       1.834  -0.985   0.328  0.00  0.00    +0.000 N 
ATOM      9  C   UNL     1       1.036   0.072  -0.123  0.00  0.00    +0.000 C 
ATOM     10  H   UNL     1       1.405  -1.823   0.706  0.00  0.00    +0.000 HD
BRANCH   8  11
ATOM     11  C   UNL     1       3.278  -0.936   0.360  0.00  0.00    +0.000 C 
ATOM     12  C   UNL     1       3.800   0.391  -0.151  0.00  0.00    +0.000 C 
ENDBRANCH   8  11
ENDBRANCH   2   9
BRANCH   3  13
ATOM     13  N   UNL     1      -0.775   2.233   0.253  0.00  0.00    +0.000 N 
ATOM     14  H   UNL     1       0.132   2.348   0.686  0.00  0.00    +0.000 HD
ATOM     15  H   UNL     1      -1.452   2.977   0.379  0.00  0.00    +0.000 HD
ENDBRANCH   3  13
TORSDOF 3
