REMARK  Name = 135404215
REMARK  0 active torsions:
REMARK  status: ('A' for Active; 'I' for Inactive)
REMARK                            x       y       z     vdW  Elec       q    Type
REMARK                         _______ _______ _______ _____ _____    ______ ____
ROOT
ATOM      1  O   UNL     1      -0.632   2.657   0.001  0.00  0.00    +0.000 OA
ATOM      2  N   UNL     1      -1.906   0.728  -0.001  0.00  0.00    +0.000 N 
ATOM      3  N   UNL     1      -0.935  -1.416   0.001  0.00  0.00    +0.000 NA
ATOM      4  N   UNL     1       1.384  -1.649   0.000  0.00  0.00    +0.000 NA
ATOM      5  N   UNL     1      -3.267  -1.172  -0.000  0.00  0.00    +0.000 N 
ATOM      6  C   UNL     1       0.486   0.582   0.000  0.00  0.00    +0.000 A 
ATOM      7  C   UNL     1       0.329  -0.801   0.001  0.00  0.00    +0.000 A 
ATOM      8  C   UNL     1      -0.714   1.435   0.000  0.00  0.00    +0.000 A 
ATOM      9  C   UNL     1       1.769   1.124  -0.000  0.00  0.00    +0.000 A 
ATOM     10  C   UNL     1      -1.997  -0.659  -0.000  0.00  0.00    +0.000 A 
ATOM     11  C   UNL     1       2.862   0.268  -0.001  0.00  0.00    +0.000 A 
ATOM     12  C   UNL     1       2.619  -1.096  -0.000  0.00  0.00    +0.000 A 
ATOM     13  H   UNL     1      -2.771   1.261  -0.001  0.00  0.00    +0.000 HD
ATOM     14  H   UNL     1      -3.429  -2.174  -0.000  0.00  0.00    +0.000 HD
ATOM     15  H   UNL     1      -4.081  -0.568  -0.001  0.00  0.00    +0.000 HD
ENDROOT
TORSDOF 0
