REMARK  Name = 135434856
REMARK  2 active torsions:
REMARK  status: ('A' for Active; 'I' for Inactive)
REMARK    1  A    between atoms: N_5  and  C_14
REMARK    2  A    between atoms: C_7  and  C_8
REMARK                            x       y       z     vdW  Elec       q    Type
REMARK                         _______ _______ _______ _____ _____    ______ ____
ROOT
ATOM      1  O   UNL     1       0.262   1.644  -0.293  0.00  0.00    +0.000 OA
ATOM      2  N   UNL     1       0.700  -0.609   0.151  0.00  0.00    +0.000 N 
ATOM      3  N   UNL     1       2.631  -1.889   0.387  0.00  0.00    +0.000 N 
ATOM      4  N   UNL     1       2.751   0.461  -0.084  0.00  0.00    +0.000 NA
ATOM      5  C   UNL     1      -0.124   0.502  -0.061  0.00  0.00    +0.000 C 
ATOM      6  C   UNL     1       2.100  -0.642   0.143  0.00  0.00    +0.000 C 
ATOM      7  H   UNL     1       0.262  -1.500   0.366  0.00  0.00    +0.000 HD
ATOM      8  H   UNL     1       3.631  -2.053   0.410  0.00  0.00    +0.000 HD
ATOM      9  H   UNL     1       2.032  -2.691   0.553  0.00  0.00    +0.000 HD
ENDROOT
BRANCH   5  11
ATOM     10  N   UNL     1      -3.400  -1.335  -0.348  0.00  0.00    +0.000 NA
ATOM     11  C   UNL     1      -1.584   0.229  -0.030  0.00  0.00    +0.000 A 
ATOM     12  C   UNL     1      -2.491   1.220   0.329  0.00  0.00    +0.000 A 
ATOM     13  C   UNL     1      -2.085  -1.021  -0.357  0.00  0.00    +0.000 A 
ATOM     14  C   UNL     1      -3.852   0.935   0.350  0.00  0.00    +0.000 A 
ATOM     15  C   UNL     1      -4.251  -0.346   0.006  0.00  0.00    +0.000 A 
ENDBRANCH   5  11
BRANCH   4  17
ATOM     16  N   UNL     1       5.252   0.419  -0.101  0.00  0.00    +0.000 NA
ATOM     17  C   UNL     1       4.091   0.433  -0.092  0.00  0.00    +0.000 C 
ENDBRANCH   4  17
TORSDOF 2
