REMARK  Name = 135496111
REMARK  2 active torsions:
REMARK  status: ('A' for Active; 'I' for Inactive)
REMARK    1  A    between atoms: O_1  and  C_10
REMARK    2  A    between atoms: O_1  and  C_13
REMARK                            x       y       z     vdW  Elec       q    Type
REMARK                         _______ _______ _______ _____ _____    ______ ____
ROOT
ATOM      1  O   UNL     1      -0.404  -2.850   0.000  0.00  0.00    +0.000 OA
ATOM      2  N   UNL     1       1.351  -1.347   0.000  0.00  0.00    +0.000 N 
ATOM      3  N   UNL     1       0.996   0.997   0.000  0.00  0.00    +0.000 NA
ATOM      4  N   UNL     1      -1.176   1.849   0.000  0.00  0.00    +0.000 NA
ATOM      5  C   UNL     1      -0.913  -0.545   0.000  0.00  0.00    +0.000 A 
ATOM      6  C   UNL     1      -0.389   0.748   0.000  0.00  0.00    +0.000 A 
ATOM      7  C   UNL     1       0.011  -1.698   0.000  0.00  0.00    +0.000 A 
ATOM      8  C   UNL     1      -2.295  -0.719   0.000  0.00  0.00    +0.000 A 
ATOM      9  C   UNL     1       1.775  -0.035   0.000  0.00  0.00    +0.000 A 
ATOM     10  C   UNL     1      -3.116   0.401   0.000  0.00  0.00    +0.000 A 
ATOM     11  C   UNL     1      -2.514   1.649   0.000  0.00  0.00    +0.000 A 
ATOM     12  H   UNL     1       2.047  -2.085   0.000  0.00  0.00    +0.000 HD
ENDROOT
BRANCH   9  13
ATOM     13  O   UNL     1       3.120   0.100   0.000  0.00  0.00    +0.000 OA
ATOM     14  C   UNL     1       3.556   1.449   0.000  0.00  0.00    +0.000 C 
ENDBRANCH   9  13
TORSDOF 1
