REMARK  Name = 135440277
REMARK  0 active torsions:
REMARK  status: ('A' for Active; 'I' for Inactive)
REMARK                            x       y       z     vdW  Elec       q    Type
REMARK                         _______ _______ _______ _____ _____    ______ ____
ROOT
ATOM      1  O   UNL     1      -1.733  -2.092   0.000  0.00  0.00    +0.000 OA
ATOM      2  N   UNL     1      -2.292   0.150  -0.001  0.00  0.00    +0.000 N 
ATOM      3  N   UNL     1      -0.651   1.854   0.000  0.00  0.00    +0.000 NA
ATOM      4  N   UNL     1       1.614   1.294   0.000  0.00  0.00    +0.000 NA
ATOM      5  C   UNL     1       0.017  -0.507   0.000  0.00  0.00    +0.000 A 
ATOM      6  C   UNL     1       0.336   0.850   0.000  0.00  0.00    +0.000 A 
ATOM      7  C   UNL     1      -1.404  -0.912   0.000  0.00  0.00    +0.000 A 
ATOM      8  C   UNL     1       1.043  -1.449   0.000  0.00  0.00    +0.000 A 
ATOM      9  C   UNL     1       2.361  -1.009  -0.001  0.00  0.00    +0.000 A 
ATOM     10  C   UNL     1      -1.882   1.464  -0.000  0.00  0.00    +0.000 A 
ATOM     11  C   UNL     1       2.591   0.357   0.000  0.00  0.00    +0.000 A 
ATOM     12  H   UNL     1      -3.288  -0.053  -0.001  0.00  0.00    +0.000 HD
ENDROOT
TORSDOF 0
