REMARK  Name = 135502605
REMARK  1 active torsions:
REMARK  status: ('A' for Active; 'I' for Inactive)
REMARK    1  A    between atoms: C_7  and  C_10
REMARK                            x       y       z     vdW  Elec       q    Type
REMARK                         _______ _______ _______ _____ _____    ______ ____
ROOT
ATOM      1  O   UNL     1       0.604   2.666  -0.001  0.00  0.00    +0.000 OA
ATOM      2  N   UNL     1       1.899   0.752  -0.000  0.00  0.00    +0.000 N 
ATOM      3  N   UNL     1       0.939  -1.410  -0.001  0.00  0.00    +0.000 NA
ATOM      4  N   UNL     1      -1.379  -1.660  -0.001  0.00  0.00    +0.000 NA
ATOM      5  C   UNL     1      -0.496   0.579  -0.000  0.00  0.00    +0.000 A 
ATOM      6  C   UNL     1      -0.331  -0.805  -0.001  0.00  0.00    +0.000 A 
ATOM      7  C   UNL     1       1.972  -0.627  -0.000  0.00  0.00    +0.000 A 
ATOM      8  C   UNL     1       0.699   1.444   0.000  0.00  0.00    +0.000 A 
ATOM      9  C   UNL     1      -1.783   1.112   0.001  0.00  0.00    +0.000 A 
ATOM     10  C   UNL     1       3.365  -1.183   0.002  0.00  0.00    +0.000 C 
ATOM     11  C   UNL     1      -2.870   0.247   0.001  0.00  0.00    +0.000 A 
ATOM     12  C   UNL     1      -2.618  -1.115   0.000  0.00  0.00    +0.000 A 
ATOM     13  H   UNL     1       2.755   1.299   0.000  0.00  0.00    +0.000 HD
ENDROOT
TORSDOF 0
