REMARK  Name = 135754398
REMARK  2 active torsions:
REMARK  status: ('A' for Active; 'I' for Inactive)
REMARK    1  A    between atoms: C_6  and  C_10
REMARK    2  A    between atoms: C_11  and  C_12
REMARK                            x       y       z     vdW  Elec       q    Type
REMARK                         _______ _______ _______ _____ _____    ______ ____
ROOT
ATOM      1  O   UNL     1       3.195  -2.711   0.453  0.00  0.00    +0.000 OA
ATOM      2  N   UNL     1       1.162  -1.669   0.099  0.00  0.00    +0.000 N 
ATOM      3  N   UNL     1       0.998   0.658  -0.288  0.00  0.00    +0.000 NA
ATOM      4  N   UNL     1       2.922   1.977  -0.318  0.00  0.00    +0.000 NA
ATOM      5  C   UNL     1       3.189  -0.381   0.083  0.00  0.00    +0.000 A 
ATOM      6  C   UNL     1       0.452  -0.509  -0.153  0.00  0.00    +0.000 A 
ATOM      7  C   UNL     1       2.398   0.738  -0.169  0.00  0.00    +0.000 A 
ATOM      8  C   UNL     1       2.541  -1.698   0.232  0.00  0.00    +0.000 A 
ATOM      9  C   UNL     1       4.569  -0.231   0.188  0.00  0.00    +0.000 A 
ATOM     10  C   UNL     1       5.123   1.034   0.038  0.00  0.00    +0.000 A 
ATOM     11  C   UNL     1       4.266   2.094  -0.211  0.00  0.00    +0.000 A 
ATOM     12  H   UNL     1       0.665  -2.551   0.194  0.00  0.00    +0.000 HD
ENDROOT
BRANCH   6  13
ATOM     13  C   UNL     1      -1.002  -0.712  -0.258  0.00  0.00    +0.000 C 
ATOM     14  C   UNL     1      -1.803   0.292   0.106  0.00  0.00    +0.000 C 
BRANCH  14  15
ATOM     15  C   UNL     1      -3.275   0.238   0.069  0.00  0.00    +0.000 A 
ATOM     16  C   UNL     1      -3.918  -0.707  -0.731  0.00  0.00    +0.000 A 
ATOM     17  C   UNL     1      -4.025   1.131   0.833  0.00  0.00    +0.000 A 
ATOM     18  C   UNL     1      -5.311  -0.758  -0.767  0.00  0.00    +0.000 A 
ATOM     19  C   UNL     1      -5.419   1.080   0.797  0.00  0.00    +0.000 A 
ATOM     20  C   UNL     1      -6.062   0.135  -0.003  0.00  0.00    +0.000 A 
ENDBRANCH  14  15
ENDBRANCH   6  13
TORSDOF 2
