REMARK  Name = 135883858
REMARK  0 active torsions:
REMARK  status: ('A' for Active; 'I' for Inactive)
REMARK                            x       y       z     vdW  Elec       q    Type
REMARK                         _______ _______ _______ _____ _____    ______ ____
ROOT
ATOM      1 CL   UNL     1       3.559   1.206  -0.000  0.00  0.00    +0.000 Cl
ATOM      2  O   UNL     1       0.502  -2.698   0.000  0.00  0.00    +0.000 OA
ATOM      3  N   UNL     1       1.857  -0.826  -0.000  0.00  0.00    +0.000 N 
ATOM      4  N   UNL     1       0.972   1.367   0.000  0.00  0.00    +0.000 NA
ATOM      5  N   UNL     1      -1.338   1.693   0.000  0.00  0.00    +0.000 NA
ATOM      6  C   UNL     1      -0.529  -0.575   0.000  0.00  0.00    +0.000 A 
ATOM      7  C   UNL     1      -0.318   0.804   0.000  0.00  0.00    +0.000 A 
ATOM      8  C   UNL     1       0.637  -1.480   0.000  0.00  0.00    +0.000 A 
ATOM      9  C   UNL     1      -1.832  -1.065  -0.000  0.00  0.00    +0.000 A 
ATOM     10  C   UNL     1       1.975   0.549  -0.000  0.00  0.00    +0.000 A 
ATOM     11  C   UNL     1      -2.891  -0.165  -0.000  0.00  0.00    +0.000 A 
ATOM     12  C   UNL     1      -2.594   1.189  -0.000  0.00  0.00    +0.000 A 
ATOM     13  H   UNL     1       2.705  -1.385  -0.000  0.00  0.00    +0.000 HD
ENDROOT
TORSDOF 0
