REMARK  Name = 136089013
REMARK  2 active torsions:
REMARK  status: ('A' for Active; 'I' for Inactive)
REMARK    1  A    between atoms: N_2  and  C_9
REMARK    2  A    between atoms: C_9  and  C_12
REMARK                            x       y       z     vdW  Elec       q    Type
REMARK                         _______ _______ _______ _____ _____    ______ ____
ROOT
ATOM      1  O   UNL     1       1.136   2.825   0.002  0.00  0.00    +0.000 OA
ATOM      2  N   UNL     1      -2.756   0.282  -0.005  0.00  0.00    +0.000 N 
ATOM      3  N   UNL     1      -0.775   1.524  -0.003  0.00  0.00    +0.000 N 
ATOM      4  N   UNL     1      -0.691  -0.829  -0.002  0.00  0.00    +0.000 NA
ATOM      5  N   UNL     1       1.366  -1.925  -0.000  0.00  0.00    +0.000 NA
ATOM      6  C   UNL     1       1.382   0.480   0.001  0.00  0.00    +0.000 A 
ATOM      7  C   UNL     1      -1.386   0.274  -0.003  0.00  0.00    +0.000 A 
ATOM      8  C   UNL     1       0.712  -0.740  -0.001  0.00  0.00    +0.000 A 
ATOM      9  C   UNL     1       0.596   1.725   0.000  0.00  0.00    +0.000 A 
ATOM     10  C   UNL     1       2.775   0.495   0.002  0.00  0.00    +0.000 A 
ATOM     11  C   UNL     1       3.461  -0.713   0.002  0.00  0.00    +0.000 A 
ATOM     12  C   UNL     1       2.718  -1.882   0.001  0.00  0.00    +0.000 A 
ATOM     13  H   UNL     1      -3.247   1.172  -0.008  0.00  0.00    +0.000 HD
ATOM     14  H   UNL     1      -1.373   2.345  -0.003  0.00  0.00    +0.000 HD
ENDROOT
BRANCH   2  15
ATOM     15  C   UNL     1      -3.527  -0.922  -0.007  0.00  0.00    +0.000 C 
ATOM     16  C   UNL     1      -5.008  -0.595   0.013  0.00  0.00    +0.000 C 
ENDBRANCH   2  15
TORSDOF 1
