REMARK  Name = 136127010
REMARK  1 active torsions:
REMARK  status: ('A' for Active; 'I' for Inactive)
REMARK    1  A    between atoms: C_9  and  C_13
REMARK                            x       y       z     vdW  Elec       q    Type
REMARK                         _______ _______ _______ _____ _____    ______ ____
ROOT
ATOM      1  O   UNL     1      -0.792   2.834  -0.001  0.00  0.00    +0.000 OA
ATOM      2  N   UNL     1       0.887   1.246  -0.001  0.00  0.00    +0.000 N 
ATOM      3  N   UNL     1       0.419  -1.071  -0.001  0.00  0.00    +0.000 NA
ATOM      4  N   UNL     1      -1.791  -1.818  -0.001  0.00  0.00    +0.000 NA
ATOM      5  C   UNL     1      -1.414   0.559  -0.000  0.00  0.00    +0.000 A 
ATOM      6  C   UNL     1       1.257  -0.083  -0.001  0.00  0.00    +0.000 A 
ATOM      7  C   UNL     1      -0.952  -0.756  -0.001  0.00  0.00    +0.000 A 
ATOM      8  C   UNL     1      -0.435   1.663  -0.000  0.00  0.00    +0.000 A 
ATOM      9  C   UNL     1      -2.785   0.800   0.001  0.00  0.00    +0.000 A 
ATOM     10  C   UNL     1      -3.659  -0.279   0.001  0.00  0.00    +0.000 A 
ATOM     11  C   UNL     1      -3.118  -1.555   0.000  0.00  0.00    +0.000 A 
ATOM     12  H   UNL     1       1.610   1.961  -0.001  0.00  0.00    +0.000 HD
ENDROOT
BRANCH   6  16
ATOM     13  F   UNL     1       3.010  -1.646   0.001  0.00  0.00    +0.000 F 
ATOM     14  F   UNL     1       3.320   0.216  -1.089  0.00  0.00    +0.000 F 
ATOM     15  F   UNL     1       3.318   0.216   1.091  0.00  0.00    +0.000 F 
ATOM     16  C   UNL     1       2.737  -0.325   0.000  0.00  0.00    +0.000 C 
ENDBRANCH   6  16
TORSDOF 1
