REMARK  Name = 136156976
REMARK  0 active torsions:
REMARK  status: ('A' for Active; 'I' for Inactive)
REMARK                            x       y       z     vdW  Elec       q    Type
REMARK                         _______ _______ _______ _____ _____    ______ ____
ROOT
ATOM      1  O   UNL     1      -1.691  -2.104   0.000  0.00  0.00    +0.000 OA
ATOM      2  N   UNL     1      -2.254   0.129   0.000  0.00  0.00    +0.000 N 
ATOM      3  N   UNL     1       1.564   1.318   0.000  0.00  0.00    +0.000 NA
ATOM      4  N   UNL     1      -0.713   1.802  -0.000  0.00  0.00    +0.000 NA
ATOM      5  N   UNL     1      -1.913   1.443   0.000  0.00  0.00    +0.000 NA
ATOM      6  C   UNL     1       0.034  -0.521  -0.000  0.00  0.00    +0.000 A 
ATOM      7  C   UNL     1       0.300   0.835  -0.000  0.00  0.00    +0.000 A 
ATOM      8  C   UNL     1       1.083  -1.436  -0.000  0.00  0.00    +0.000 A 
ATOM      9  C   UNL     1      -1.368  -0.922   0.000  0.00  0.00    +0.000 A 
ATOM     10  C   UNL     1       2.386  -0.958   0.000  0.00  0.00    +0.000 A 
ATOM     11  C   UNL     1       2.572   0.414   0.000  0.00  0.00    +0.000 A 
ATOM     12  H   UNL     1      -3.254  -0.044   0.000  0.00  0.00    +0.000 HD
ENDROOT
TORSDOF 0
