REMARK  Name = 136163729
REMARK  4 active torsions:
REMARK  status: ('A' for Active; 'I' for Inactive)
REMARK    1  A    between atoms: C_5  and  C_6
REMARK    2  A    between atoms: C_5  and  C_7
REMARK    3  A    between atoms: C_5  and  C_8
REMARK    4  A    between atoms: C_5  and  C_9
REMARK                            x       y       z     vdW  Elec       q    Type
REMARK                         _______ _______ _______ _____ _____    ______ ____
ROOT
ATOM      1  O   UNL     1      -0.788   2.837  -0.001  0.00  0.00    +0.000 OA
ATOM      2  N   UNL     1       0.887   1.246  -0.001  0.00  0.00    +0.000 N 
ATOM      3  N   UNL     1       0.415  -1.071  -0.001  0.00  0.00    +0.000 NA
ATOM      4  N   UNL     1      -1.796  -1.814  -0.001  0.00  0.00    +0.000 NA
ATOM      5  C   UNL     1       1.256  -0.085  -0.001  0.00  0.00    +0.000 A 
ATOM      6  C   UNL     1      -1.415   0.562  -0.000  0.00  0.00    +0.000 A 
ATOM      7  C   UNL     1      -0.955  -0.754  -0.001  0.00  0.00    +0.000 A 
ATOM      8  C   UNL     1      -0.433   1.664  -0.000  0.00  0.00    +0.000 A 
ATOM      9  C   UNL     1      -2.785   0.806   0.001  0.00  0.00    +0.000 A 
ATOM     10  C   UNL     1      -3.662  -0.272   0.001  0.00  0.00    +0.000 A 
ATOM     11  C   UNL     1      -3.123  -1.548   0.000  0.00  0.00    +0.000 A 
ATOM     12  H   UNL     1       1.598   1.971  -0.001  0.00  0.00    +0.000 HD
ENDROOT
BRANCH   5  13
ATOM     13  C   UNL     1       2.735  -0.329   0.001  0.00  0.00    +0.000 C 
ATOM     14  C   UNL     1       2.970  -1.843   0.001  0.00  0.00    +0.000 C 
ATOM     15  C   UNL     1       3.346   0.301   1.257  0.00  0.00    +0.000 C 
ATOM     16  C   UNL     1       3.349   0.300  -1.255  0.00  0.00    +0.000 C 
ENDBRANCH   5  13
TORSDOF 1
