REMARK  Name = 136163728
REMARK  2 active torsions:
REMARK  status: ('A' for Active; 'I' for Inactive)
REMARK    1  A    between atoms: C_10  and  C_11
REMARK    2  A    between atoms: C_10  and  C_14
REMARK                            x       y       z     vdW  Elec       q    Type
REMARK                         _______ _______ _______ _____ _____    ______ ____
ROOT
ATOM      1  O   UNL     1      -1.534   2.840   0.122  0.00  0.00    +0.000 OA
ATOM      2  N   UNL     1       0.198   1.356  -0.252  0.00  0.00    +0.000 N 
ATOM      3  N   UNL     1      -0.155  -0.979  -0.367  0.00  0.00    +0.000 NA
ATOM      4  N   UNL     1      -2.302  -1.852  -0.100  0.00  0.00    +0.000 NA
ATOM      5  C   UNL     1       0.626   0.053  -0.412  0.00  0.00    +0.000 A 
ATOM      6  C   UNL     1      -2.041   0.537   0.034  0.00  0.00    +0.000 A 
ATOM      7  C   UNL     1      -1.524  -0.745  -0.139  0.00  0.00    +0.000 A 
ATOM      8  C   UNL     1      -1.126   1.693  -0.023  0.00  0.00    +0.000 A 
ATOM      9  C   UNL     1      -3.406   0.698   0.257  0.00  0.00    +0.000 A 
ATOM     10  C   UNL     1      -4.219  -0.428   0.301  0.00  0.00    +0.000 A 
ATOM     11  C   UNL     1      -3.624  -1.666   0.119  0.00  0.00    +0.000 A 
ATOM     12  H   UNL     1       0.878   2.109  -0.302  0.00  0.00    +0.000 HD
ENDROOT
BRANCH   5  15
ATOM     13  F   UNL     1       2.581   0.978  -1.313  0.00  0.00    +0.000 F 
ATOM     14  F   UNL     1       2.337  -1.181  -1.433  0.00  0.00    +0.000 F 
ATOM     15  C   UNL     1       2.099  -0.101  -0.649  0.00  0.00    +0.000 C 
BRANCH  15  19
ATOM     16  F   UNL     1       2.665   0.811   1.454  0.00  0.00    +0.000 F 
ATOM     17  F   UNL     1       4.171  -0.406   0.443  0.00  0.00    +0.000 F 
ATOM     18  F   UNL     1       2.408  -1.350   1.311  0.00  0.00    +0.000 F 
ATOM     19  C   UNL     1       2.845  -0.257   0.647  0.00  0.00    +0.000 C 
ENDBRANCH  15  19
ENDBRANCH   5  15
TORSDOF 2
