REMARK  Name = 136345787
REMARK  1 active torsions:
REMARK  status: ('A' for Active; 'I' for Inactive)
REMARK    1  A    between atoms: C_7  and  C_11
REMARK                            x       y       z     vdW  Elec       q    Type
REMARK                         _______ _______ _______ _____ _____    ______ ____
ROOT
ATOM      1 CL   UNL     1       3.942   0.534  -0.000  0.00  0.00    +0.000 Cl
ATOM      2  O   UNL     1       0.121  -2.599  -0.001  0.00  0.00    +0.000 OA
ATOM      3  N   UNL     1       1.830  -1.067   0.000  0.00  0.00    +0.000 N 
ATOM      4  N   UNL     1      -0.723   2.101  -0.000  0.00  0.00    +0.000 NA
ATOM      5  N   UNL     1       1.456   1.268   0.000  0.00  0.00    +0.000 NA
ATOM      6  C   UNL     1      -0.440  -0.290   0.001  0.00  0.00    +0.000 A 
ATOM      7  C   UNL     1      -1.820  -0.476   0.000  0.00  0.00    +0.000 A 
ATOM      8  C   UNL     1       0.073   1.007   0.000  0.00  0.00    +0.000 A 
ATOM      9  C   UNL     1       0.494  -1.433   0.001  0.00  0.00    +0.000 A 
ATOM     10  C   UNL     1      -2.651   0.637  -0.000  0.00  0.00    +0.000 A 
ATOM     11  C   UNL     1      -2.473  -1.819   0.000  0.00  0.00    +0.000 C 
ATOM     12  C   UNL     1      -2.060   1.890  -0.001  0.00  0.00    +0.000 A 
ATOM     13  C   UNL     1       2.252   0.247   0.000  0.00  0.00    +0.000 A 
ATOM     14  H   UNL     1       2.532  -1.801  -0.000  0.00  0.00    +0.000 HD
ENDROOT
TORSDOF 0
