REMARK  Name = 136345708
REMARK  1 active torsions:
REMARK  status: ('A' for Active; 'I' for Inactive)
REMARK    1  A    between atoms: C_10  and  C_13
REMARK                            x       y       z     vdW  Elec       q    Type
REMARK                         _______ _______ _______ _____ _____    ______ ____
ROOT
ATOM      1  O   UNL     1       0.527  -2.822   0.005  0.00  0.00    +0.000 OA
ATOM      2  N   UNL     1      -1.132  -1.214  -0.019  0.00  0.00    +0.000 N 
ATOM      3  N   UNL     1      -0.631   1.106  -0.023  0.00  0.00    +0.000 NA
ATOM      4  N   UNL     1       1.591   1.820  -0.007  0.00  0.00    +0.000 NA
ATOM      5  C   UNL     1       1.178  -0.553   0.001  0.00  0.00    +0.000 A 
ATOM      6  C   UNL     1       0.737   0.771  -0.009  0.00  0.00    +0.000 A 
ATOM      7  C   UNL     1       0.184  -1.646  -0.004  0.00  0.00    +0.000 A 
ATOM      8  C   UNL     1      -1.468   0.121  -0.027  0.00  0.00    +0.000 A 
ATOM      9  C   UNL     1       2.546  -0.814   0.014  0.00  0.00    +0.000 A 
ATOM     10  C   UNL     1       3.436   0.253   0.017  0.00  0.00    +0.000 A 
ATOM     11  C   UNL     1       2.914   1.536   0.006  0.00  0.00    +0.000 A 
ATOM     12  H   UNL     1      -1.867  -1.915  -0.023  0.00  0.00    +0.000 HD
ENDROOT
BRANCH   8  15
ATOM     13  O   UNL     1      -3.487   0.516  -1.119  0.00  0.00    +0.000 OA
ATOM     14  N   UNL     1      -3.475   0.519   1.207  0.00  0.00    +0.000 N 
ATOM     15  C   UNL     1      -2.920   0.407  -0.042  0.00  0.00    +0.000 C 
ATOM     16  H   UNL     1      -2.927   0.413   2.055  0.00  0.00    +0.000 HD
ATOM     17  H   UNL     1      -4.464   0.713   1.325  0.00  0.00    +0.000 HD
ENDBRANCH   8  15
TORSDOF 1
