REMARK  Name = 136312202
REMARK  2 active torsions:
REMARK  status: ('A' for Active; 'I' for Inactive)
REMARK    1  A    between atoms: N_5  and  C_10
REMARK    2  A    between atoms: C_7  and  C_10
REMARK                            x       y       z     vdW  Elec       q    Type
REMARK                         _______ _______ _______ _____ _____    ______ ____
ROOT
ATOM      1  O   UNL     1      -0.179   2.808  -0.086  0.00  0.00    +0.000 OA
ATOM      2  N   UNL     1       1.425   1.163   0.161  0.00  0.00    +0.000 N 
ATOM      3  N   UNL     1       0.863  -1.132   0.251  0.00  0.00    +0.000 NA
ATOM      4  N   UNL     1      -1.367  -1.797   0.090  0.00  0.00    +0.000 NA
ATOM      5  C   UNL     1      -0.892   0.560  -0.011  0.00  0.00    +0.000 A 
ATOM      6  C   UNL     1       1.739  -0.177   0.272  0.00  0.00    +0.000 A 
ATOM      7  C   UNL     1      -0.488  -0.768   0.106  0.00  0.00    +0.000 A 
ATOM      8  C   UNL     1       0.128   1.626   0.015  0.00  0.00    +0.000 A 
ATOM      9  C   UNL     1      -2.247   0.851  -0.151  0.00  0.00    +0.000 A 
ATOM     10  C   UNL     1      -3.162  -0.194  -0.169  0.00  0.00    +0.000 A 
ATOM     11  C   UNL     1      -2.677  -1.486  -0.047  0.00  0.00    +0.000 A 
ATOM     12  H   UNL     1       2.170   1.853   0.183  0.00  0.00    +0.000 HD
ENDROOT
BRANCH   6  13
ATOM     13  C   UNL     1       3.201  -0.472   0.424  0.00  0.00    +0.000 C 
BRANCH  13  14
ATOM     14  N   UNL     1       3.656  -0.979  -0.855  0.00  0.00    +0.000 NA
ATOM     15  H   UNL     1       3.189  -1.861  -1.065  0.00  0.00    +0.000 HD
ATOM     16  H   UNL     1       4.650  -1.195  -0.799  0.00  0.00    +0.000 HD
ENDBRANCH  13  14
ENDBRANCH   6  13
TORSDOF 2
