REMARK  Name = 136468802
REMARK  2 active torsions:
REMARK  status: ('A' for Active; 'I' for Inactive)
REMARK    1  A    between atoms: C_5  and  C_6
REMARK    2  A    between atoms: C_6  and  C_10
REMARK                            x       y       z     vdW  Elec       q    Type
REMARK                         _______ _______ _______ _____ _____    ______ ____
ROOT
ATOM      1  O   UNL     1      -0.024   2.766  -0.010  0.00  0.00    +0.000 OA
ATOM      2  N   UNL     1       1.472   1.018   0.204  0.00  0.00    +0.000 N 
ATOM      3  N   UNL     1       0.766  -1.239   0.229  0.00  0.00    +0.000 NA
ATOM      4  N   UNL     1      -1.500  -1.758   0.036  0.00  0.00    +0.000 NA
ATOM      5  C   UNL     1       1.700  -0.342   0.281  0.00  0.00    +0.000 A 
ATOM      6  C   UNL     1      -0.878   0.567   0.000  0.00  0.00    +0.000 A 
ATOM      7  C   UNL     1      -0.558  -0.787   0.085  0.00  0.00    +0.000 A 
ATOM      8  C   UNL     1       0.207   1.565   0.062  0.00  0.00    +0.000 A 
ATOM      9  C   UNL     1      -2.210   0.946  -0.140  0.00  0.00    +0.000 A 
ATOM     10  C   UNL     1      -3.189  -0.039  -0.192  0.00  0.00    +0.000 A 
ATOM     11  C   UNL     1      -2.786  -1.361  -0.101  0.00  0.00    +0.000 A 
ATOM     12  H   UNL     1       2.260   1.657   0.253  0.00  0.00    +0.000 HD
ENDROOT
BRANCH   5  13
ATOM     13  C   UNL     1       3.139  -0.732   0.434  0.00  0.00    +0.000 C 
ATOM     14  C   UNL     1       3.861  -0.604  -0.889  0.00  0.00    +0.000 C 
ENDBRANCH   5  13
TORSDOF 1
