REMARK  Name = 136449571
REMARK  4 active torsions:
REMARK  status: ('A' for Active; 'I' for Inactive)
REMARK    1  A    between atoms: C_5  and  C_6
REMARK    2  A    between atoms: C_5  and  C_7
REMARK    3  A    between atoms: C_6  and  C_8
REMARK    4  A    between atoms: C_7  and  C_10
REMARK                            x       y       z     vdW  Elec       q    Type
REMARK                         _______ _______ _______ _____ _____    ______ ____
ROOT
ATOM      1  O   UNL     1      -1.132  -2.797  -0.124  0.00  0.00    +0.000 OA
ATOM      2  N   UNL     1       0.513  -1.264   0.408  0.00  0.00    +0.000 N 
ATOM      3  N   UNL     1       0.077   1.058   0.506  0.00  0.00    +0.000 NA
ATOM      4  N   UNL     1      -2.064   1.866   0.057  0.00  0.00    +0.000 NA
ATOM      5  C   UNL     1       0.884   0.049   0.613  0.00  0.00    +0.000 A 
ATOM      6  C   UNL     1      -1.717  -0.513  -0.067  0.00  0.00    +0.000 A 
ATOM      7  C   UNL     1      -1.258   0.783   0.158  0.00  0.00    +0.000 A 
ATOM      8  C   UNL     1      -0.775  -1.641   0.063  0.00  0.00    +0.000 A 
ATOM      9  C   UNL     1      -3.052  -0.713  -0.410  0.00  0.00    +0.000 A 
ATOM     10  C   UNL     1      -3.893   0.387  -0.518  0.00  0.00    +0.000 A 
ATOM     11  C   UNL     1      -3.356   1.641  -0.277  0.00  0.00    +0.000 A 
ATOM     12  H   UNL     1       1.207  -1.999   0.513  0.00  0.00    +0.000 HD
ENDROOT
BRANCH   5  13
ATOM     13  C   UNL     1       2.325   0.247   0.979  0.00  0.00    +0.000 C 
BRANCH  13  14
ATOM     14  C   UNL     1       3.214   0.141  -0.253  0.00  0.00    +0.000 C 
BRANCH  14  15
ATOM     15  C   UNL     1       4.690   0.399   0.062  0.00  0.00    +0.000 C 
ATOM     16  C   UNL     1       5.542   0.357  -1.197  0.00  0.00    +0.000 C 
ENDBRANCH  14  15
ENDBRANCH  13  14
ENDBRANCH   5  13
TORSDOF 3
