REMARK  Name = 136508362
REMARK  2 active torsions:
REMARK  status: ('A' for Active; 'I' for Inactive)
REMARK    1  A    between atoms: S_1  and  C_10
REMARK    2  A    between atoms: S_1  and  C_13
REMARK                            x       y       z     vdW  Elec       q    Type
REMARK                         _______ _______ _______ _____ _____    ______ ____
ROOT
ATOM      1  O   UNL     1      -0.563   2.849   0.127  0.00  0.00    +0.000 OA
ATOM      2  N   UNL     1       1.249   1.427  -0.062  0.00  0.00    +0.000 N 
ATOM      3  N   UNL     1       0.993  -0.924  -0.181  0.00  0.00    +0.000 NA
ATOM      4  N   UNL     1      -1.137  -1.872  -0.108  0.00  0.00    +0.000 NA
ATOM      5  C   UNL     1      -0.976   0.527   0.020  0.00  0.00    +0.000 A 
ATOM      6  C   UNL     1      -0.399  -0.738  -0.087  0.00  0.00    +0.000 A 
ATOM      7  C   UNL     1      -0.102   1.717   0.035  0.00  0.00    +0.000 A 
ATOM      8  C   UNL     1      -2.361   0.639   0.109  0.00  0.00    +0.000 A 
ATOM      9  C   UNL     1       1.729   0.139  -0.164  0.00  0.00    +0.000 A 
ATOM     10  C   UNL     1      -3.133  -0.516   0.089  0.00  0.00    +0.000 A 
ATOM     11  C   UNL     1      -2.481  -1.733  -0.020  0.00  0.00    +0.000 A 
ATOM     12  H   UNL     1       1.912   2.196  -0.057  0.00  0.00    +0.000 HD
ENDROOT
BRANCH   9  13
ATOM     13  S   UNL     1       3.464   0.045  -0.273  0.00  0.00    +0.000 S 
ATOM     14  C   UNL     1       3.719  -1.560   0.513  0.00  0.00    +0.000 C 
ENDBRANCH   9  13
TORSDOF 1
