REMARK  Name = 13667281
REMARK  3 active torsions:
REMARK  status: ('A' for Active; 'I' for Inactive)
REMARK    1  A    between atoms: N_2  and  N_5
REMARK    2  A    between atoms: N_2  and  C_7
REMARK    3  A    between atoms: C_6  and  C_10
REMARK                            x       y       z     vdW  Elec       q    Type
REMARK                         _______ _______ _______ _____ _____    ______ ____
ROOT
ATOM      1  N   UNL     1      -1.864   0.405   0.085  0.00  0.00    +0.000 NA
ATOM      2  C   UNL     1       0.380  -0.487  -0.026  0.00  0.00    +0.000 A 
ATOM      3  C   UNL     1      -0.522   0.562   0.056  0.00  0.00    +0.000 A 
ATOM      4  C   UNL     1      -0.128  -1.780  -0.081  0.00  0.00    +0.000 A 
ATOM      5  C   UNL     1      -1.504  -1.982  -0.053  0.00  0.00    +0.000 A 
ATOM      6  C   UNL     1      -2.321  -0.866   0.030  0.00  0.00    +0.000 A 
ENDROOT
BRANCH   2   9
ATOM      7  O   UNL     1       2.474  -0.155  -1.101  0.00  0.00    +0.000 OA
ATOM      8  N   UNL     1       2.483  -0.265   1.166  0.00  0.00    +0.000 N 
ATOM      9  C   UNL     1       1.822  -0.286  -0.055  0.00  0.00    +0.000 C 
ATOM     10  H   UNL     1       1.993  -0.376   2.047  0.00  0.00    +0.000 HD
ATOM     11  H   UNL     1       3.488  -0.136   1.213  0.00  0.00    +0.000 HD
ENDBRANCH   2   9
BRANCH   3  12
ATOM     12  N   UNL     1      -0.011   1.883   0.112  0.00  0.00    +0.000 N 
ATOM     13  H   UNL     1       0.852   2.030   0.624  0.00  0.00    +0.000 HD
BRANCH  12  14
ATOM     14  N   UNL     1      -0.809   2.971  -0.132  0.00  0.00    +0.000 NA
ATOM     15  H   UNL     1      -0.217   3.756  -0.402  0.00  0.00    +0.000 HD
ATOM     16  H   UNL     1      -1.262   3.247   0.738  0.00  0.00    +0.000 HD
ENDBRANCH  12  14
ENDBRANCH   3  12
TORSDOF 3
