REMARK  Name = 136999721
REMARK  3 active torsions:
REMARK  status: ('A' for Active; 'I' for Inactive)
REMARK    1  A    between atoms: C_5  and  C_6
REMARK    2  A    between atoms: C_5  and  C_7
REMARK    3  A    between atoms: C_6  and  C_11
REMARK                            x       y       z     vdW  Elec       q    Type
REMARK                         _______ _______ _______ _____ _____    ______ ____
ROOT
ATOM      1  O   UNL     1      -0.656   2.799   0.053  0.00  0.00    +0.000 OA
ATOM      2  N   UNL     1       0.976   1.197  -0.283  0.00  0.00    +0.000 N 
ATOM      3  N   UNL     1       0.471  -1.112  -0.342  0.00  0.00    +0.000 NA
ATOM      4  N   UNL     1      -1.727  -1.837  -0.056  0.00  0.00    +0.000 NA
ATOM      5  C   UNL     1       1.319  -0.134  -0.411  0.00  0.00    +0.000 A 
ATOM      6  C   UNL     1      -1.312   0.532   0.020  0.00  0.00    +0.000 A 
ATOM      7  C   UNL     1      -0.879  -0.785  -0.121  0.00  0.00    +0.000 A 
ATOM      8  C   UNL     1      -0.324   1.625  -0.064  0.00  0.00    +0.000 A 
ATOM      9  C   UNL     1      -2.663   0.786   0.237  0.00  0.00    +0.000 A 
ATOM     10  C   UNL     1      -3.547  -0.283   0.308  0.00  0.00    +0.000 A 
ATOM     11  C   UNL     1      -3.035  -1.561   0.156  0.00  0.00    +0.000 A 
ATOM     12  H   UNL     1       1.701   1.906  -0.350  0.00  0.00    +0.000 HD
ENDROOT
BRANCH   5  13
ATOM     13  C   UNL     1       2.778  -0.389  -0.642  0.00  0.00    +0.000 C 
BRANCH  13  14
ATOM     14  C   UNL     1       3.559  -0.265   0.658  0.00  0.00    +0.000 C 
ATOM     15  C   UNL     1       5.040  -0.573   0.487  0.00  0.00    +0.000 C 
ENDBRANCH  13  14
ENDBRANCH   5  13
TORSDOF 2
