REMARK  Name = 136988225
REMARK  1 active torsions:
REMARK  status: ('A' for Active; 'I' for Inactive)
REMARK    1  A    between atoms: N_6  and  C_11
REMARK                            x       y       z     vdW  Elec       q    Type
REMARK                         _______ _______ _______ _____ _____    ______ ____
ROOT
ATOM      1  O   UNL     1      -0.135   2.723   0.002  0.00  0.00    +0.000 OA
ATOM      2  N   UNL     1      -1.534   0.883  -0.002  0.00  0.00    +0.000 N 
ATOM      3  N   UNL     1      -0.699  -1.327   0.002  0.00  0.00    +0.000 NA
ATOM      4  N   UNL     1       1.602  -1.707  -0.000  0.00  0.00    +0.000 NA
ATOM      5  C   UNL     1       0.847   0.578   0.000  0.00  0.00    +0.000 A 
ATOM      6  C   UNL     1       0.603  -0.794   0.001  0.00  0.00    +0.000 A 
ATOM      7  C   UNL     1      -0.297   1.509   0.000  0.00  0.00    +0.000 A 
ATOM      8  C   UNL     1       2.161   1.037  -0.001  0.00  0.00    +0.000 A 
ATOM      9  C   UNL     1      -1.690  -0.493   0.000  0.00  0.00    +0.000 A 
ATOM     10  C   UNL     1       3.198   0.113  -0.001  0.00  0.00    +0.000 A 
ATOM     11  C   UNL     1       2.870  -1.233  -0.001  0.00  0.00    +0.000 A 
ATOM     12  H   UNL     1      -2.362   1.472  -0.003  0.00  0.00    +0.000 HD
ENDROOT
BRANCH   9  14
ATOM     13  O   UNL     1      -3.901  -0.208  -0.002  0.00  0.00    +0.000 OA
ATOM     14  N   UNL     1      -3.026  -1.078   0.001  0.00  0.00    +0.000 NA
ENDBRANCH   9  14
TORSDOF 1
