REMARK  Name = 137076368
REMARK  3 active torsions:
REMARK  status: ('A' for Active; 'I' for Inactive)
REMARK    1  A    between atoms: S_1  and  S_2
REMARK    2  A    between atoms: S_1  and  C_11
REMARK    3  A    between atoms: S_2  and  C_14
REMARK                            x       y       z     vdW  Elec       q    Type
REMARK                         _______ _______ _______ _____ _____    ______ ____
ROOT
ATOM      1  O   UNL     1      -0.768   2.828   0.171  0.00  0.00    +0.000 OA
ATOM      2  N   UNL     1       0.915   1.364  -0.431  0.00  0.00    +0.000 N 
ATOM      3  N   UNL     1       0.548  -0.970  -0.600  0.00  0.00    +0.000 NA
ATOM      4  N   UNL     1      -1.563  -1.855  -0.152  0.00  0.00    +0.000 NA
ATOM      5  C   UNL     1      -1.285   0.528   0.045  0.00  0.00    +0.000 A 
ATOM      6  C   UNL     1      -0.790  -0.747  -0.227  0.00  0.00    +0.000 A 
ATOM      7  C   UNL     1      -0.378   1.690  -0.058  0.00  0.00    +0.000 A 
ATOM      8  C   UNL     1      -2.621   0.677   0.409  0.00  0.00    +0.000 A 
ATOM      9  C   UNL     1       1.315   0.069  -0.681  0.00  0.00    +0.000 A 
ATOM     10  C   UNL     1      -3.427  -0.451   0.491  0.00  0.00    +0.000 A 
ATOM     11  C   UNL     1      -2.857  -1.680   0.203  0.00  0.00    +0.000 A 
ATOM     12  H   UNL     1       1.597   2.111  -0.523  0.00  0.00    +0.000 HD
ENDROOT
BRANCH   9  13
ATOM     13  S   UNL     1       2.991  -0.072  -1.133  0.00  0.00    +0.000 S 
BRANCH  13  14
ATOM     14  S   UNL     1       3.704  -1.294   0.358  0.00  0.00    +0.000 S 
ATOM     15  C   UNL     1       4.215  -0.088   1.606  0.00  0.00    +0.000 C 
ENDBRANCH  13  14
ENDBRANCH   9  13
TORSDOF 2
