REMARK  Name = 137161106
REMARK  1 active torsions:
REMARK  status: ('A' for Active; 'I' for Inactive)
REMARK    1  A    between atoms: C_5  and  C_8
REMARK                            x       y       z     vdW  Elec       q    Type
REMARK                         _______ _______ _______ _____ _____    ______ ____
ROOT
ATOM      1  O   UNL     1       0.596  -2.826  -0.062  0.00  0.00    +0.000 OA
ATOM      2  N   UNL     1      -1.070  -1.247   0.210  0.00  0.00    +0.000 N 
ATOM      3  N   UNL     1      -0.599   1.075   0.279  0.00  0.00    +0.000 NA
ATOM      4  N   UNL     1       1.599   1.827   0.070  0.00  0.00    +0.000 NA
ATOM      5  C   UNL     1      -1.428   0.082   0.320  0.00  0.00    +0.000 A 
ATOM      6  C   UNL     1       0.242  -1.657   0.041  0.00  0.00    +0.000 A 
ATOM      7  C   UNL     1       0.763   0.764   0.109  0.00  0.00    +0.000 A 
ATOM      8  C   UNL     1       1.218  -0.549  -0.011  0.00  0.00    +0.000 A 
ATOM      9  C   UNL     1       2.580  -0.786  -0.176  0.00  0.00    +0.000 A 
ATOM     10  C   UNL     1       3.452   0.294  -0.217  0.00  0.00    +0.000 A 
ATOM     11  C   UNL     1       2.918   1.567  -0.091  0.00  0.00    +0.000 A 
ATOM     12  H   UNL     1      -1.790  -1.963   0.257  0.00  0.00    +0.000 HD
ENDROOT
BRANCH   5  13
ATOM     13  C   UNL     1      -2.874   0.358   0.497  0.00  0.00    +0.000 C 
ATOM     14  C   UNL     1      -3.842  -0.186  -0.507  0.00  0.00    +0.000 C 
ATOM     15  C   UNL     1      -3.554   1.285  -0.462  0.00  0.00    +0.000 C 
ENDBRANCH   5  13
TORSDOF 1
