REMARK  Name = 137185173
REMARK  3 active torsions:
REMARK  status: ('A' for Active; 'I' for Inactive)
REMARK    1  A    between atoms: C_5  and  C_6
REMARK    2  A    between atoms: C_5  and  C_7
REMARK    3  A    between atoms: C_5  and  C_8
REMARK                            x       y       z     vdW  Elec       q    Type
REMARK                         _______ _______ _______ _____ _____    ______ ____
ROOT
ATOM      1  O   UNL     1      -0.264   2.757  -0.001  0.00  0.00    +0.000 OA
ATOM      2  N   UNL     1       1.220   0.986   0.000  0.00  0.00    +0.000 N 
ATOM      3  N   UNL     1       0.487  -1.262   0.000  0.00  0.00    +0.000 NA
ATOM      4  N   UNL     1      -1.794  -1.749   0.000  0.00  0.00    +0.000 NA
ATOM      5  C   UNL     1       1.435  -0.378   0.000  0.00  0.00    +0.000 A 
ATOM      6  C   UNL     1      -1.145   0.569   0.000  0.00  0.00    +0.000 A 
ATOM      7  C   UNL     1      -0.838  -0.791  -0.000  0.00  0.00    +0.000 A 
ATOM      8  C   UNL     1      -0.044   1.552  -0.000  0.00  0.00    +0.000 A 
ATOM      9  C   UNL     1      -2.479   0.967   0.001  0.00  0.00    +0.000 A 
ATOM     10  C   UNL     1      -3.472  -0.004   0.001  0.00  0.00    +0.000 A 
ATOM     11  C   UNL     1      -3.082  -1.334   0.001  0.00  0.00    +0.000 A 
ATOM     12  H   UNL     1       2.010   1.625   0.000  0.00  0.00    +0.000 HD
ENDROOT
BRANCH   5  13
ATOM     13  C   UNL     1       2.876  -0.789   0.002  0.00  0.00    +0.000 C 
ATOM     14  C   UNL     1       3.543  -0.264  -1.261  0.00  0.00    +0.000 C 
ATOM     15  C   UNL     1       3.556  -0.260   1.256  0.00  0.00    +0.000 C 
ENDBRANCH   5  13
TORSDOF 1
