REMARK  Name = 137229802
REMARK  2 active torsions:
REMARK  status: ('A' for Active; 'I' for Inactive)
REMARK    1  A    between atoms: N_2  and  C_10
REMARK    2  A    between atoms: N_2  and  C_11
REMARK                            x       y       z     vdW  Elec       q    Type
REMARK                         _______ _______ _______ _____ _____    ______ ____
ROOT
ATOM      1  O   UNL     1      -0.538  -2.819  -0.173  0.00  0.00    +0.000 OA
ATOM      2  N   UNL     1       2.847   0.365  -0.034  0.00  0.00    +0.000 N 
ATOM      3  N   UNL     1       1.115  -1.204  -0.102  0.00  0.00    +0.000 N 
ATOM      4  N   UNL     1       0.619   1.093   0.042  0.00  0.00    +0.000 NA
ATOM      5  N   UNL     1      -1.598   1.807   0.115  0.00  0.00    +0.000 NA
ATOM      6  C   UNL     1       1.497   0.131  -0.029  0.00  0.00    +0.000 A 
ATOM      7  C   UNL     1      -1.192  -0.559  -0.030  0.00  0.00    +0.000 A 
ATOM      8  C   UNL     1      -0.746   0.758   0.041  0.00  0.00    +0.000 A 
ATOM      9  C   UNL     1      -0.199  -1.643  -0.109  0.00  0.00    +0.000 A 
ATOM     10  C   UNL     1       3.381   1.587  -0.593  0.00  0.00    +0.000 C 
ATOM     11  C   UNL     1       3.743  -0.473   0.732  0.00  0.00    +0.000 C 
ATOM     12  C   UNL     1      -2.560  -0.818  -0.027  0.00  0.00    +0.000 A 
ATOM     13  C   UNL     1      -3.448   0.247   0.049  0.00  0.00    +0.000 A 
ATOM     14  C   UNL     1      -2.922   1.527   0.117  0.00  0.00    +0.000 A 
ATOM     15  H   UNL     1       1.839  -1.913  -0.167  0.00  0.00    +0.000 HD
ENDROOT
TORSDOF 0
