REMARK  Name = 137276602
REMARK  1 active torsions:
REMARK  status: ('A' for Active; 'I' for Inactive)
REMARK    1  A    between atoms: C_6  and  C_10
REMARK                            x       y       z     vdW  Elec       q    Type
REMARK                         _______ _______ _______ _____ _____    ______ ____
ROOT
ATOM      1  O   UNL     1      -1.222   2.288   0.001  0.00  0.00    +0.000 OA
ATOM      2  N   UNL     1      -2.371   0.301  -0.000  0.00  0.00    +0.000 N 
ATOM      3  N   UNL     1       1.042  -1.917   0.000  0.00  0.00    +0.000 NA
ATOM      4  N   UNL     1      -1.288  -1.803   0.000  0.00  0.00    +0.000 NA
ATOM      5  C   UNL     1       0.030   0.267  -0.000  0.00  0.00    +0.000 A 
ATOM      6  C   UNL     1       1.283   0.874  -0.000  0.00  0.00    +0.000 A 
ATOM      7  C   UNL     1      -0.055  -1.125   0.000  0.00  0.00    +0.000 A 
ATOM      8  C   UNL     1      -1.215   1.063   0.000  0.00  0.00    +0.000 A 
ATOM      9  C   UNL     1       2.419   0.074  -0.000  0.00  0.00    +0.000 A 
ATOM     10  C   UNL     1       1.486   2.353  -0.000  0.00  0.00    +0.000 C 
ATOM     11  C   UNL     1       2.247  -1.301   0.000  0.00  0.00    +0.000 A 
ATOM     12  C   UNL     1      -2.355  -1.075  -0.000  0.00  0.00    +0.000 A 
ATOM     13  H   UNL     1      -3.266   0.782  -0.000  0.00  0.00    +0.000 HD
ENDROOT
TORSDOF 0
