REMARK  Name = 137278557
REMARK  1 active torsions:
REMARK  status: ('A' for Active; 'I' for Inactive)
REMARK    1  A    between atoms: C_8  and  C_11
REMARK                            x       y       z     vdW  Elec       q    Type
REMARK                         _______ _______ _______ _____ _____    ______ ____
ROOT
ATOM      1  F   UNL     1      -3.844   0.378   0.000  0.00  0.00    +0.000 F 
ATOM      2  O   UNL     1       0.725   2.672   0.000  0.00  0.00    +0.000 OA
ATOM      3  N   UNL     1       2.158   0.859   0.001  0.00  0.00    +0.000 N 
ATOM      4  N   UNL     1       1.362  -1.368   0.001  0.00  0.00    +0.000 NA
ATOM      5  N   UNL     1      -0.932  -1.789   0.000  0.00  0.00    +0.000 NA
ATOM      6  C   UNL     1      -0.217   0.509   0.000  0.00  0.00    +0.000 A 
ATOM      7  C   UNL     1       0.050  -0.859   0.000  0.00  0.00    +0.000 A 
ATOM      8  C   UNL     1       2.334  -0.510   0.001  0.00  0.00    +0.000 A 
ATOM      9  C   UNL     1       0.910   1.461   0.000  0.00  0.00    +0.000 A 
ATOM     10  C   UNL     1      -1.540   0.945  -0.001  0.00  0.00    +0.000 A 
ATOM     11  C   UNL     1       3.763  -0.962  -0.002  0.00  0.00    +0.000 C 
ATOM     12  C   UNL     1      -2.560   0.002  -0.001  0.00  0.00    +0.000 A 
ATOM     13  C   UNL     1      -2.208  -1.337  -0.000  0.00  0.00    +0.000 A 
ATOM     14  H   UNL     1       2.972   1.468   0.000  0.00  0.00    +0.000 HD
ENDROOT
TORSDOF 0
