REMARK  Name = 137272909
REMARK  1 active torsions:
REMARK  status: ('A' for Active; 'I' for Inactive)
REMARK    1  A    between atoms: C_8  and  C_11
REMARK                            x       y       z     vdW  Elec       q    Type
REMARK                         _______ _______ _______ _____ _____    ______ ____
ROOT
ATOM      1  O   UNL     1      -0.242   2.813  -0.127  0.00  0.00    +0.000 OA
ATOM      2  N   UNL     1       1.390   1.207   0.184  0.00  0.00    +0.000 N 
ATOM      3  N   UNL     1       0.873  -1.097   0.310  0.00  0.00    +0.000 NA
ATOM      4  N   UNL     1      -1.339  -1.811   0.119  0.00  0.00    +0.000 NA
ATOM      5  C   UNL     1      -0.911   0.553  -0.021  0.00  0.00    +0.000 A 
ATOM      6  C   UNL     1      -0.482  -0.764   0.132  0.00  0.00    +0.000 A 
ATOM      7  C   UNL     1       1.728  -0.124   0.328  0.00  0.00    +0.000 A 
ATOM      8  C   UNL     1       0.086   1.640   0.004  0.00  0.00    +0.000 A 
ATOM      9  C   UNL     1      -2.269   0.813  -0.192  0.00  0.00    +0.000 A 
ATOM     10  C   UNL     1      -3.162  -0.251  -0.207  0.00  0.00    +0.000 A 
ATOM     11  C   UNL     1      -2.652  -1.530  -0.049  0.00  0.00    +0.000 A 
ATOM     12  H   UNL     1       2.120   1.913   0.208  0.00  0.00    +0.000 HD
ENDROOT
BRANCH   7  14
ATOM     13 CL   UNL     1       3.788  -1.065  -0.998  0.00  0.00    +0.000 Cl
ATOM     14  C   UNL     1       3.193  -0.385   0.515  0.00  0.00    +0.000 C 
ENDBRANCH   7  14
TORSDOF 1
