REMARK  Name = 137211979
REMARK  1 active torsions:
REMARK  status: ('A' for Active; 'I' for Inactive)
REMARK    1  A    between atoms: C_10  and  C_13
REMARK                            x       y       z     vdW  Elec       q    Type
REMARK                         _______ _______ _______ _____ _____    ______ ____
ROOT
ATOM      1  O   UNL     1      -0.293   2.818  -0.000  0.00  0.00    +0.000 OA
ATOM      2  N   UNL     1       1.370   1.214   0.000  0.00  0.00    +0.000 N 
ATOM      3  N   UNL     1       0.873  -1.111   0.000  0.00  0.00    +0.000 NA
ATOM      4  N   UNL     1      -1.349  -1.828  -0.000  0.00  0.00    +0.000 NA
ATOM      5  C   UNL     1      -0.940   0.546   0.000  0.00  0.00    +0.000 A 
ATOM      6  C   UNL     1      -0.496  -0.777   0.000  0.00  0.00    +0.000 A 
ATOM      7  C   UNL     1       0.053   1.643   0.000  0.00  0.00    +0.000 A 
ATOM      8  C   UNL     1      -2.308   0.805   0.000  0.00  0.00    +0.000 A 
ATOM      9  C   UNL     1       1.700  -0.119  -0.000  0.00  0.00    +0.000 A 
ATOM     10  C   UNL     1      -3.196  -0.263   0.000  0.00  0.00    +0.000 A 
ATOM     11  C   UNL     1      -2.672  -1.546  -0.000  0.00  0.00    +0.000 A 
ATOM     12  H   UNL     1       2.106   1.914  -0.000  0.00  0.00    +0.000 HD
ENDROOT
BRANCH   9  14
ATOM     13  N   UNL     1       4.186  -0.856   0.000  0.00  0.00    +0.000 NA
ATOM     14  C   UNL     1       3.074  -0.526  -0.000  0.00  0.00    +0.000 C 
ENDBRANCH   9  14
TORSDOF 1
