REMARK  Name = 137244900
REMARK  1 active torsions:
REMARK  status: ('A' for Active; 'I' for Inactive)
REMARK    1  A    between atoms: C_5  and  C_11
REMARK                            x       y       z     vdW  Elec       q    Type
REMARK                         _______ _______ _______ _____ _____    ______ ____
ROOT
ATOM      1  O   UNL     1       2.049  -2.787   0.255  0.00  0.00    +0.000 OA
ATOM      2  N   UNL     1       0.088  -1.565   0.274  0.00  0.00    +0.000 N 
ATOM      3  N   UNL     1       0.078   0.790   0.057  0.00  0.00    +0.000 NA
ATOM      4  N   UNL     1       2.086   1.951  -0.186  0.00  0.00    +0.000 NA
ATOM      5  C   UNL     1      -0.542  -0.339   0.204  0.00  0.00    +0.000 A 
ATOM      6  C   UNL     1       1.464  -1.713   0.195  0.00  0.00    +0.000 A 
ATOM      7  C   UNL     1       1.481   0.750  -0.034  0.00  0.00    +0.000 A 
ATOM      8  C   UNL     1       2.197  -0.444   0.029  0.00  0.00    +0.000 A 
ATOM      9  C   UNL     1       3.586  -0.411  -0.067  0.00  0.00    +0.000 A 
ATOM     10  C   UNL     1       4.223   0.814  -0.223  0.00  0.00    +0.000 A 
ATOM     11  C   UNL     1       3.436   1.953  -0.277  0.00  0.00    +0.000 A 
ATOM     12  H   UNL     1      -0.470  -2.406   0.387  0.00  0.00    +0.000 HD
ENDROOT
BRANCH   5  13
ATOM     13  C   UNL     1      -2.035  -0.392   0.311  0.00  0.00    +0.000 C 
ATOM     14  C   UNL     1      -2.635  -0.585  -1.083  0.00  0.00    +0.000 C 
ATOM     15  C   UNL     1      -2.555   0.885   0.972  0.00  0.00    +0.000 C 
ATOM     16  C   UNL     1      -4.160  -0.549  -1.048  0.00  0.00    +0.000 C 
ATOM     17  C   UNL     1      -4.081   0.917   1.007  0.00  0.00    +0.000 C 
ATOM     18  C   UNL     1      -4.678   0.724  -0.384  0.00  0.00    +0.000 C 
ENDBRANCH   5  13
TORSDOF 1
