REMARK  Name = 137242031
REMARK  3 active torsions:
REMARK  status: ('A' for Active; 'I' for Inactive)
REMARK    1  A    between atoms: N_3  and  C_7
REMARK    2  A    between atoms: C_6  and  C_9
REMARK    3  A    between atoms: C_9  and  C_12
REMARK                            x       y       z     vdW  Elec       q    Type
REMARK                         _______ _______ _______ _____ _____    ______ ____
ROOT
ATOM      1  N   UNL     1      -2.785   0.336  -0.079  0.00  0.00    +0.000 NA
ATOM      2  C   UNL     1      -0.391   0.021   0.050  0.00  0.00    +0.000 A 
ATOM      3  C   UNL     1      -1.524   0.818   0.001  0.00  0.00    +0.000 A 
ATOM      4  C   UNL     1      -0.564  -1.358   0.015  0.00  0.00    +0.000 A 
ATOM      5  C   UNL     1      -1.845  -1.891  -0.067  0.00  0.00    +0.000 A 
ATOM      6  C   UNL     1      -2.913  -1.009  -0.111  0.00  0.00    +0.000 A 
ENDROOT
BRANCH   3   7
ATOM      7  N   UNL     1      -1.357   2.225   0.039  0.00  0.00    +0.000 N 
ATOM      8  H   UNL     1      -0.571   2.605   0.552  0.00  0.00    +0.000 HD
ATOM      9  H   UNL     1      -2.202   2.781  -0.003  0.00  0.00    +0.000 HD
ENDBRANCH   3   7
BRANCH   2  11
ATOM     10  O   UNL     1       1.292   1.654  -0.344  0.00  0.00    +0.000 OA
ATOM     11  C   UNL     1       0.955   0.570   0.140  0.00  0.00    +0.000 C 
BRANCH  11  14
ATOM     12  N   UNL     1       3.091  -0.468   0.087  0.00  0.00    +0.000 NA
ATOM     13  N   UNL     1       3.994  -0.713  -0.564  0.00  0.00    +0.000 NA
ATOM     14  C   UNL     1       2.047  -0.183   0.834  0.00  0.00    +0.000 C 
ENDBRANCH  11  14
ENDBRANCH   2  11
TORSDOF 3
