REMARK  Name = 13789949
REMARK  0 active torsions:
REMARK  status: ('A' for Active; 'I' for Inactive)
REMARK                            x       y       z     vdW  Elec       q    Type
REMARK                         _______ _______ _______ _____ _____    ______ ____
ROOT
ATOM      1  O   UNL     1       1.408   2.837   0.000  0.00  0.00    +0.000 OA
ATOM      2  N   UNL     1      -0.818  -0.525  -0.001  0.00  0.00    +0.000 N 
ATOM      3  N   UNL     1      -0.667   1.881   0.000  0.00  0.00    +0.000 NA
ATOM      4  N   UNL     1       1.195  -1.889   0.000  0.00  0.00    +0.000 NA
ATOM      5  C   UNL     1       0.602  -0.665  -0.000  0.00  0.00    +0.000 A 
ATOM      6  C   UNL     1       1.373   0.502  -0.000  0.00  0.00    +0.000 A 
ATOM      7  C   UNL     1      -1.354   0.771  -0.000  0.00  0.00    +0.000 A 
ATOM      8  C   UNL     1      -1.671  -1.621  -0.001  0.00  0.00    +0.000 A 
ATOM      9  C   UNL     1       0.709   1.829  -0.000  0.00  0.00    +0.000 A 
ATOM     10  C   UNL     1      -2.853   0.935   0.001  0.00  0.00    +0.000 A 
ATOM     11  C   UNL     1       2.767   0.410   0.000  0.00  0.00    +0.000 A 
ATOM     12  C   UNL     1      -3.007  -1.500   0.000  0.00  0.00    +0.000 A 
ATOM     13  C   UNL     1      -3.600  -0.179   0.001  0.00  0.00    +0.000 A 
ATOM     14  C   UNL     1       3.370  -0.839   0.001  0.00  0.00    +0.000 A 
ATOM     15  C   UNL     1       2.547  -1.948   0.000  0.00  0.00    +0.000 A 
ENDROOT
TORSDOF 0
