REMARK  Name = 138465930
REMARK  3 active torsions:
REMARK  status: ('A' for Active; 'I' for Inactive)
REMARK    1  A    between atoms: S_1  and  N_5
REMARK    2  A    between atoms: S_2  and  N_5
REMARK    3  A    between atoms: C_7  and  C_11
REMARK                            x       y       z     vdW  Elec       q    Type
REMARK                         _______ _______ _______ _____ _____    ______ ____
ROOT
ATOM      1  N   UNL     1       0.472   1.242   0.237  0.00  0.00    +0.000 NA
ATOM      2  N   UNL     1       2.423  -0.100  -0.027  0.00  0.00    +0.000 N 
ATOM      3  C   UNL     1       1.012   0.025  -0.001  0.00  0.00    +0.000 A 
ATOM      4  C   UNL     1      -1.710   0.219   0.039  0.00  0.00    +0.000 A 
ATOM      5  C   UNL     1       0.269  -1.123  -0.225  0.00  0.00    +0.000 A 
ATOM      6  C   UNL     1      -1.117  -1.015  -0.204  0.00  0.00    +0.000 A 
ATOM      7  C   UNL     1      -0.878   1.307   0.251  0.00  0.00    +0.000 A 
ENDROOT
BRANCH   2   8
ATOM      8  S   UNL     1       3.191  -1.535   0.425  0.00  0.00    +0.000 S 
ATOM      9  H   UNL     1       3.661  -1.875  -0.784  0.00  0.00    +0.000 HD
ENDBRANCH   2   8
BRANCH   2  10
ATOM     10  S   UNL     1       3.423   1.195  -0.446  0.00  0.00    +0.000 S 
ATOM     11  H   UNL     1       4.402   0.485  -1.027  0.00  0.00    +0.000 HD
ENDBRANCH   2  10
BRANCH   4  13
ATOM     12  O   UNL     1      -3.932  -0.579  -0.117  0.00  0.00    +0.000 OA
ATOM     13  C   UNL     1      -3.155   0.363   0.068  0.00  0.00    +0.000 C 
ENDBRANCH   4  13
TORSDOF 3
