REMARK  Name = 138571619
REMARK  4 active torsions:
REMARK  status: ('A' for Active; 'I' for Inactive)
REMARK    1  A    between atoms: N_2  and  C_8
REMARK    2  A    between atoms: C_5  and  C_7
REMARK    3  A    between atoms: C_6  and  C_11
REMARK    4  A    between atoms: C_8  and  C_13
REMARK                            x       y       z     vdW  Elec       q    Type
REMARK                         _______ _______ _______ _____ _____    ______ ____
ROOT
ATOM      1  N   UNL     1       2.116  -1.418  -0.121  0.00  0.00    +0.000 NA
ATOM      2  N   UNL     1       4.184  -0.353   0.391  0.00  0.00    +0.000 N 
ATOM      3  C   UNL     1       0.096  -0.096  -0.243  0.00  0.00    +0.000 A 
ATOM      4  C   UNL     1       0.820   1.052   0.061  0.00  0.00    +0.000 A 
ATOM      5  C   UNL     1       2.191   0.966   0.273  0.00  0.00    +0.000 A 
ATOM      6  C   UNL     1       0.784  -1.296  -0.321  0.00  0.00    +0.000 A 
ATOM      7  C   UNL     1       0.151   2.383   0.163  0.00  0.00    +0.000 C 
ATOM      8  C   UNL     1       2.786  -0.281   0.172  0.00  0.00    +0.000 A 
ATOM      9  H   UNL     1       4.747   0.463   0.184  0.00  0.00    +0.000 HD
ATOM     10  H   UNL     1       4.616  -1.266   0.310  0.00  0.00    +0.000 HD
ENDROOT
BRANCH   3  13
ATOM     11  O   UNL     1      -1.814   0.605  -1.409  0.00  0.00    +0.000 OA
ATOM     12  N   UNL     1      -2.138  -0.838   0.377  0.00  0.00    +0.000 N 
ATOM     13  C   UNL     1      -1.340  -0.066  -0.476  0.00  0.00    +0.000 C 
ATOM     14  H   UNL     1      -1.693  -1.359   1.127  0.00  0.00    +0.000 HD
BRANCH  12  15
ATOM     15  C   UNL     1      -3.575  -0.931   0.259  0.00  0.00    +0.000 C 
ATOM     16  C   UNL     1      -4.261   0.272   0.874  0.00  0.00    +0.000 C 
ENDBRANCH  12  15
ENDBRANCH   3  13
TORSDOF 2
