REMARK  Name = 138643510
REMARK  2 active torsions:
REMARK  status: ('A' for Active; 'I' for Inactive)
REMARK    1  A    between atoms: N_5  and  C_20
REMARK    2  A    between atoms: C_18  and  C_19
REMARK                            x       y       z     vdW  Elec       q    Type
REMARK                         _______ _______ _______ _____ _____    ______ ____
ROOT
ATOM      1  O   UNL     1       1.642  -2.353   0.853  0.00  0.00    +0.000 OA
ATOM      2  N   UNL     1       0.218  -0.830  -0.209  0.00  0.00    +0.000 N 
ATOM      3  C   UNL     1      -4.982   0.188  -0.695  0.00  0.00    +0.000 C 
ATOM      4  C   UNL     1      -5.116   1.660  -0.273  0.00  0.00    +0.000 C 
ATOM      5  C   UNL     1      -4.220  -0.666   0.320  0.00  0.00    +0.000 C 
ATOM      6  C   UNL     1      -3.819   2.353   0.173  0.00  0.00    +0.000 C 
ATOM      7  C   UNL     1      -3.961  -2.087  -0.183  0.00  0.00    +0.000 C 
ATOM      8  C   UNL     1      -2.723   2.387  -0.900  0.00  0.00    +0.000 C 
ATOM      9  C   UNL     1      -2.945  -2.857   0.676  0.00  0.00    +0.000 C 
ATOM     10  C   UNL     1      -1.336   2.694  -0.314  0.00  0.00    +0.000 C 
ATOM     11  C   UNL     1      -1.589  -2.165   0.901  0.00  0.00    +0.000 C 
ATOM     12  C   UNL     1      -0.655   1.472   0.322  0.00  0.00    +0.000 C 
ATOM     13  C   UNL     1      -0.841  -1.834  -0.395  0.00  0.00    +0.000 C 
ATOM     14  C   UNL     1      -0.050   0.528  -0.724  0.00  0.00    +0.000 C 
ATOM     15  C   UNL     1       1.405  -1.227   0.419  0.00  0.00    +0.000 C 
ENDROOT
BRANCH  15  17
ATOM     16  N   UNL     1       4.454   0.885  -0.224  0.00  0.00    +0.000 NA
ATOM     17  C   UNL     1       2.469  -0.231   0.590  0.00  0.00    +0.000 A 
ATOM     18  C   UNL     1       3.461  -0.023  -0.355  0.00  0.00    +0.000 A 
ATOM     19  C   UNL     1       2.497   0.544   1.744  0.00  0.00    +0.000 A 
ATOM     20  C   UNL     1       3.503   1.489   1.916  0.00  0.00    +0.000 A 
ATOM     21  C   UNL     1       4.449   1.619   0.912  0.00  0.00    +0.000 A 
BRANCH  18  23
ATOM     22  I   UNL     1       4.701  -0.737  -3.021  0.00  0.00    +0.000 I 
ATOM     23  N   UNL     1       3.439  -0.811  -1.534  0.00  0.00    +0.000 N 
ATOM     24  H   UNL     1       2.647  -1.440  -1.615  0.00  0.00    +0.000 HD
ENDBRANCH  18  23
ENDBRANCH  15  17
TORSDOF 2
