REMARK  Name = 138643423
REMARK  2 active torsions:
REMARK  status: ('A' for Active; 'I' for Inactive)
REMARK    1  A    between atoms: N_5  and  C_19
REMARK    2  A    between atoms: C_17  and  C_18
REMARK                            x       y       z     vdW  Elec       q    Type
REMARK                         _______ _______ _______ _____ _____    ______ ____
ROOT
ATOM      1  O   UNL     1       1.567  -2.545   0.719  0.00  0.00    +0.000 OA
ATOM      2  N   UNL     1      -0.055  -0.937   0.198  0.00  0.00    +0.000 N 
ATOM      3  C   UNL     1      -4.442   1.194   0.342  0.00  0.00    +0.000 C 
ATOM      4  C   UNL     1      -4.094   2.436  -0.483  0.00  0.00    +0.000 C 
ATOM      5  C   UNL     1      -4.200  -0.126  -0.395  0.00  0.00    +0.000 C 
ATOM      6  C   UNL     1      -2.666   2.553  -1.043  0.00  0.00    +0.000 C 
ATOM      7  C   UNL     1      -4.243  -1.328   0.554  0.00  0.00    +0.000 C 
ATOM      8  C   UNL     1      -1.524   2.664  -0.021  0.00  0.00    +0.000 C 
ATOM      9  C   UNL     1      -3.509  -2.573   0.028  0.00  0.00    +0.000 C 
ATOM     10  C   UNL     1      -1.012   1.361   0.606  0.00  0.00    +0.000 C 
ATOM     11  C   UNL     1      -2.040  -2.373  -0.383  0.00  0.00    +0.000 C 
ATOM     12  C   UNL     1      -0.410   0.373  -0.400  0.00  0.00    +0.000 C 
ATOM     13  C   UNL     1      -1.155  -1.772   0.716  0.00  0.00    +0.000 C 
ATOM     14  C   UNL     1       1.245  -1.462   0.230  0.00  0.00    +0.000 C 
ENDROOT
BRANCH  14  16
ATOM     15  N   UNL     1       4.077   0.995  -0.119  0.00  0.00    +0.000 NA
ATOM     16  C   UNL     1       2.336  -0.667  -0.349  0.00  0.00    +0.000 A 
ATOM     17  C   UNL     1       3.070   0.248   0.388  0.00  0.00    +0.000 A 
ATOM     18  C   UNL     1       2.656  -0.827  -1.693  0.00  0.00    +0.000 A 
ATOM     19  C   UNL     1       3.685  -0.076  -2.251  0.00  0.00    +0.000 A 
ATOM     20  C   UNL     1       4.358   0.813  -1.429  0.00  0.00    +0.000 A 
BRANCH  17  22
ATOM     21  I   UNL     1       3.607   1.629   3.026  0.00  0.00    +0.000 I 
ATOM     22  N   UNL     1       2.749   0.419   1.758  0.00  0.00    +0.000 N 
ATOM     23  H   UNL     1       1.958  -0.127   2.084  0.00  0.00    +0.000 HD
ENDBRANCH  17  22
ENDBRANCH  14  16
TORSDOF 2
