REMARK  Name = 139494745
REMARK  4 active torsions:
REMARK  status: ('A' for Active; 'I' for Inactive)
REMARK    1  A    between atoms: N_2  and  C_6
REMARK    2  A    between atoms: C_6  and  C_7
REMARK    3  A    between atoms: C_6  and  C_8
REMARK    4  A    between atoms: C_6  and  C_9
REMARK                            x       y       z     vdW  Elec       q    Type
REMARK                         _______ _______ _______ _____ _____    ______ ____
ROOT
ATOM      1  O   UNL     1      -0.403  -2.209   0.000  0.00  0.00    +0.000 OA
ATOM      2  N   UNL     1      -1.112   0.025   0.000  0.00  0.00    +0.000 N 
ATOM      3  N   UNL     1       0.501   1.769  -0.001  0.00  0.00    +0.000 NA
ATOM      4  N   UNL     1      -1.737   2.350  -0.001  0.00  0.00    +0.000 N 
ATOM      5  N   UNL     1       2.776   1.292  -0.000  0.00  0.00    +0.000 NA
ATOM      6  C   UNL     1      -0.161  -1.006  -0.000  0.00  0.00    +0.000 A 
ATOM      7  C   UNL     1      -0.750   1.390  -0.000  0.00  0.00    +0.000 A 
ATOM      8  C   UNL     1       1.241  -0.556  -0.000  0.00  0.00    +0.000 A 
ATOM      9  C   UNL     1       1.513   0.804  -0.001  0.00  0.00    +0.000 A 
ATOM     10  C   UNL     1       2.301  -1.460  -0.000  0.00  0.00    +0.000 A 
ATOM     11  C   UNL     1       3.604  -0.979   0.001  0.00  0.00    +0.000 A 
ATOM     12  C   UNL     1       3.787   0.393   0.000  0.00  0.00    +0.000 A 
ATOM     13  H   UNL     1      -1.460   3.326  -0.038  0.00  0.00    +0.000 HD
ATOM     14  H   UNL     1      -2.719   2.212   0.165  0.00  0.00    +0.000 HD
ENDROOT
BRANCH   2  15
ATOM     15  C   UNL     1      -2.524  -0.355   0.001  0.00  0.00    +0.000 C 
ATOM     16  C   UNL     1      -2.638  -1.883   0.001  0.00  0.00    +0.000 C 
ATOM     17  C   UNL     1      -3.196   0.216   1.254  0.00  0.00    +0.000 C 
ATOM     18  C   UNL     1      -3.201   0.211  -1.253  0.00  0.00    +0.000 C 
ENDBRANCH   2  15
TORSDOF 1
