REMARK  Name = 139494866
REMARK  4 active torsions:
REMARK  status: ('A' for Active; 'I' for Inactive)
REMARK    1  A    between atoms: N_2  and  C_6
REMARK    2  A    between atoms: C_6  and  C_7
REMARK    3  A    between atoms: C_6  and  C_8
REMARK    4  A    between atoms: C_6  and  C_9
REMARK                            x       y       z     vdW  Elec       q    Type
REMARK                         _______ _______ _______ _____ _____    ______ ____
ROOT
ATOM      1  O   UNL     1       2.328  -2.498   0.160  0.00  0.00    +0.000 OA
ATOM      2  N   UNL     1      -0.910  -0.126   0.033  0.00  0.00    +0.000 N 
ATOM      3  N   UNL     1       0.060  -2.316  -0.052  0.00  0.00    +0.000 NA
ATOM      4  N   UNL     1       0.498   1.851  -0.045  0.00  0.00    +0.000 NA
ATOM      5  N   UNL     1      -2.231  -2.067  -0.191  0.00  0.00    +0.000 N 
ATOM      6  C   UNL     1       0.364   0.499  -0.004  0.00  0.00    +0.000 A 
ATOM      7  C   UNL     1      -0.977  -1.514  -0.064  0.00  0.00    +0.000 A 
ATOM      8  C   UNL     1       1.494  -0.323   0.007  0.00  0.00    +0.000 A 
ATOM      9  C   UNL     1       1.329  -1.795   0.050  0.00  0.00    +0.000 A 
ATOM     10  C   UNL     1       2.771   0.245  -0.016  0.00  0.00    +0.000 A 
ATOM     11  C   UNL     1       1.745   2.377  -0.070  0.00  0.00    +0.000 A 
ATOM     12  C   UNL     1       2.902   1.625  -0.056  0.00  0.00    +0.000 A 
ATOM     13  H   UNL     1      -2.308  -3.073  -0.305  0.00  0.00    +0.000 HD
ATOM     14  H   UNL     1      -3.107  -1.605  -0.017  0.00  0.00    +0.000 HD
ENDROOT
BRANCH   2  15
ATOM     15  C   UNL     1      -2.055   0.782   0.056  0.00  0.00    +0.000 C 
ATOM     16  C   UNL     1      -1.541   2.224   0.034  0.00  0.00    +0.000 C 
ATOM     17  C   UNL     1      -2.918   0.507  -1.177  0.00  0.00    +0.000 C 
ATOM     18  C   UNL     1      -2.858   0.529   1.335  0.00  0.00    +0.000 C 
ENDBRANCH   2  15
TORSDOF 1
