REMARK  Name = 139512276
REMARK  3 active torsions:
REMARK  status: ('A' for Active; 'I' for Inactive)
REMARK    1  A    between atoms: C_7  and  C_9
REMARK    2  A    between atoms: C_7  and  C_13
REMARK    3  A    between atoms: C_11  and  C_15
REMARK                            x       y       z     vdW  Elec       q    Type
REMARK                         _______ _______ _______ _____ _____    ______ ____
ROOT
ATOM      1  I   UNL     1      -2.426  -2.695   0.520  0.00  0.00    +0.000 I 
ATOM      2  O   UNL     1      -2.320   1.553  -0.344  0.00  0.00    +0.000 OA
ATOM      3  N   UNL     1      -1.771  -0.673   0.130  0.00  0.00    +0.000 N 
ATOM      4  N   UNL     1       0.081   0.823   0.458  0.00  0.00    +0.000 NA
ATOM      5  C   UNL     1      -0.353  -0.403   0.088  0.00  0.00    +0.000 A 
ATOM      6  C   UNL     1      -2.668   0.397  -0.087  0.00  0.00    +0.000 C 
ATOM      7  C   UNL     1       0.481  -1.427  -0.331  0.00  0.00    +0.000 A 
ATOM      8  C   UNL     1       2.333   0.071   0.000  0.00  0.00    +0.000 A 
ATOM      9  C   UNL     1       1.848  -1.177  -0.373  0.00  0.00    +0.000 A 
ATOM     10  C   UNL     1       1.416   1.028   0.405  0.00  0.00    +0.000 A 
ENDROOT
BRANCH   8  13
ATOM     11  O   UNL     1       4.199   1.473   0.318  0.00  0.00    +0.000 OA
ATOM     12  N   UNL     1       4.618  -0.649  -0.444  0.00  0.00    +0.000 N 
ATOM     13  C   UNL     1       3.755   0.363  -0.029  0.00  0.00    +0.000 C 
ATOM     14  H   UNL     1       4.339  -1.577  -0.735  0.00  0.00    +0.000 HD
ATOM     15  H   UNL     1       5.617  -0.474  -0.468  0.00  0.00    +0.000 HD
ENDBRANCH   8  13
BRANCH   6  16
ATOM     16  C   UNL     1      -4.152   0.053  -0.032  0.00  0.00    +0.000 C 
ATOM     17  C   UNL     1      -5.042   1.263  -0.281  0.00  0.00    +0.000 C 
ENDBRANCH   6  16
TORSDOF 2
