REMARK  Name = 139520423
REMARK  2 active torsions:
REMARK  status: ('A' for Active; 'I' for Inactive)
REMARK    1  A    between atoms: N_3  and  C_6
REMARK    2  A    between atoms: C_5  and  C_10
REMARK                            x       y       z     vdW  Elec       q    Type
REMARK                         _______ _______ _______ _____ _____    ______ ____
ROOT
ATOM      1  N   UNL     1       0.225   1.655   0.229  0.00  0.00    +0.000 NA
ATOM      2  C   UNL     1      -0.807  -0.523   0.052  0.00  0.00    +0.000 A 
ATOM      3  C   UNL     1       0.284   0.305   0.259  0.00  0.00    +0.000 A 
ATOM      4  C   UNL     1      -2.038   0.072  -0.201  0.00  0.00    +0.000 A 
ATOM      5  C   UNL     1      -2.139   1.458  -0.240  0.00  0.00    +0.000 A 
ATOM      6  C   UNL     1      -0.988   2.198  -0.020  0.00  0.00    +0.000 A 
ENDROOT
BRANCH   3   7
ATOM      7  N   UNL     1       1.551  -0.228   0.521  0.00  0.00    +0.000 NA
ATOM      8  N   UNL     1       3.791  -0.315  -0.288  0.00  0.00    +0.000 N 
ATOM      9  C   UNL     1       2.485   0.078  -0.325  0.00  0.00    +0.000 C 
ATOM     10  H   UNL     1       4.453  -0.027  -1.001  0.00  0.00    +0.000 HD
ATOM     11  H   UNL     1       4.139  -0.909   0.456  0.00  0.00    +0.000 HD
ENDBRANCH   3   7
BRANCH   2  13
ATOM     12  O   UNL     1      -1.662  -2.726  -0.082  0.00  0.00    +0.000 OA
ATOM     13  C   UNL     1      -0.700  -1.974   0.097  0.00  0.00    +0.000 C 
ENDBRANCH   2  13
TORSDOF 2
