REMARK  Name = 139678920
REMARK  3 active torsions:
REMARK  status: ('A' for Active; 'I' for Inactive)
REMARK    1  A    between atoms: S_1  and  N_4
REMARK    2  A    between atoms: N_4  and  C_7
REMARK    3  A    between atoms: C_6  and  C_10
REMARK                            x       y       z     vdW  Elec       q    Type
REMARK                         _______ _______ _______ _____ _____    ______ ____
ROOT
ATOM      1  N   UNL     1      -1.880   0.187   0.042  0.00  0.00    +0.000 NA
ATOM      2  C   UNL     1       0.444  -0.474  -0.025  0.00  0.00    +0.000 A 
ATOM      3  C   UNL     1      -0.561   0.479   0.016  0.00  0.00    +0.000 A 
ATOM      4  C   UNL     1       0.071  -1.813  -0.042  0.00  0.00    +0.000 A 
ATOM      5  C   UNL     1      -1.277  -2.154  -0.016  0.00  0.00    +0.000 A 
ATOM      6  C   UNL     1      -2.205  -1.125   0.025  0.00  0.00    +0.000 A 
ENDROOT
BRANCH   2   9
ATOM      7  O   UNL     1       2.460   0.061  -1.120  0.00  0.00    +0.000 OA
ATOM      8  N   UNL     1       2.512   0.004   1.172  0.00  0.00    +0.000 N 
ATOM      9  C   UNL     1       1.859  -0.127  -0.049  0.00  0.00    +0.000 C 
ATOM     10  H   UNL     1       2.035  -0.139   2.056  0.00  0.00    +0.000 HD
ATOM     11  H   UNL     1       3.495   0.250   1.214  0.00  0.00    +0.000 HD
ENDBRANCH   2   9
BRANCH   3  12
ATOM     12  N   UNL     1      -0.188   1.847   0.036  0.00  0.00    +0.000 N 
ATOM     13  H   UNL     1       0.757   2.030   0.360  0.00  0.00    +0.000 HD
BRANCH  12  14
ATOM     14  S   UNL     1      -1.236   3.115  -0.038  0.00  0.00    +0.000 S 
ATOM     15  H   UNL     1      -0.380   4.041  -0.494  0.00  0.00    +0.000 HD
ENDBRANCH  12  14
ENDBRANCH   3  12
TORSDOF 3
