REMARK  Name = 139691637
REMARK  8 active torsions:
REMARK  status: ('A' for Active; 'I' for Inactive)
REMARK    1  A    between atoms: N_2  and  C_5
REMARK    2  A    between atoms: N_4  and  C_14
REMARK    3  A    between atoms: C_5  and  C_9
REMARK    4  A    between atoms: C_6  and  C_10
REMARK    5  A    between atoms: C_6  and  C_13
REMARK    6  A    between atoms: C_7  and  C_8
REMARK    7  A    between atoms: C_7  and  C_15
REMARK    8  A    between atoms: C_11  and  C_12
REMARK                            x       y       z     vdW  Elec       q    Type
REMARK                         _______ _______ _______ _____ _____    ______ ____
ROOT
ATOM      1  O   UNL     1      -0.831   0.872  -1.601  0.00  0.00    +0.000 OA
ATOM      2  N   UNL     1      -0.847   1.468   0.641  0.00  0.00    +0.000 N 
ATOM      3  C   UNL     1      -1.360   0.847  -0.492  0.00  0.00    +0.000 C 
ATOM      4  H   UNL     1      -1.353   1.394   1.520  0.00  0.00    +0.000 HD
ENDROOT
BRANCH   3   6
ATOM      5  N   UNL     1      -3.975  -1.591   0.738  0.00  0.00    +0.000 NA
ATOM      6  C   UNL     1      -2.651   0.133  -0.321  0.00  0.00    +0.000 A 
ATOM      7  C   UNL     1      -2.813  -0.922   0.564  0.00  0.00    +0.000 A 
ATOM      8  C   UNL     1      -3.752   0.526  -1.074  0.00  0.00    +0.000 A 
ATOM      9  C   UNL     1      -4.964  -0.139  -0.922  0.00  0.00    +0.000 A 
ATOM     10  C   UNL     1      -5.023  -1.181  -0.011  0.00  0.00    +0.000 A 
BRANCH   7  11
ATOM     11  N   UNL     1      -1.695  -1.330   1.333  0.00  0.00    +0.000 N 
ATOM     12  H   UNL     1      -1.843  -2.101   1.973  0.00  0.00    +0.000 HD
ATOM     13  H   UNL     1      -0.768  -1.214   0.942  0.00  0.00    +0.000 HD
ENDBRANCH   7  11
ENDBRANCH   3   6
BRANCH   2  14
ATOM     14  C   UNL     1       0.378   2.217   0.629  0.00  0.00    +0.000 C 
BRANCH  14  15
ATOM     15  C   UNL     1       1.514   1.298   0.943  0.00  0.00    +0.000 C 
ATOM     16  C   UNL     1       2.527   1.060   0.092  0.00  0.00    +0.000 C 
BRANCH  16  17
ATOM     17  C   UNL     1       3.671   0.174   0.316  0.00  0.00    +0.000 C 
ATOM     18  C   UNL     1       4.599   0.058  -0.657  0.00  0.00    +0.000 C 
ATOM     19  C   UNL     1       3.734  -0.574   1.622  0.00  0.00    +0.000 C 
BRANCH  18  20
ATOM     20  C   UNL     1       5.862  -0.756  -0.636  0.00  0.00    +0.000 C 
ATOM     21  C   UNL     1       5.627  -2.161  -1.166  0.00  0.00    +0.000 C 
ENDBRANCH  18  20
ENDBRANCH  16  17
ENDBRANCH  14  15
ENDBRANCH   2  14
TORSDOF 6
