REMARK  Name = 139729466
REMARK  1 active torsions:
REMARK  status: ('A' for Active; 'I' for Inactive)
REMARK    1  A    between atoms: C_10  and  C_15
REMARK                            x       y       z     vdW  Elec       q    Type
REMARK                         _______ _______ _______ _____ _____    ______ ____
ROOT
ATOM      1  O   UNL     1      -1.306  -2.373   1.333  0.00  0.00    +0.000 OA
ATOM      2  N   UNL     1       0.003   1.157   0.564  0.00  0.00    +0.000 NA
ATOM      3  N   UNL     1       2.249   0.921   0.786  0.00  0.00    +0.000 NA
ATOM      4  N   UNL     1       0.112  -1.767  -0.378  0.00  0.00    +0.000 NA
ATOM      5  N   UNL     1      -2.057   1.915  -0.161  0.00  0.00    +0.000 NA
ATOM      6  C   UNL     1       1.031  -0.860  -0.452  0.00  0.00    +0.000 A 
ATOM      7  C   UNL     1       1.047   0.427   0.331  0.00  0.00    +0.000 A 
ATOM      8  C   UNL     1      -1.819  -0.446   0.142  0.00  0.00    +0.000 A 
ATOM      9  C   UNL     1      -1.292   0.838   0.138  0.00  0.00    +0.000 A 
ATOM     10  C   UNL     1       3.309   0.565   0.129  0.00  0.00    +0.000 A 
ATOM     11  C   UNL     1       2.215  -1.048  -1.317  0.00  0.00    +0.000 A 
ATOM     12  C   UNL     1       3.314  -0.338  -1.053  0.00  0.00    +0.000 A 
ATOM     13  C   UNL     1      -0.967  -1.597   0.447  0.00  0.00    +0.000 A 
ATOM     14  C   UNL     1      -3.165  -0.646  -0.158  0.00  0.00    +0.000 A 
ATOM     15  C   UNL     1       4.638   1.107   0.587  0.00  0.00    +0.000 C 
ATOM     16  C   UNL     1      -3.955   0.449  -0.473  0.00  0.00    +0.000 A 
ATOM     17  C   UNL     1      -3.358   1.697  -0.465  0.00  0.00    +0.000 A 
ENDROOT
TORSDOF 0
