REMARK  Name = 139960154
REMARK  8 active torsions:
REMARK  status: ('A' for Active; 'I' for Inactive)
REMARK    1  A    between atoms: S_1  and  C_9
REMARK    2  A    between atoms: S_1  and  C_16
REMARK    3  A    between atoms: N_3  and  C_6
REMARK    4  A    between atoms: N_3  and  C_8
REMARK    5  A    between atoms: N_3  and  C_9
REMARK    6  A    between atoms: C_6  and  C_7
REMARK    7  A    between atoms: C_7  and  C_11
REMARK    8  A    between atoms: C_10  and  C_13
REMARK                            x       y       z     vdW  Elec       q    Type
REMARK                         _______ _______ _______ _____ _____    ______ ____
ROOT
ATOM      1  N   UNL     1       0.749   0.920  -1.626  0.00  0.00    +0.000 NA
ATOM      2  C   UNL     1       0.442   0.287  -0.472  0.00  0.00    +0.000 A 
ATOM      3  C   UNL     1       1.378  -0.308   0.359  0.00  0.00    +0.000 A 
ATOM      4  C   UNL     1       2.715  -0.250  -0.019  0.00  0.00    +0.000 A 
ATOM      5  C   UNL     1       3.070   0.393  -1.200  0.00  0.00    +0.000 A 
ATOM      6  C   UNL     1       2.059   0.957  -1.961  0.00  0.00    +0.000 A 
ENDROOT
BRANCH   3   9
ATOM      7  O   UNL     1       0.982  -0.381   2.679  0.00  0.00    +0.000 OA
ATOM      8  N   UNL     1       0.726  -2.345   1.525  0.00  0.00    +0.000 N 
ATOM      9  C   UNL     1       1.015  -0.987   1.595  0.00  0.00    +0.000 C 
ATOM     10  H   UNL     1       0.770  -2.862   0.653  0.00  0.00    +0.000 HD
ATOM     11  H   UNL     1       0.470  -2.868   2.356  0.00  0.00    +0.000 HD
ENDBRANCH   3   9
BRANCH   2  12
ATOM     12  N   UNL     1      -0.903   0.230  -0.101  0.00  0.00    +0.000 N 
BRANCH  12  13
ATOM     13  C   UNL     1      -1.877  -0.419  -0.975  0.00  0.00    +0.000 C 
BRANCH  13  14
ATOM     14  C   UNL     1      -1.957  -1.913  -0.680  0.00  0.00    +0.000 C 
ATOM     15  C   UNL     1      -2.928  -2.645  -1.597  0.00  0.00    +0.000 C 
ENDBRANCH  13  14
ENDBRANCH  12  13
BRANCH  12  16
ATOM     16  C   UNL     1      -1.403   0.808   1.149  0.00  0.00    +0.000 C 
BRANCH  16  17
ATOM     17  S   UNL     1      -2.599   2.165   0.905  0.00  0.00    +0.000 S 
ATOM     18  C   UNL     1      -1.468   3.490   0.418  0.00  0.00    +0.000 C 
ENDBRANCH  16  17
ENDBRANCH  12  16
ENDBRANCH   2  12
TORSDOF 6
