REMARK  Name = 140073612
REMARK  7 active torsions:
REMARK  status: ('A' for Active; 'I' for Inactive)
REMARK    1  A    between atoms: N_2  and  N_3
REMARK    2  A    between atoms: N_2  and  N_5
REMARK    3  A    between atoms: N_2  and  C_10
REMARK    4  A    between atoms: N_3  and  N_6
REMARK    5  A    between atoms: N_3  and  N_7
REMARK    6  A    between atoms: N_6  and  N_9
REMARK    7  A    between atoms: C_11  and  C_14
REMARK                            x       y       z     vdW  Elec       q    Type
REMARK                         _______ _______ _______ _____ _____    ______ ____
ROOT
ATOM      1  N   UNL     1       0.859   0.232   0.878  0.00  0.00    +0.000 N 
ENDROOT
BRANCH   1   3
ATOM      2  N   UNL     1      -0.200  -1.847   0.410  0.00  0.00    +0.000 NA
ATOM      3  C   UNL     1      -0.262  -0.497   0.376  0.00  0.00    +0.000 A 
ATOM      4  C   UNL     1      -1.341   0.217  -0.118  0.00  0.00    +0.000 A 
ATOM      5  C   UNL     1      -2.427  -0.500  -0.608  0.00  0.00    +0.000 A 
ATOM      6  C   UNL     1      -2.400  -1.890  -0.590  0.00  0.00    +0.000 A 
ATOM      7  C   UNL     1      -1.273  -2.510  -0.075  0.00  0.00    +0.000 A 
BRANCH   4  10
ATOM      8  O   UNL     1      -1.849   2.325   0.801  0.00  0.00    +0.000 OA
ATOM      9  N   UNL     1      -0.881   2.309  -1.278  0.00  0.00    +0.000 N 
ATOM     10  C   UNL     1      -1.377   1.673  -0.145  0.00  0.00    +0.000 C 
ATOM     11  H   UNL     1      -0.498   1.792  -2.063  0.00  0.00    +0.000 HD
ATOM     12  H   UNL     1      -0.888   3.321  -1.353  0.00  0.00    +0.000 HD
ENDBRANCH   4  10
ENDBRANCH   1   3
BRANCH   1  13
ATOM     13  N   UNL     1       0.718   1.124   1.950  0.00  0.00    +0.000 NA
ATOM     14  H   UNL     1      -0.177   0.970   2.412  0.00  0.00    +0.000 HD
ATOM     15  H   UNL     1       0.696   2.072   1.579  0.00  0.00    +0.000 HD
ENDBRANCH   1  13
BRANCH   1  16
ATOM     16  N   UNL     1       2.136   0.033   0.320  0.00  0.00    +0.000 NA
BRANCH  16  17
ATOM     17  N   UNL     1       2.764  -1.146   0.826  0.00  0.00    +0.000 NA
ATOM     18  H   UNL     1       2.758  -1.110   1.844  0.00  0.00    +0.000 HD
ATOM     19  H   UNL     1       2.207  -1.959   0.568  0.00  0.00    +0.000 HD
ENDBRANCH  16  17
BRANCH  16  20
ATOM     20  N   UNL     1       2.137   0.033  -1.111  0.00  0.00    +0.000 NA
ATOM     21  H   UNL     1       1.920  -0.904  -1.448  0.00  0.00    +0.000 HD
BRANCH  20  22
ATOM     22  N   UNL     1       3.396   0.444  -1.635  0.00  0.00    +0.000 NA
ATOM     23  H   UNL     1       3.614   1.373  -1.278  0.00  0.00    +0.000 HD
ATOM     24  H   UNL     1       4.122  -0.174  -1.276  0.00  0.00    +0.000 HD
ENDBRANCH  20  22
ENDBRANCH  16  20
ENDBRANCH   1  16
TORSDOF 7
