REMARK  Name = 140330855
REMARK  1 active torsions:
REMARK  status: ('A' for Active; 'I' for Inactive)
REMARK    1  A    between atoms: C_13  and  C_15
REMARK                            x       y       z     vdW  Elec       q    Type
REMARK                         _______ _______ _______ _____ _____    ______ ____
ROOT
ATOM      1  O   UNL     1       2.760   2.209   0.001  0.00  0.00    +0.000 OA
ATOM      2  O   UNL     1       2.704  -2.228  -0.004  0.00  0.00    +0.000 OA
ATOM      3  N   UNL     1       1.936   0.001  -0.000  0.00  0.00    +0.000 N 
ATOM      4  N   UNL     1      -0.093   1.214   0.003  0.00  0.00    +0.000 NA
ATOM      5  C   UNL     1       3.992  -0.025  -0.003  0.00  0.00    +0.000 C 
ATOM      6  C   UNL     1       2.846   1.002  -0.000  0.00  0.00    +0.000 C 
ATOM      7  C   UNL     1       2.821  -1.024  -0.003  0.00  0.00    +0.000 C 
ATOM      8  C   UNL     1       0.536   0.018   0.002  0.00  0.00    +0.000 A 
ATOM      9  C   UNL     1      -0.118  -1.203   0.003  0.00  0.00    +0.000 A 
ATOM     10  C   UNL     1      -1.509  -1.196   0.004  0.00  0.00    +0.000 A 
ATOM     11  C   UNL     1      -2.192   0.015   0.004  0.00  0.00    +0.000 A 
ATOM     12  C   UNL     1      -1.445   1.181   0.004  0.00  0.00    +0.000 A 
ENDROOT
BRANCH  11  15
ATOM     13  O   UNL     1      -4.264   1.136  -0.013  0.00  0.00    +0.000 OA
ATOM     14  N   UNL     1      -4.329  -1.157  -0.000  0.00  0.00    +0.000 N 
ATOM     15  C   UNL     1      -3.644   0.056   0.003  0.00  0.00    +0.000 C 
ATOM     16  H   UNL     1      -3.901  -2.074   0.007  0.00  0.00    +0.000 HD
ATOM     17  H   UNL     1      -5.344  -1.156  -0.008  0.00  0.00    +0.000 HD
ENDBRANCH  11  15
TORSDOF 1
