REMARK  Name = 140385835
REMARK  2 active torsions:
REMARK  status: ('A' for Active; 'I' for Inactive)
REMARK    1  A    between atoms: C_6  and  C_7
REMARK    2  A    between atoms: C_7  and  C_14
REMARK                            x       y       z     vdW  Elec       q    Type
REMARK                         _______ _______ _______ _____ _____    ______ ____
ROOT
ATOM      1  O   UNL     1      -1.861   2.322   1.311  0.00  0.00    +0.000 OA
ATOM      2  N   UNL     1       2.048  -0.549   0.807  0.00  0.00    +0.000 NA
ATOM      3  N   UNL     1      -0.155  -1.042   0.580  0.00  0.00    +0.000 NA
ATOM      4  N   UNL     1      -0.376   1.867  -0.390  0.00  0.00    +0.000 NA
ATOM      5  N   UNL     1      -2.112  -2.037  -0.145  0.00  0.00    +0.000 NA
ATOM      6  C   UNL     1       3.063  -0.081   0.150  0.00  0.00    +0.000 A 
ATOM      7  C   UNL     1       0.640   1.070  -0.453  0.00  0.00    +0.000 A 
ATOM      8  C   UNL     1       0.800  -0.200   0.343  0.00  0.00    +0.000 A 
ATOM      9  C   UNL     1       2.971   0.805  -1.040  0.00  0.00    +0.000 A 
ATOM     10  C   UNL     1       1.799   1.383  -1.315  0.00  0.00    +0.000 A 
ATOM     11  C   UNL     1      -2.146   0.339   0.136  0.00  0.00    +0.000 A 
ATOM     12  C   UNL     1      -1.476  -0.876   0.146  0.00  0.00    +0.000 A 
ATOM     13  C   UNL     1      -1.432   1.583   0.433  0.00  0.00    +0.000 A 
ATOM     14  C   UNL     1      -3.505   0.382  -0.172  0.00  0.00    +0.000 A 
ATOM     15  C   UNL     1      -4.163  -0.799  -0.479  0.00  0.00    +0.000 A 
ATOM     16  C   UNL     1      -3.428  -1.971  -0.457  0.00  0.00    +0.000 A 
ENDROOT
BRANCH   6  17
ATOM     17  C   UNL     1       4.444  -0.464   0.619  0.00  0.00    +0.000 C 
ATOM     18  C   UNL     1       4.889  -1.730  -0.072  0.00  0.00    +0.000 C 
ENDBRANCH   6  17
TORSDOF 1
