REMARK  Name = 140330856
REMARK  1 active torsions:
REMARK  status: ('A' for Active; 'I' for Inactive)
REMARK    1  A    between atoms: C_11  and  C_16
REMARK                            x       y       z     vdW  Elec       q    Type
REMARK                         _______ _______ _______ _____ _____    ______ ____
ROOT
ATOM      1  O   UNL     1      -2.284  -2.313  -0.019  0.00  0.00    +0.000 OA
ATOM      2  O   UNL     1      -2.229   2.320   0.018  0.00  0.00    +0.000 OA
ATOM      3  N   UNL     1      -1.735  -0.003   0.001  0.00  0.00    +0.000 N 
ATOM      4  N   UNL     1       0.328  -1.216   0.012  0.00  0.00    +0.000 NA
ATOM      5  C   UNL     1      -0.303  -0.020   0.003  0.00  0.00    +0.000 A 
ATOM      6  C   UNL     1      -2.544  -1.121   0.008  0.00  0.00    +0.000 C 
ATOM      7  C   UNL     1      -2.517   1.135  -0.010  0.00  0.00    +0.000 C 
ATOM      8  C   UNL     1       0.351   1.202  -0.006  0.00  0.00    +0.000 A 
ATOM      9  C   UNL     1       2.426  -0.014   0.004  0.00  0.00    +0.000 A 
ATOM     10  C   UNL     1      -3.934  -0.641   0.008  0.00  0.00    +0.000 C 
ATOM     11  C   UNL     1      -3.918   0.688  -0.014  0.00  0.00    +0.000 C 
ATOM     12  C   UNL     1       1.742   1.196  -0.005  0.00  0.00    +0.000 A 
ATOM     13  C   UNL     1       1.679  -1.181   0.013  0.00  0.00    +0.000 A 
ENDROOT
BRANCH   9  16
ATOM     14  O   UNL     1       4.498  -1.134  -0.005  0.00  0.00    +0.000 OA
ATOM     15  N   UNL     1       4.562   1.158  -0.009  0.00  0.00    +0.000 N 
ATOM     16  C   UNL     1       3.878  -0.055   0.003  0.00  0.00    +0.000 C 
ATOM     17  H   UNL     1       4.134   2.075  -0.009  0.00  0.00    +0.000 HD
ATOM     18  H   UNL     1       5.577   1.159  -0.018  0.00  0.00    +0.000 HD
ENDBRANCH   9  16
TORSDOF 1
