REMARK  Name = 14045773
REMARK  2 active torsions:
REMARK  status: ('A' for Active; 'I' for Inactive)
REMARK    1  A    between atoms: N_3  and  C_8
REMARK    2  A    between atoms: C_6  and  C_8
REMARK                            x       y       z     vdW  Elec       q    Type
REMARK                         _______ _______ _______ _____ _____    ______ ____
ROOT
ATOM      1  N   UNL     1       1.698  -0.203  -0.785  0.00  0.00    +0.000 NA
ATOM      2  N   UNL     1       3.547   1.206  -0.157  0.00  0.00    +0.000 N 
ATOM      3  N   UNL     1       2.238   0.233   1.438  0.00  0.00    +0.000 N 
ATOM      4  C   UNL     1       2.463   0.394   0.091  0.00  0.00    +0.000 C 
ATOM      5  H   UNL     1       3.839   1.413  -1.106  0.00  0.00    +0.000 HD
ATOM      6  H   UNL     1       4.081   1.623   0.598  0.00  0.00    +0.000 HD
ATOM      7  H   UNL     1       1.489  -0.342   1.805  0.00  0.00    +0.000 HD
ATOM      8  H   UNL     1       2.829   0.694   2.122  0.00  0.00    +0.000 HD
ENDROOT
BRANCH   1  10
ATOM      9  O   UNL     1       0.750  -2.223  -0.176  0.00  0.00    +0.000 OA
ATOM     10  C   UNL     1       0.633  -0.997  -0.362  0.00  0.00    +0.000 C 
BRANCH  10  12
ATOM     11  N   UNL     1      -2.987  -0.498   0.414  0.00  0.00    +0.000 NA
ATOM     12  C   UNL     1      -0.650  -0.339  -0.184  0.00  0.00    +0.000 A 
ATOM     13  C   UNL     1      -0.797   1.022  -0.428  0.00  0.00    +0.000 A 
ATOM     14  C   UNL     1      -1.765  -1.048   0.232  0.00  0.00    +0.000 A 
ATOM     15  C   UNL     1      -2.038   1.624  -0.251  0.00  0.00    +0.000 A 
ATOM     16  C   UNL     1      -3.092   0.827   0.168  0.00  0.00    +0.000 A 
ENDBRANCH  10  12
ENDBRANCH   1  10
TORSDOF 2
