REMARK  Name = 140671083
REMARK  4 active torsions:
REMARK  status: ('A' for Active; 'I' for Inactive)
REMARK    1  A    between atoms: N_5  and  C_8
REMARK    2  A    between atoms: N_5  and  C_10
REMARK    3  A    between atoms: C_8  and  C_11
REMARK    4  A    between atoms: C_14  and  C_16
REMARK                            x       y       z     vdW  Elec       q    Type
REMARK                         _______ _______ _______ _____ _____    ______ ____
ROOT
ATOM      1  N   UNL     1       1.567  -1.017  -0.456  0.00  0.00    +0.000 N 
ATOM      2  N   UNL     1      -0.160   0.616  -0.622  0.00  0.00    +0.000 NA
ATOM      3  C   UNL     1       0.207  -0.646  -0.308  0.00  0.00    +0.000 A 
ATOM      4  C   UNL     1       1.995  -2.359  -0.129  0.00  0.00    +0.000 C 
ATOM      5  C   UNL     1      -0.667  -1.616   0.155  0.00  0.00    +0.000 A 
ATOM      6  C   UNL     1      -2.005  -1.268   0.306  0.00  0.00    +0.000 A 
ATOM      7  C   UNL     1      -2.421   0.021  -0.006  0.00  0.00    +0.000 A 
ATOM      8  C   UNL     1      -1.468   0.918  -0.462  0.00  0.00    +0.000 A 
ENDROOT
BRANCH   7  11
ATOM      9  O   UNL     1      -4.671  -0.378   0.564  0.00  0.00    +0.000 OA
ATOM     10  N   UNL     1      -4.154   1.724  -0.192  0.00  0.00    +0.000 N 
ATOM     11  C   UNL     1      -3.811   0.416   0.140  0.00  0.00    +0.000 C 
ATOM     12  H   UNL     1      -3.516   2.430  -0.538  0.00  0.00    +0.000 HD
ATOM     13  H   UNL     1      -5.117   2.028  -0.093  0.00  0.00    +0.000 HD
ENDBRANCH   7  11
BRANCH   1  14
ATOM     14  C   UNL     1       2.534  -0.057  -0.942  0.00  0.00    +0.000 C 
BRANCH  14  18
ATOM     15  F   UNL     1       4.012   1.630  -0.234  0.00  0.00    +0.000 F 
ATOM     16  F   UNL     1       2.162   1.387   0.893  0.00  0.00    +0.000 F 
ATOM     17  F   UNL     1       3.761  -0.092   1.079  0.00  0.00    +0.000 F 
ATOM     18  C   UNL     1       3.118   0.720   0.213  0.00  0.00    +0.000 C 
ENDBRANCH  14  18
ENDBRANCH   1  14
TORSDOF 3
