REMARK  Name = 140808813
REMARK  6 active torsions:
REMARK  status: ('A' for Active; 'I' for Inactive)
REMARK    1  A    between atoms: N_2  and  C_7
REMARK    2  A    between atoms: N_3  and  C_8
REMARK    3  A    between atoms: N_5  and  C_14
REMARK    4  A    between atoms: C_6  and  C_7
REMARK    5  A    between atoms: C_6  and  C_8
REMARK    6  A    between atoms: C_9  and  C_10
REMARK                            x       y       z     vdW  Elec       q    Type
REMARK                         _______ _______ _______ _____ _____    ______ ____
ROOT
ATOM      1  O   UNL     1       1.243   2.100   0.632  0.00  0.00    +0.000 OA
ATOM      2  N   UNL     1       1.851   0.412  -0.839  0.00  0.00    +0.000 N 
ATOM      3  C   UNL     1       0.951   1.122  -0.052  0.00  0.00    +0.000 C 
ATOM      4  H   UNL     1       1.554  -0.421  -1.336  0.00  0.00    +0.000 HD
ENDROOT
BRANCH   3   6
ATOM      5  N   UNL     1      -2.557   0.410   1.119  0.00  0.00    +0.000 NA
ATOM      6  C   UNL     1      -0.447   0.620  -0.043  0.00  0.00    +0.000 A 
ATOM      7  C   UNL     1      -0.964  -0.083  -1.125  0.00  0.00    +0.000 A 
ATOM      8  C   UNL     1      -1.276   0.838   1.046  0.00  0.00    +0.000 A 
ATOM      9  C   UNL     1      -2.277  -0.539  -1.087  0.00  0.00    +0.000 A 
ATOM     10  C   UNL     1      -3.025  -0.270   0.048  0.00  0.00    +0.000 A 
BRANCH  10  11
ATOM     11  N   UNL     1      -4.330  -0.734   0.063  0.00  0.00    +0.000 NA
ATOM     12  C   UNL     1      -5.435  -1.128   0.075  0.00  0.00    +0.000 C 
ENDBRANCH  10  11
ENDBRANCH   3   6
BRANCH   2  13
ATOM     13  C   UNL     1       3.243   0.760  -0.933  0.00  0.00    +0.000 C 
BRANCH  13  14
ATOM     14  C   UNL     1       4.095   0.054   0.118  0.00  0.00    +0.000 C 
BRANCH  14  15
ATOM     15  C   UNL     1       4.043  -1.468  -0.017  0.00  0.00    +0.000 C 
BRANCH  15  16
ATOM     16  N   UNL     1       4.886  -2.093   0.997  0.00  0.00    +0.000 NA
ATOM     17  H   UNL     1       4.804  -3.107   0.927  0.00  0.00    +0.000 HD
ATOM     18  H   UNL     1       4.548  -1.843   1.926  0.00  0.00    +0.000 HD
ENDBRANCH  15  16
ENDBRANCH  14  15
ENDBRANCH  13  14
ENDBRANCH   2  13
TORSDOF 6
