REMARK  Name = 140829017
REMARK  2 active torsions:
REMARK  status: ('A' for Active; 'I' for Inactive)
REMARK    1  A    between atoms: C_5  and  C_10
REMARK    2  A    between atoms: C_10  and  C_11
REMARK                            x       y       z     vdW  Elec       q    Type
REMARK                         _______ _______ _______ _____ _____    ______ ____
ROOT
ATOM      1  N   UNL     1       1.596   1.264  -0.106  0.00  0.00    +0.000 NA
ATOM      2  N   UNL     1       3.795   0.373   0.107  0.00  0.00    +0.000 N 
ATOM      3  C   UNL     1      -0.301  -0.235  -0.081  0.00  0.00    +0.000 A 
ATOM      4  C   UNL     1       0.551  -1.323   0.070  0.00  0.00    +0.000 A 
ATOM      5  C   UNL     1       1.925  -1.120   0.133  0.00  0.00    +0.000 A 
ATOM      6  C   UNL     1       2.393   0.181   0.041  0.00  0.00    +0.000 A 
ATOM      7  C   UNL     1       0.266   1.026  -0.163  0.00  0.00    +0.000 A 
ATOM      8  H   UNL     1       4.349  -0.300   0.623  0.00  0.00    +0.000 HD
ATOM      9  H   UNL     1       4.132   1.325   0.045  0.00  0.00    +0.000 HD
ENDROOT
BRANCH   3  11
ATOM     10  O   UNL     1      -2.307  -1.512  -0.078  0.00  0.00    +0.000 OA
ATOM     11  C   UNL     1      -1.741  -0.415  -0.149  0.00  0.00    +0.000 C 
BRANCH  11  13
ATOM     12  O   UNL     1      -3.507   0.997   0.538  0.00  0.00    +0.000 OA
ATOM     13  C   UNL     1      -2.668   0.764  -0.313  0.00  0.00    +0.000 C 
ENDBRANCH  11  13
ENDBRANCH   3  11
TORSDOF 2
