REMARK  Name = 140875975
REMARK  2 active torsions:
REMARK  status: ('A' for Active; 'I' for Inactive)
REMARK    1  A    between atoms: C_5  and  C_7
REMARK    2  A    between atoms: C_7  and  C_11
REMARK                            x       y       z     vdW  Elec       q    Type
REMARK                         _______ _______ _______ _____ _____    ______ ____
ROOT
ATOM      1  N   UNL     1      -1.972   0.144  -1.202  0.00  0.00    +0.000 NA
ATOM      2  N   UNL     1      -4.016   0.363   0.003  0.00  0.00    +0.000 N 
ATOM      3  C   UNL     1       0.072  -0.329  -0.001  0.00  0.00    +0.000 A 
ATOM      4  C   UNL     1      -0.628  -0.337   1.201  0.00  0.00    +0.000 A 
ATOM      5  C   UNL     1      -0.640  -0.086  -1.164  0.00  0.00    +0.000 A 
ATOM      6  C   UNL     1      -1.999  -0.105   1.202  0.00  0.00    +0.000 A 
ATOM      7  C   UNL     1      -2.618   0.129  -0.015  0.00  0.00    +0.000 A 
ATOM      8  H   UNL     1      -4.564  -0.050   0.747  0.00  0.00    +0.000 HD
ATOM      9  H   UNL     1      -4.465   0.527  -0.890  0.00  0.00    +0.000 HD
ENDROOT
BRANCH   3  10
ATOM     10  C   UNL     1       1.503  -0.567  -0.036  0.00  0.00    +0.000 C 
ATOM     11  C   UNL     1       1.974  -1.829  -0.173  0.00  0.00    +0.000 C 
BRANCH  10  14
ATOM     12  O   UNL     1       3.754   0.299   0.010  0.00  0.00    +0.000 OA
ATOM     13  N   UNL     1       2.025   1.794   0.138  0.00  0.00    +0.000 N 
ATOM     14  C   UNL     1       2.546   0.524   0.035  0.00  0.00    +0.000 C 
ATOM     15  H   UNL     1       1.032   1.997   0.165  0.00  0.00    +0.000 HD
ATOM     16  H   UNL     1       2.643   2.597   0.195  0.00  0.00    +0.000 HD
ENDBRANCH  10  14
ENDBRANCH   3  10
TORSDOF 2
