REMARK  Name = 141028524
REMARK  2 active torsions:
REMARK  status: ('A' for Active; 'I' for Inactive)
REMARK    1  A    between atoms: N_4  and  C_12
REMARK    2  A    between atoms: C_6  and  C_10
REMARK                            x       y       z     vdW  Elec       q    Type
REMARK                         _______ _______ _______ _____ _____    ______ ____
ROOT
ATOM      1  O   UNL     1       4.115   1.216  -0.239  0.00  0.00    +0.000 OA
ATOM      2  N   UNL     1       1.299   0.767  -0.077  0.00  0.00    +0.000 NA
ATOM      3  N   UNL     1       3.013  -0.859   0.036  0.00  0.00    +0.000 N 
ATOM      4  C   UNL     1      -1.010   0.069   0.093  0.00  0.00    +0.000 A 
ATOM      5  C   UNL     1      -0.608  -1.255   0.225  0.00  0.00    +0.000 A 
ATOM      6  C   UNL     1       1.652  -0.532   0.055  0.00  0.00    +0.000 A 
ATOM      7  C   UNL     1       0.747  -1.570   0.207  0.00  0.00    +0.000 A 
ATOM      8  C   UNL     1      -0.026   1.034  -0.054  0.00  0.00    +0.000 A 
ATOM      9  C   UNL     1       4.094   0.001  -0.103  0.00  0.00    +0.000 C 
ATOM     10  H   UNL     1       3.236  -1.847   0.138  0.00  0.00    +0.000 HD
ENDROOT
BRANCH   4  13
ATOM     11  O   UNL     1      -2.775   1.569   0.460  0.00  0.00    +0.000 OA
ATOM     12  N   UNL     1      -3.328  -0.543  -0.320  0.00  0.00    +0.000 N 
ATOM     13  C   UNL     1      -2.416   0.431   0.105  0.00  0.00    +0.000 C 
ATOM     14  C   UNL     1      -4.756  -0.328  -0.388  0.00  0.00    +0.000 C 
ATOM     15  H   UNL     1      -2.991  -1.430  -0.680  0.00  0.00    +0.000 HD
ENDBRANCH   4  13
TORSDOF 1
