REMARK  Name = 141113237
REMARK  3 active torsions:
REMARK  status: ('A' for Active; 'I' for Inactive)
REMARK    1  A    between atoms: N_3  and  N_6
REMARK    2  A    between atoms: N_4  and  N_5
REMARK    3  A    between atoms: C_7  and  C_12
REMARK                            x       y       z     vdW  Elec       q    Type
REMARK                         _______ _______ _______ _____ _____    ______ ____
ROOT
ATOM      1  N   UNL     1       0.933   1.491  -0.232  0.00  0.00    +0.000 NA
ATOM      2  N   UNL     1       3.035   0.377  -0.100  0.00  0.00    +0.000 N 
ATOM      3  C   UNL     1      -1.105   0.220   0.044  0.00  0.00    +0.000 A 
ATOM      4  C   UNL     1      -0.364  -0.943   0.223  0.00  0.00    +0.000 A 
ATOM      5  C   UNL     1       1.619   0.340  -0.053  0.00  0.00    +0.000 A 
ATOM      6  C   UNL     1       1.024  -0.891   0.175  0.00  0.00    +0.000 A 
ATOM      7  C   UNL     1      -0.415   1.400  -0.178  0.00  0.00    +0.000 A 
ATOM      8  H   UNL     1       3.471   1.276  -0.266  0.00  0.00    +0.000 HD
ENDROOT
BRANCH   3  11
ATOM      9  O   UNL     1      -3.194   1.207   0.443  0.00  0.00    +0.000 OA
ATOM     10  N   UNL     1      -3.182  -1.003  -0.262  0.00  0.00    +0.000 N 
ATOM     11  C   UNL     1      -2.557   0.198   0.089  0.00  0.00    +0.000 C 
ATOM     12  H   UNL     1      -2.672  -1.817  -0.589  0.00  0.00    +0.000 HD
BRANCH  10  13
ATOM     13  N   UNL     1      -4.560  -1.102  -0.223  0.00  0.00    +0.000 NA
ATOM     14  H   UNL     1      -4.863  -1.366  -1.160  0.00  0.00    +0.000 HD
ATOM     15  H   UNL     1      -4.782  -1.894   0.379  0.00  0.00    +0.000 HD
ENDBRANCH  10  13
ENDBRANCH   3  11
BRANCH   2  16
ATOM     16  N   UNL     1       3.748  -0.746   0.071  0.00  0.00    +0.000 NA
ATOM     17  C   UNL     1       5.019  -0.548   0.002  0.00  0.00    +0.000 C 
ENDBRANCH   2  16
TORSDOF 3
