REMARK  Name = 141212359
REMARK  2 active torsions:
REMARK  status: ('A' for Active; 'I' for Inactive)
REMARK    1  A    between atoms: N_2  and  C_8
REMARK    2  A    between atoms: C_10  and  C_12
REMARK                            x       y       z     vdW  Elec       q    Type
REMARK                         _______ _______ _______ _____ _____    ______ ____
ROOT
ATOM      1  N   UNL     1      -0.905   1.876   0.098  0.00  0.00    +0.000 NA
ATOM      2  C   UNL     1      -0.346   0.646   0.034  0.00  0.00    +0.000 A 
ATOM      3  C   UNL     1      -1.071  -0.533  -0.021  0.00  0.00    +0.000 A 
ATOM      4  C   UNL     1      -2.459  -0.446  -0.011  0.00  0.00    +0.000 A 
ATOM      5  C   UNL     1      -3.071   0.801   0.054  0.00  0.00    +0.000 A 
ATOM      6  C   UNL     1      -2.256   1.921   0.106  0.00  0.00    +0.000 A 
ENDROOT
BRANCH   3   9
ATOM      7  O   UNL     1      -0.170  -2.483   0.944  0.00  0.00    +0.000 OA
ATOM      8  N   UNL     1      -0.166  -2.367  -1.346  0.00  0.00    +0.000 N 
ATOM      9  C   UNL     1      -0.440  -1.844  -0.086  0.00  0.00    +0.000 C 
ATOM     10  H   UNL     1      -0.386  -1.863  -2.199  0.00  0.00    +0.000 HD
ATOM     11  H   UNL     1       0.267  -3.279  -1.450  0.00  0.00    +0.000 HD
ENDBRANCH   3   9
BRANCH   2  12
ATOM     12  N   UNL     1       1.069   0.565   0.026  0.00  0.00    +0.000 N 
ATOM     13  N   UNL     1       1.681  -0.489   0.570  0.00  0.00    +0.000 NA
ATOM     14  C   UNL     1       1.904   1.582  -0.525  0.00  0.00    +0.000 C 
ATOM     15  C   UNL     1       3.291   1.025  -0.262  0.00  0.00    +0.000 C 
ATOM     16  C   UNL     1       2.940  -0.253   0.419  0.00  0.00    +0.000 C 
ENDBRANCH   2  12
TORSDOF 2
