REMARK  Name = 141219392
REMARK  1 active torsions:
REMARK  status: ('A' for Active; 'I' for Inactive)
REMARK    1  A    between atoms: C_11  and  C_12
REMARK                            x       y       z     vdW  Elec       q    Type
REMARK                         _______ _______ _______ _____ _____    ______ ____
ROOT
ATOM      1  O   UNL     1      -4.596   1.581  -0.002  0.00  0.00    +0.000 OA
ATOM      2  O   UNL     1      -0.113  -2.482   0.550  0.00  0.00    +0.000 OA
ATOM      3  N   UNL     1      -1.247  -0.645  -0.347  0.00  0.00    +0.000 N 
ATOM      4  C   UNL     1      -1.264   0.729  -0.867  0.00  0.00    +0.000 C 
ATOM      5  C   UNL     1      -2.553  -1.304  -0.350  0.00  0.00    +0.000 C 
ATOM      6  C   UNL     1      -2.195   1.601  -0.036  0.00  0.00    +0.000 C 
ATOM      7  C   UNL     1      -3.550  -0.523   0.496  0.00  0.00    +0.000 C 
ATOM      8  C   UNL     1      -3.551   0.940   0.098  0.00  0.00    +0.000 C 
ATOM      9  C   UNL     1      -0.123  -1.331   0.116  0.00  0.00    +0.000 C 
ENDROOT
BRANCH   9  12
ATOM     10  N   UNL     1       3.202  -0.074  -1.081  0.00  0.00    +0.000 NA
ATOM     11  N   UNL     1       4.828   1.311  -0.027  0.00  0.00    +0.000 N 
ATOM     12  C   UNL     1       1.168  -0.631   0.101  0.00  0.00    +0.000 A 
ATOM     13  C   UNL     1       1.592   0.114   1.196  0.00  0.00    +0.000 A 
ATOM     14  C   UNL     1       2.002  -0.694  -1.003  0.00  0.00    +0.000 A 
ATOM     15  C   UNL     1       2.819   0.766   1.153  0.00  0.00    +0.000 A 
ATOM     16  C   UNL     1       3.580   0.641   0.002  0.00  0.00    +0.000 A 
ATOM     17  H   UNL     1       4.938   2.149   0.531  0.00  0.00    +0.000 HD
ATOM     18  H   UNL     1       5.378   1.222  -0.873  0.00  0.00    +0.000 HD
ENDBRANCH   9  12
TORSDOF 1
