REMARK  Name = 141318752
REMARK  4 active torsions:
REMARK  status: ('A' for Active; 'I' for Inactive)
REMARK    1  A    between atoms: N_5  and  C_12
REMARK    2  A    between atoms: N_5  and  C_13
REMARK    3  A    between atoms: N_7  and  C_10
REMARK    4  A    between atoms: C_8  and  C_9
REMARK                            x       y       z     vdW  Elec       q    Type
REMARK                         _______ _______ _______ _____ _____    ______ ____
ROOT
ATOM      1  N   UNL     1      -1.390  -1.741  -0.767  0.00  0.00    +0.000 NA
ATOM      2  C   UNL     1       0.493  -0.651   0.286  0.00  0.00    +0.000 A 
ATOM      3  C   UNL     1      -0.674  -0.636  -0.460  0.00  0.00    +0.000 A 
ATOM      4  C   UNL     1       0.957  -1.879   0.745  0.00  0.00    +0.000 A 
ATOM      5  C   UNL     1       0.248  -3.038   0.449  0.00  0.00    +0.000 A 
ATOM      6  C   UNL     1      -0.909  -2.916  -0.304  0.00  0.00    +0.000 A 
ENDROOT
BRANCH   2   9
ATOM      7  O   UNL     1       0.949   1.137   1.656  0.00  0.00    +0.000 OA
ATOM      8  N   UNL     1       2.251   0.983  -0.279  0.00  0.00    +0.000 N 
ATOM      9  C   UNL     1       1.250   0.569   0.607  0.00  0.00    +0.000 C 
ATOM     10  C   UNL     1       2.550   0.253  -1.509  0.00  0.00    +0.000 C 
ATOM     11  C   UNL     1       3.060   2.168  -0.036  0.00  0.00    +0.000 C 
ENDBRANCH   2   9
BRANCH   3  15
ATOM     12  S   UNL     1      -2.192   1.446  -0.089  0.00  0.00    +0.000 S 
ATOM     13  O   UNL     1      -2.743   2.716  -0.540  0.00  0.00    +0.000 OA
ATOM     14  O   UNL     1      -2.652   0.955   1.202  0.00  0.00    +0.000 OA
ATOM     15  N   UNL     1      -1.198   0.635  -0.961  0.00  0.00    +0.000 NA
ENDBRANCH   3  15
TORSDOF 2
