REMARK  Name = 141362462
REMARK  2 active torsions:
REMARK  status: ('A' for Active; 'I' for Inactive)
REMARK    1  A    between atoms: N_2  and  C_5
REMARK    2  A    between atoms: C_6  and  C_13
REMARK                            x       y       z     vdW  Elec       q    Type
REMARK                         _______ _______ _______ _____ _____    ______ ____
ROOT
ATOM      1  N   UNL     1      -0.872   1.873   0.108  0.00  0.00    +0.000 NA
ATOM      2  C   UNL     1      -0.340   0.632   0.043  0.00  0.00    +0.000 A 
ATOM      3  C   UNL     1      -1.090  -0.531  -0.018  0.00  0.00    +0.000 A 
ATOM      4  C   UNL     1      -2.475  -0.414  -0.012  0.00  0.00    +0.000 A 
ATOM      5  C   UNL     1      -3.060   0.846   0.053  0.00  0.00    +0.000 A 
ATOM      6  C   UNL     1      -2.222   1.948   0.111  0.00  0.00    +0.000 A 
ENDROOT
BRANCH   3   9
ATOM      7  O   UNL     1      -0.239  -2.506   0.944  0.00  0.00    +0.000 OA
ATOM      8  N   UNL     1      -0.224  -2.382  -1.346  0.00  0.00    +0.000 N 
ATOM      9  C   UNL     1      -0.490  -1.857  -0.086  0.00  0.00    +0.000 C 
ATOM     10  H   UNL     1      -0.427  -1.868  -2.197  0.00  0.00    +0.000 HD
ATOM     11  H   UNL     1       0.189  -3.303  -1.451  0.00  0.00    +0.000 HD
ENDBRANCH   3   9
BRANCH   2  12
ATOM     12  N   UNL     1       1.046   0.547   0.041  0.00  0.00    +0.000 N 
ATOM     13  C   UNL     1       1.799  -0.109   0.980  0.00  0.00    +0.000 A 
ATOM     14  C   UNL     1       1.871   1.109  -0.898  0.00  0.00    +0.000 A 
ATOM     15  C   UNL     1       3.124   0.037   0.634  0.00  0.00    +0.000 A 
ATOM     16  C   UNL     1       3.170   0.807  -0.554  0.00  0.00    +0.000 A 
ENDBRANCH   2  12
TORSDOF 2
