REMARK  Name = 141396873
REMARK  3 active torsions:
REMARK  status: ('A' for Active; 'I' for Inactive)
REMARK    1  A    between atoms: N_4  and  C_7
REMARK    2  A    between atoms: C_6  and  C_9
REMARK    3  A    between atoms: C_9  and  C_12
REMARK                            x       y       z     vdW  Elec       q    Type
REMARK                         _______ _______ _______ _____ _____    ______ ____
ROOT
ATOM      1  N   UNL     1      -2.591   0.452   0.202  0.00  0.00    +0.000 NA
ATOM      2  C   UNL     1      -0.235   0.034  -0.145  0.00  0.00    +0.000 A 
ATOM      3  C   UNL     1      -1.307   0.869   0.123  0.00  0.00    +0.000 A 
ATOM      4  C   UNL     1      -0.496  -1.317  -0.344  0.00  0.00    +0.000 A 
ATOM      5  C   UNL     1      -1.803  -1.785  -0.271  0.00  0.00    +0.000 A 
ATOM      6  C   UNL     1      -2.806  -0.868   0.003  0.00  0.00    +0.000 A 
ENDROOT
BRANCH   3   7
ATOM      7  N   UNL     1      -1.049   2.248   0.331  0.00  0.00    +0.000 N 
ATOM      8  H   UNL     1      -0.165   2.518   0.744  0.00  0.00    +0.000 HD
ATOM      9  H   UNL     1      -1.853   2.834   0.520  0.00  0.00    +0.000 HD
ENDBRANCH   3   7
BRANCH   2  11
ATOM     10  O   UNL     1       1.456   1.647  -0.598  0.00  0.00    +0.000 OA
ATOM     11  C   UNL     1       1.138   0.514  -0.220  0.00  0.00    +0.000 C 
BRANCH  11  14
ATOM     12  O   UNL     1       3.140  -0.629  -0.692  0.00  0.00    +0.000 OA
ATOM     13  N   UNL     1       2.254  -0.791   1.458  0.00  0.00    +0.000 N 
ATOM     14  C   UNL     1       2.299  -0.373   0.154  0.00  0.00    +0.000 C 
ATOM     15  H   UNL     1       1.512  -0.517   2.093  0.00  0.00    +0.000 HD
ATOM     16  H   UNL     1       2.977  -1.394   1.837  0.00  0.00    +0.000 HD
ENDBRANCH  11  14
ENDBRANCH   2  11
TORSDOF 3
