REMARK  Name = 141455651
REMARK  1 active torsions:
REMARK  status: ('A' for Active; 'I' for Inactive)
REMARK    1  A    between atoms: C_12  and  C_15
REMARK                            x       y       z     vdW  Elec       q    Type
REMARK                         _______ _______ _______ _____ _____    ______ ____
ROOT
ATOM      1  N   UNL     1      -1.744   0.001   0.083  0.00  0.00    +0.000 N 
ATOM      2  N   UNL     1       0.335  -1.157   0.300  0.00  0.00    +0.000 NA
ATOM      3  C   UNL     1      -2.417  -1.267  -0.299  0.00  0.00    +0.000 C 
ATOM      4  C   UNL     1      -0.319  -0.000   0.052  0.00  0.00    +0.000 A 
ATOM      5  C   UNL     1      -2.511   1.105   0.442  0.00  0.00    +0.000 C 
ATOM      6  C   UNL     1      -3.914  -1.114  -0.446  0.00  0.00    +0.000 C 
ATOM      7  C   UNL     1       0.310   1.201  -0.232  0.00  0.00    +0.000 A 
ATOM      8  C   UNL     1      -3.847   1.156   0.362  0.00  0.00    +0.000 C 
ATOM      9  C   UNL     1      -4.568   0.016  -0.140  0.00  0.00    +0.000 C 
ATOM     10  C   UNL     1       2.409   0.045  -0.016  0.00  0.00    +0.000 A 
ATOM     11  C   UNL     1       1.700   1.215  -0.265  0.00  0.00    +0.000 A 
ATOM     12  C   UNL     1       1.685  -1.105   0.259  0.00  0.00    +0.000 A 
ENDROOT
BRANCH  10  15
ATOM     13  O   UNL     1       4.519   1.059  -0.273  0.00  0.00    +0.000 OA
ATOM     14  N   UNL     1       4.501  -1.182   0.216  0.00  0.00    +0.000 N 
ATOM     15  C   UNL     1       3.861   0.028  -0.043  0.00  0.00    +0.000 C 
ATOM     16  H   UNL     1       4.040  -2.061   0.416  0.00  0.00    +0.000 HD
ATOM     17  H   UNL     1       5.515  -1.220   0.210  0.00  0.00    +0.000 HD
ENDBRANCH  10  15
TORSDOF 1
