REMARK  Name = 141422730
REMARK  1 active torsions:
REMARK  status: ('A' for Active; 'I' for Inactive)
REMARK    1  A    between atoms: C_11  and  C_12
REMARK                            x       y       z     vdW  Elec       q    Type
REMARK                         _______ _______ _______ _____ _____    ______ ____
ROOT
ATOM      1  F   UNL     1      -3.347  -1.689   1.091  0.00  0.00    +0.000 F 
ATOM      2  F   UNL     1      -3.280  -1.702  -1.093  0.00  0.00    +0.000 F 
ATOM      3  O   UNL     1      -0.047   2.693  -0.069  0.00  0.00    +0.000 OA
ATOM      4  N   UNL     1      -1.306   0.732   0.019  0.00  0.00    +0.000 N 
ATOM      5  C   UNL     1      -1.443  -0.739   0.049  0.00  0.00    +0.000 C 
ATOM      6  C   UNL     1      -2.948  -0.987   0.006  0.00  0.00    +0.000 C 
ATOM      7  C   UNL     1      -3.527   0.386  -0.021  0.00  0.00    +0.000 C 
ATOM      8  C   UNL     1      -2.556   1.302  -0.015  0.00  0.00    +0.000 C 
ATOM      9  C   UNL     1      -0.131   1.468  -0.010  0.00  0.00    +0.000 C 
ENDROOT
BRANCH   9  12
ATOM     10  N   UNL     1       2.894  -0.399  -1.208  0.00  0.00    +0.000 NA
ATOM     11  N   UNL     1       4.679  -1.429  -0.011  0.00  0.00    +0.000 N 
ATOM     12  C   UNL     1       1.128   0.711   0.015  0.00  0.00    +0.000 A 
ATOM     13  C   UNL     1       1.745   0.384   1.217  0.00  0.00    +0.000 A 
ATOM     14  C   UNL     1       1.738   0.299  -1.160  0.00  0.00    +0.000 A 
ATOM     15  C   UNL     1       2.936  -0.333   1.209  0.00  0.00    +0.000 A 
ATOM     16  C   UNL     1       3.465  -0.698  -0.019  0.00  0.00    +0.000 A 
ATOM     17  H   UNL     1       5.317  -1.295   0.764  0.00  0.00    +0.000 HD
ATOM     18  H   UNL     1       5.065  -1.688  -0.910  0.00  0.00    +0.000 HD
ENDBRANCH   9  12
TORSDOF 1
