REMARK  Name = 141506552
REMARK  1 active torsions:
REMARK  status: ('A' for Active; 'I' for Inactive)
REMARK    1  A    between atoms: C_7  and  C_8
REMARK                            x       y       z     vdW  Elec       q    Type
REMARK                         _______ _______ _______ _____ _____    ______ ____
ROOT
ATOM      1 CL   UNL     1       0.976  -2.036  -0.032  0.00  0.00    +0.000 Cl
ATOM      2  O   UNL     1       0.780   1.896   0.033  0.00  0.00    +0.000 OA
ATOM      3  O   UNL     1       3.325   1.085   0.016  0.00  0.00    +0.000 OA
ATOM      4  N   UNL     1       1.462  -0.350  -0.005  0.00  0.00    +0.000 N 
ATOM      5  N   UNL     1       3.674  -1.163  -0.002  0.00  0.00    +0.000 N 
ATOM      6  C   UNL     1       0.493   0.690   0.013  0.00  0.00    +0.000 C 
ATOM      7  C   UNL     1       2.850  -0.052  -0.002  0.00  0.00    +0.000 C 
ATOM      8  H   UNL     1       3.297  -2.104  -0.013  0.00  0.00    +0.000 HD
ATOM      9  H   UNL     1       4.684  -1.068   0.007  0.00  0.00    +0.000 HD
ENDROOT
BRANCH   6  11
ATOM     10  N   UNL     1      -2.928  -0.210   1.213  0.00  0.00    +0.000 NA
ATOM     11  C   UNL     1      -0.914   0.331  -0.010  0.00  0.00    +0.000 A 
ATOM     12  C   UNL     1      -1.597   0.185  -1.212  0.00  0.00    +0.000 A 
ATOM     13  C   UNL     1      -1.619   0.124   1.165  0.00  0.00    +0.000 A 
ATOM     14  C   UNL     1      -2.944  -0.157  -1.204  0.00  0.00    +0.000 A 
ATOM     15  C   UNL     1      -3.558  -0.342   0.025  0.00  0.00    +0.000 A 
ENDBRANCH   6  11
TORSDOF 1
