REMARK  Name = 14173723
REMARK  0 active torsions:
REMARK  status: ('A' for Active; 'I' for Inactive)
REMARK                            x       y       z     vdW  Elec       q    Type
REMARK                         _______ _______ _______ _____ _____    ______ ____
ROOT
ATOM      1  O   UNL     1       1.115   2.381  -0.564  0.00  0.00    +0.000 OA
ATOM      2  N   UNL     1       2.249   0.569   0.217  0.00  0.00    +0.000 N 
ATOM      3  N   UNL     1       2.280  -0.691   0.755  0.00  0.00    +0.000 N 
ATOM      4  N   UNL     1       0.542  -1.779  -0.537  0.00  0.00    +0.000 NA
ATOM      5  N   UNL     1      -1.682  -1.364  -0.167  0.00  0.00    +0.000 NA
ATOM      6  C   UNL     1      -0.219   0.545  -0.026  0.00  0.00    +0.000 A 
ATOM      7  C   UNL     1      -0.438  -0.820  -0.231  0.00  0.00    +0.000 A 
ATOM      8  C   UNL     1       1.092   1.223  -0.143  0.00  0.00    +0.000 C 
ATOM      9  C   UNL     1      -1.328   1.356   0.255  0.00  0.00    +0.000 A 
ATOM     10  C   UNL     1      -2.600   0.805   0.332  0.00  0.00    +0.000 A 
ATOM     11  C   UNL     1       1.713  -1.675  -0.005  0.00  0.00    +0.000 C 
ATOM     12  C   UNL     1      -2.723  -0.550   0.114  0.00  0.00    +0.000 A 
ATOM     13  H   UNL     1       3.156   1.016   0.139  0.00  0.00    +0.000 HD
ATOM     14  H   UNL     1       3.136  -0.886   1.267  0.00  0.00    +0.000 HD
ENDROOT
TORSDOF 0
