REMARK  Name = 14173724
REMARK  1 active torsions:
REMARK  status: ('A' for Active; 'I' for Inactive)
REMARK    1  A    between atoms: C_8  and  C_11
REMARK                            x       y       z     vdW  Elec       q    Type
REMARK                         _______ _______ _______ _____ _____    ______ ____
ROOT
ATOM      1  O   UNL     1       0.141   2.744  -0.603  0.00  0.00    +0.000 OA
ATOM      2  N   UNL     1      -2.043   0.361   0.839  0.00  0.00    +0.000 N 
ATOM      3  N   UNL     1      -1.570   1.509   0.255  0.00  0.00    +0.000 N 
ATOM      4  N   UNL     1      -0.926  -1.300  -0.494  0.00  0.00    +0.000 NA
ATOM      5  N   UNL     1       1.290  -1.780  -0.143  0.00  0.00    +0.000 NA
ATOM      6  C   UNL     1       0.688   0.548  -0.033  0.00  0.00    +0.000 A 
ATOM      7  C   UNL     1       0.354  -0.796  -0.208  0.00  0.00    +0.000 A 
ATOM      8  C   UNL     1      -1.973  -0.769   0.057  0.00  0.00    +0.000 C 
ATOM      9  C   UNL     1      -0.265   1.674  -0.148  0.00  0.00    +0.000 C 
ATOM     10  C   UNL     1       2.029   0.871   0.218  0.00  0.00    +0.000 A 
ATOM     11  C   UNL     1      -3.281  -1.504  -0.147  0.00  0.00    +0.000 C 
ATOM     12  C   UNL     1       2.987  -0.129   0.297  0.00  0.00    +0.000 A 
ATOM     13  C   UNL     1       2.569  -1.430   0.110  0.00  0.00    +0.000 A 
ATOM     14  H   UNL     1      -2.871   0.524   1.405  0.00  0.00    +0.000 HD
ATOM     15  H   UNL     1      -2.250   2.259   0.184  0.00  0.00    +0.000 HD
ENDROOT
TORSDOF 0
