REMARK  Name = 141770134
REMARK  4 active torsions:
REMARK  status: ('A' for Active; 'I' for Inactive)
REMARK    1  A    between atoms: N_2  and  C_10
REMARK    2  A    between atoms: N_4  and  C_12
REMARK    3  A    between atoms: C_7  and  C_11
REMARK    4  A    between atoms: C_13  and  C_14
REMARK                            x       y       z     vdW  Elec       q    Type
REMARK                         _______ _______ _______ _____ _____    ______ ____
ROOT
ATOM      1  N   UNL     1       0.946  -0.081   0.000  0.00  0.00    +0.000 N 
ATOM      2  N   UNL     1      -1.168   1.018  -0.000  0.00  0.00    +0.000 NA
ATOM      3  C   UNL     1      -0.470  -0.139   0.000  0.00  0.00    +0.000 A 
ATOM      4  C   UNL     1      -1.052  -1.397   0.000  0.00  0.00    +0.000 A 
ATOM      5  C   UNL     1      -3.194  -0.302  -0.000  0.00  0.00    +0.000 A 
ATOM      6  C   UNL     1      -2.441  -1.471   0.000  0.00  0.00    +0.000 A 
ATOM      7  C   UNL     1      -2.515   0.906  -0.000  0.00  0.00    +0.000 A 
ATOM      8  H   UNL     1       1.423  -0.977   0.000  0.00  0.00    +0.000 HD
ENDROOT
BRANCH   5  10
ATOM      9  O   UNL     1      -5.352   0.667   0.000  0.00  0.00    +0.000 OA
ATOM     10  C   UNL     1      -4.645  -0.346  -0.000  0.00  0.00    +0.000 C 
ENDBRANCH   5  10
BRANCH   1  11
ATOM     11  C   UNL     1       1.738   1.008   0.000  0.00  0.00    +0.000 C 
ATOM     12  C   UNL     1       3.074   1.046   0.000  0.00  0.00    +0.000 C 
BRANCH  12  13
ATOM     13  N   UNL     1       3.857  -0.070   0.000  0.00  0.00    +0.000 NA
ATOM     14  C   UNL     1       5.128   0.151   0.000  0.00  0.00    +0.000 C 
ATOM     15  C   UNL     1       6.095  -0.993  -0.000  0.00  0.00    +0.000 C 
ENDBRANCH  12  13
ENDBRANCH   1  11
TORSDOF 3
