REMARK  Name = 141741957
REMARK  1 active torsions:
REMARK  status: ('A' for Active; 'I' for Inactive)
REMARK    1  A    between atoms: C_7  and  C_8
REMARK                            x       y       z     vdW  Elec       q    Type
REMARK                         _______ _______ _______ _____ _____    ______ ____
ROOT
ATOM      1  F   UNL     1       1.054  -1.601  -0.495  0.00  0.00    +0.000 F 
ATOM      2  O   UNL     1       0.802   1.808   0.562  0.00  0.00    +0.000 OA
ATOM      3  O   UNL     1       3.319   1.000   0.271  0.00  0.00    +0.000 OA
ATOM      4  N   UNL     1       1.440  -0.333  -0.110  0.00  0.00    +0.000 N 
ATOM      5  N   UNL     1       3.583  -1.175  -0.400  0.00  0.00    +0.000 N 
ATOM      6  C   UNL     1       0.493   0.658   0.212  0.00  0.00    +0.000 C 
ATOM      7  C   UNL     1       2.817  -0.076  -0.053  0.00  0.00    +0.000 C 
ATOM      8  H   UNL     1       3.153  -2.055  -0.664  0.00  0.00    +0.000 HD
ATOM      9  H   UNL     1       4.596  -1.132  -0.401  0.00  0.00    +0.000 HD
ENDROOT
BRANCH   6  11
ATOM     10  N   UNL     1      -2.752  -1.105   0.775  0.00  0.00    +0.000 NA
ATOM     11  C   UNL     1      -0.911   0.308   0.095  0.00  0.00    +0.000 A 
ATOM     12  C   UNL     1      -1.754   1.003  -0.765  0.00  0.00    +0.000 A 
ATOM     13  C   UNL     1      -1.455  -0.729   0.837  0.00  0.00    +0.000 A 
ATOM     14  C   UNL     1      -3.095   0.646  -0.856  0.00  0.00    +0.000 A 
ATOM     15  C   UNL     1      -3.540  -0.405  -0.072  0.00  0.00    +0.000 A 
ENDBRANCH   6  11
TORSDOF 1
