REMARK  Name = 141839417
REMARK  4 active torsions:
REMARK  status: ('A' for Active; 'I' for Inactive)
REMARK    1  A    between atoms: C_7  and  C_8
REMARK    2  A    between atoms: C_7  and  C_9
REMARK    3  A    between atoms: C_7  and  C_10
REMARK    4  A    between atoms: C_7  and  C_11
REMARK                            x       y       z     vdW  Elec       q    Type
REMARK                         _______ _______ _______ _____ _____    ______ ____
ROOT
ATOM      1  O   UNL     1      -2.090   1.645   0.007  0.00  0.00    +0.000 OA
ATOM      2  O   UNL     1       2.475  -2.820  -0.004  0.00  0.00    +0.000 OA
ATOM      3  N   UNL     1      -1.584  -0.617   0.003  0.00  0.00    +0.000 N 
ATOM      4  N   UNL     1       0.456  -1.696  -0.000  0.00  0.00    +0.000 N 
ATOM      5  N   UNL     1       0.334   0.667   0.003  0.00  0.00    +0.000 NA
ATOM      6  N   UNL     1       2.290   1.937   0.003  0.00  0.00    +0.000 NA
ATOM      7  C   UNL     1      -2.458   0.469   0.005  0.00  0.00    +0.000 C 
ATOM      8  C   UNL     1      -0.232  -0.498   0.002  0.00  0.00    +0.000 A 
ATOM      9  C   UNL     1       2.514  -0.460  -0.001  0.00  0.00    +0.000 A 
ATOM     10  C   UNL     1       1.741   0.700   0.002  0.00  0.00    +0.000 A 
ATOM     11  C   UNL     1       1.839  -1.773  -0.002  0.00  0.00    +0.000 A 
ATOM     12  C   UNL     1       3.902  -0.354  -0.003  0.00  0.00    +0.000 A 
ATOM     13  C   UNL     1       4.482   0.908  -0.002  0.00  0.00    +0.000 A 
ATOM     14  C   UNL     1       3.642   2.010   0.001  0.00  0.00    +0.000 A 
ATOM     15  H   UNL     1      -1.964  -1.558   0.005  0.00  0.00    +0.000 HD
ATOM     16  H   UNL     1      -0.073  -2.562  -0.001  0.00  0.00    +0.000 HD
ENDROOT
BRANCH   7  17
ATOM     17  C   UNL     1      -3.951   0.076   0.006  0.00  0.00    +0.000 C 
ATOM     18  C   UNL     1      -4.829   1.335  -0.033  0.00  0.00    +0.000 C 
ATOM     19  C   UNL     1      -4.255  -0.772  -1.242  0.00  0.00    +0.000 C 
ATOM     20  C   UNL     1      -4.276  -0.758   1.255  0.00  0.00    +0.000 C 
ENDBRANCH   7  17
TORSDOF 1
