REMARK  Name = 142105299
REMARK  12 active torsions:
REMARK  status: ('A' for Active; 'I' for Inactive)
REMARK    1  A    between atoms: N_2  and  C_6
REMARK    2  A    between atoms: N_2  and  C_7
REMARK    3  A    between atoms: N_2  and  C_8
REMARK    4  A    between atoms: N_3  and  C_5
REMARK    5  A    between atoms: C_5  and  C_10
REMARK    6  A    between atoms: C_5  and  C_11
REMARK    7  A    between atoms: C_5  and  C_12
REMARK    8  A    between atoms: C_6  and  C_13
REMARK    9  A    between atoms: C_7  and  C_14
REMARK   10  A    between atoms: C_9  and  C_15
REMARK   11  A    between atoms: C_13  and  C_17
REMARK   12  A    between atoms: C_14  and  C_18
REMARK                            x       y       z     vdW  Elec       q    Type
REMARK                         _______ _______ _______ _____ _____    ______ ____
ROOT
ATOM      1  N   UNL     1       2.423   1.411  -0.739  0.00  0.00    +0.000 NA
ATOM      2  C   UNL     1       1.370   0.691  -0.293  0.00  0.00    +0.000 A 
ATOM      3  C   UNL     1       0.169   1.246   0.119  0.00  0.00    +0.000 A 
ATOM      4  C   UNL     1       0.041   2.629   0.070  0.00  0.00    +0.000 A 
ATOM      5  C   UNL     1       1.102   3.405  -0.384  0.00  0.00    +0.000 A 
ATOM      6  C   UNL     1       2.261   2.753  -0.773  0.00  0.00    +0.000 A 
ENDROOT
BRANCH   3   9
ATOM      7  O   UNL     1      -0.821  -0.274   1.606  0.00  0.00    +0.000 OA
ATOM      8  N   UNL     1      -2.143   0.544  -0.113  0.00  0.00    +0.000 N 
ATOM      9  C   UNL     1      -0.970   0.426   0.608  0.00  0.00    +0.000 C 
ATOM     10  H   UNL     1      -2.161   1.136  -0.939  0.00  0.00    +0.000 HD
BRANCH   8  11
ATOM     11  C   UNL     1      -3.351  -0.173   0.254  0.00  0.00    +0.000 C 
ATOM     12  C   UNL     1      -3.101  -1.679   0.118  0.00  0.00    +0.000 C 
ATOM     13  C   UNL     1      -3.720   0.163   1.703  0.00  0.00    +0.000 C 
ATOM     14  C   UNL     1      -4.494   0.249  -0.678  0.00  0.00    +0.000 C 
ENDBRANCH   8  11
ENDBRANCH   3   9
BRANCH   2  15
ATOM     15  N   UNL     1       1.509  -0.719  -0.243  0.00  0.00    +0.000 N 
BRANCH  15  16
ATOM     16  C   UNL     1       0.619  -1.565  -1.006  0.00  0.00    +0.000 C 
BRANCH  16  17
ATOM     17  C   UNL     1       1.090  -1.681  -2.451  0.00  0.00    +0.000 C 
ATOM     18  C   UNL     1       0.209  -2.599  -3.288  0.00  0.00    +0.000 C 
ENDBRANCH  16  17
ENDBRANCH  15  16
BRANCH  15  19
ATOM     19  C   UNL     1       2.548  -1.318   0.564  0.00  0.00    +0.000 C 
BRANCH  19  20
ATOM     20  C   UNL     1       2.108  -1.422   2.021  0.00  0.00    +0.000 C 
ATOM     21  C   UNL     1       3.151  -2.089   2.907  0.00  0.00    +0.000 C 
ENDBRANCH  19  20
ENDBRANCH  15  19
ENDBRANCH   2  15
TORSDOF 7
