REMARK  Name = 142116037
REMARK  1 active torsions:
REMARK  status: ('A' for Active; 'I' for Inactive)
REMARK    1  A    between atoms: C_7  and  C_12
REMARK                            x       y       z     vdW  Elec       q    Type
REMARK                         _______ _______ _______ _____ _____    ______ ____
ROOT
ATOM      1  O   UNL     1       3.237   1.453   0.003  0.00  0.00    +0.000 OA
ATOM      2  N   UNL     1       2.286  -0.701  -0.002  0.00  0.00    +0.000 N 
ATOM      3  N   UNL     1       0.483   0.830   0.004  0.00  0.00    +0.000 NA
ATOM      4  N   UNL     1       4.573  -0.401  -0.005  0.00  0.00    +0.000 N 
ATOM      5  C   UNL     1      -1.784  -0.009   0.004  0.00  0.00    +0.000 A 
ATOM      6  C   UNL     1       0.908  -0.453   0.001  0.00  0.00    +0.000 A 
ATOM      7  C   UNL     1      -1.309  -1.315   0.001  0.00  0.00    +0.000 A 
ATOM      8  C   UNL     1       0.062  -1.550  -0.000  0.00  0.00    +0.000 A 
ATOM      9  C   UNL     1      -0.855   1.020   0.005  0.00  0.00    +0.000 A 
ATOM     10  C   UNL     1       3.335   0.229  -0.001  0.00  0.00    +0.000 C 
ATOM     11  H   UNL     1       2.562  -1.680  -0.005  0.00  0.00    +0.000 HD
ATOM     12  H   UNL     1       4.658  -1.412  -0.008  0.00  0.00    +0.000 HD
ATOM     13  H   UNL     1       5.434   0.136  -0.005  0.00  0.00    +0.000 HD
ENDROOT
BRANCH   5  16
ATOM     14  O   UNL     1      -3.643   1.438  -0.011  0.00  0.00    +0.000 OA
ATOM     15  N   UNL     1      -4.084  -0.812  -0.001  0.00  0.00    +0.000 N 
ATOM     16  C   UNL     1      -3.209   0.271   0.003  0.00  0.00    +0.000 C 
ATOM     17  H   UNL     1      -3.813  -1.788   0.004  0.00  0.00    +0.000 HD
ATOM     18  H   UNL     1      -5.085  -0.646  -0.009  0.00  0.00    +0.000 HD
ENDBRANCH   5  16
TORSDOF 1
