REMARK  Name = 142193516
REMARK  3 active torsions:
REMARK  status: ('A' for Active; 'I' for Inactive)
REMARK    1  A    between atoms: S_1  and  N_4
REMARK    2  A    between atoms: N_4  and  C_6
REMARK    3  A    between atoms: C_5  and  C_10
REMARK                            x       y       z     vdW  Elec       q    Type
REMARK                         _______ _______ _______ _____ _____    ______ ____
ROOT
ATOM      1  N   UNL     1      -0.626   1.486   0.026  0.00  0.00    +0.000 NA
ATOM      2  C   UNL     1      -0.199  -0.893  -0.004  0.00  0.00    +0.000 A 
ATOM      3  C   UNL     1       0.216   0.429   0.020  0.00  0.00    +0.000 A 
ATOM      4  C   UNL     1      -1.566  -1.146  -0.022  0.00  0.00    +0.000 A 
ATOM      5  C   UNL     1      -2.464  -0.084  -0.016  0.00  0.00    +0.000 A 
ATOM      6  C   UNL     1      -1.947   1.202   0.008  0.00  0.00    +0.000 A 
ENDROOT
BRANCH   2   8
ATOM      7  O   UNL     1       1.957  -1.867   0.007  0.00  0.00    +0.000 OA
ATOM      8  C   UNL     1       0.733  -2.012  -0.007  0.00  0.00    +0.000 C 
ENDBRANCH   2   8
BRANCH   3   9
ATOM      9  N   UNL     1       1.609   0.694   0.041  0.00  0.00    +0.000 N 
ATOM     10  H   UNL     1       2.178  -0.050   0.432  0.00  0.00    +0.000 HD
BRANCH   9  11
ATOM     11  S   UNL     1       2.288   2.191  -0.053  0.00  0.00    +0.000 S 
ATOM     12  H   UNL     1       3.511   1.818  -0.456  0.00  0.00    +0.000 HD
ENDBRANCH   9  11
ENDBRANCH   3   9
TORSDOF 3
