REMARK  Name = 142279171
REMARK  1 active torsions:
REMARK  status: ('A' for Active; 'I' for Inactive)
REMARK    1  A    between atoms: C_8  and  C_11
REMARK                            x       y       z     vdW  Elec       q    Type
REMARK                         _______ _______ _______ _____ _____    ______ ____
ROOT
ATOM      1  F   UNL     1      -2.990  -0.952  -0.000  0.00  0.00    +0.000 F 
ATOM      2  O   UNL     1      -0.725  -2.478  -0.000  0.00  0.00    +0.000 OA
ATOM      3  N   UNL     1      -1.733  -0.392   0.000  0.00  0.00    +0.000 N 
ATOM      4  N   UNL     1      -0.481   1.608   0.000  0.00  0.00    +0.000 NA
ATOM      5  N   UNL     1       1.850   1.524  -0.000  0.00  0.00    +0.000 NA
ATOM      6  C   UNL     1       0.657  -0.567   0.000  0.00  0.00    +0.000 A 
ATOM      7  C   UNL     1       0.690   0.827  -0.000  0.00  0.00    +0.000 A 
ATOM      8  C   UNL     1      -1.616   0.983   0.000  0.00  0.00    +0.000 A 
ATOM      9  C   UNL     1      -0.649  -1.256   0.000  0.00  0.00    +0.000 A 
ATOM     10  C   UNL     1       1.855  -1.277   0.001  0.00  0.00    +0.000 A 
ATOM     11  C   UNL     1      -2.908   1.748   0.000  0.00  0.00    +0.000 C 
ATOM     12  C   UNL     1       3.054  -0.576   0.000  0.00  0.00    +0.000 A 
ATOM     13  C   UNL     1       2.998   0.808  -0.000  0.00  0.00    +0.000 A 
ENDROOT
TORSDOF 0
