REMARK  Name = 142750710
REMARK  4 active torsions:
REMARK  status: ('A' for Active; 'I' for Inactive)
REMARK    1  A    between atoms: N_3  and  C_6
REMARK    2  A    between atoms: C_6  and  C_7
REMARK    3  A    between atoms: C_6  and  C_8
REMARK    4  A    between atoms: C_11  and  C_14
REMARK                            x       y       z     vdW  Elec       q    Type
REMARK                         _______ _______ _______ _____ _____    ______ ____
ROOT
ATOM      1 CL   UNL     1      -2.822  -1.841  -0.373  0.00  0.00    +0.000 Cl
ATOM      2  N   UNL     1      -2.092  -0.366   0.120  0.00  0.00    +0.000 N 
ATOM      3  N   UNL     1      -0.163   1.008   0.137  0.00  0.00    +0.000 NA
ATOM      4  C   UNL     1      -0.698  -0.232   0.089  0.00  0.00    +0.000 A 
ATOM      5  C   UNL     1       0.049  -1.397   0.011  0.00  0.00    +0.000 A 
ATOM      6  C   UNL     1       2.022  -0.021   0.027  0.00  0.00    +0.000 A 
ATOM      7  C   UNL     1       1.435  -1.280  -0.020  0.00  0.00    +0.000 A 
ATOM      8  C   UNL     1       1.187   1.082   0.104  0.00  0.00    +0.000 A 
ENDROOT
BRANCH   6  11
ATOM      9  O   UNL     1       4.223  -0.850  -0.090  0.00  0.00    +0.000 OA
ATOM     10  N   UNL     1       3.982   1.426   0.046  0.00  0.00    +0.000 N 
ATOM     11  C   UNL     1       3.466   0.134  -0.004  0.00  0.00    +0.000 C 
ATOM     12  H   UNL     1       3.436   2.276   0.111  0.00  0.00    +0.000 HD
ATOM     13  H   UNL     1       4.988   1.563   0.019  0.00  0.00    +0.000 HD
ENDBRANCH   6  11
BRANCH   2  14
ATOM     14  C   UNL     1      -3.000   0.758   0.200  0.00  0.00    +0.000 C 
ATOM     15  C   UNL     1      -3.336   1.241  -1.204  0.00  0.00    +0.000 C 
ATOM     16  C   UNL     1      -4.253   0.337   0.957  0.00  0.00    +0.000 C 
ENDBRANCH   2  14
TORSDOF 2
