REMARK  Name = 142794569
REMARK  5 active torsions:
REMARK  status: ('A' for Active; 'I' for Inactive)
REMARK    1  A    between atoms: N_7  and  C_10
REMARK    2  A    between atoms: N_7  and  C_12
REMARK    3  A    between atoms: C_10  and  C_11
REMARK    4  A    between atoms: C_11  and  C_13
REMARK    5  A    between atoms: C_14  and  C_17
REMARK                            x       y       z     vdW  Elec       q    Type
REMARK                         _______ _______ _______ _____ _____    ______ ____
ROOT
ATOM      1  N   UNL     1       1.438   1.881   0.021  0.00  0.00    +0.000 NA
ATOM      2  C   UNL     1       1.411   0.530   0.002  0.00  0.00    +0.000 A 
ATOM      3  C   UNL     1       2.544  -0.268  -0.019  0.00  0.00    +0.000 A 
ATOM      4  C   UNL     1       3.784   0.361  -0.021  0.00  0.00    +0.000 A 
ATOM      5  C   UNL     1       3.852   1.750  -0.002  0.00  0.00    +0.000 A 
ATOM      6  C   UNL     1       2.661   2.458   0.018  0.00  0.00    +0.000 A 
ENDROOT
BRANCH   3   9
ATOM      7  O   UNL     1       2.462  -2.352  -1.114  0.00  0.00    +0.000 OA
ATOM      8  N   UNL     1       2.468  -2.389   1.179  0.00  0.00    +0.000 N 
ATOM      9  C   UNL     1       2.483  -1.723  -0.043  0.00  0.00    +0.000 C 
ATOM     10  H   UNL     1       2.491  -1.892   2.064  0.00  0.00    +0.000 HD
ATOM     11  H   UNL     1       2.432  -3.402   1.221  0.00  0.00    +0.000 HD
ENDBRANCH   3   9
BRANCH   2  12
ATOM     12  N   UNL     1       0.172  -0.091   0.001  0.00  0.00    +0.000 N 
ATOM     13  H   UNL     1       0.142  -1.063   0.289  0.00  0.00    +0.000 HD
BRANCH  12  14
ATOM     14  C   UNL     1      -1.082   0.625   0.022  0.00  0.00    +0.000 C 
BRANCH  14  17
ATOM     15  F   UNL     1      -2.151  -1.127  -1.129  0.00  0.00    +0.000 F 
ATOM     16  F   UNL     1      -2.152  -1.200   1.051  0.00  0.00    +0.000 F 
ATOM     17  C   UNL     1      -2.238  -0.360  -0.012  0.00  0.00    +0.000 C 
BRANCH  17  21
ATOM     18  F   UNL     1      -3.745   1.060   1.122  0.00  0.00    +0.000 F 
ATOM     19  F   UNL     1      -4.587  -0.594  -0.025  0.00  0.00    +0.000 F 
ATOM     20  F   UNL     1      -3.732   1.127  -1.058  0.00  0.00    +0.000 F 
ATOM     21  C   UNL     1      -3.587   0.312   0.009  0.00  0.00    +0.000 C 
ENDBRANCH  17  21
ENDBRANCH  14  17
ENDBRANCH  12  14
ENDBRANCH   2  12
TORSDOF 5
