REMARK  Name = 142824273
REMARK  7 active torsions:
REMARK  status: ('A' for Active; 'I' for Inactive)
REMARK    1  A    between atoms: C_5  and  C_7
REMARK    2  A    between atoms: C_6  and  C_12
REMARK    3  A    between atoms: C_7  and  C_14
REMARK    4  A    between atoms: C_11  and  C_15
REMARK    5  A    between atoms: C_13  and  C_16
REMARK    6  A    between atoms: C_13  and  C_18
REMARK    7  A    between atoms: C_16  and  C_20
REMARK                            x       y       z     vdW  Elec       q    Type
REMARK                         _______ _______ _______ _____ _____    ______ ____
ROOT
ATOM      1  O   UNL     1      -2.915  -2.354  -0.934  0.00  0.00    +0.000 OA
ATOM      2  N   UNL     1      -0.850   1.078   0.702  0.00  0.00    +0.000 N 
ATOM      3  N   UNL     1      -0.885  -1.785  -0.179  0.00  0.00    +0.000 N 
ATOM      4  N   UNL     1      -2.858   2.169   0.431  0.00  0.00    +0.000 NA
ATOM      5  C   UNL     1       0.189  -1.106   0.344  0.00  0.00    +0.000 C 
ATOM      6  C   UNL     1       0.186   0.183   0.745  0.00  0.00    +0.000 C 
ATOM      7  C   UNL     1      -2.794  -0.133  -0.234  0.00  0.00    +0.000 A 
ATOM      8  C   UNL     1      -2.171   0.995   0.285  0.00  0.00    +0.000 A 
ATOM      9  C   UNL     1      -2.193  -1.469  -0.459  0.00  0.00    +0.000 C 
ATOM     10  C   UNL     1       1.447   0.800   1.339  0.00  0.00    +0.000 C 
ATOM     11  C   UNL     1      -4.154  -0.014  -0.598  0.00  0.00    +0.000 A 
ATOM     12  C   UNL     1      -4.848   1.177  -0.447  0.00  0.00    +0.000 A 
ATOM     13  C   UNL     1      -4.155   2.239   0.071  0.00  0.00    +0.000 A 
ATOM     14  H   UNL     1      -0.619   2.007   1.042  0.00  0.00    +0.000 HD
ATOM     15  H   UNL     1      -0.692  -2.740  -0.467  0.00  0.00    +0.000 HD
ENDROOT
BRANCH   5  16
ATOM     16  C   UNL     1       1.385  -1.934   0.421  0.00  0.00    +0.000 C 
ATOM     17  C   UNL     1       2.577  -1.399   0.104  0.00  0.00    +0.000 C 
ATOM     18  C   UNL     1       1.116  -3.341   0.871  0.00  0.00    +0.000 C 
BRANCH  17  20
ATOM     19  C   UNL     1       4.025   0.499  -0.641  0.00  0.00    +0.000 C 
ATOM     20  C   UNL     1       2.828  -0.036  -0.324  0.00  0.00    +0.000 C 
ATOM     21  C   UNL     1       5.272  -0.346  -0.567  0.00  0.00    +0.000 C 
BRANCH  19  22
ATOM     22  C   UNL     1       4.257   1.935  -1.060  0.00  0.00    +0.000 C 
ATOM     23  C   UNL     1       4.541   2.842   0.129  0.00  0.00    +0.000 C 
ENDBRANCH  19  22
ENDBRANCH  17  20
ENDBRANCH   5  16
TORSDOF 3
