REMARK  Name = 142987239
REMARK  11 active torsions:
REMARK  status: ('A' for Active; 'I' for Inactive)
REMARK    1  A    between atoms: N_2  and  C_6
REMARK    2  A    between atoms: N_2  and  C_7
REMARK    3  A    between atoms: N_2  and  C_8
REMARK    4  A    between atoms: N_3  and  C_12
REMARK    5  A    between atoms: C_6  and  C_9
REMARK    6  A    between atoms: C_7  and  C_10
REMARK    7  A    between atoms: C_8  and  C_11
REMARK    8  A    between atoms: C_9  and  C_12
REMARK    9  A    between atoms: C_10  and  C_13
REMARK   10  A    between atoms: C_11  and  C_14
REMARK   11  A    between atoms: C_15  and  C_16
REMARK                            x       y       z     vdW  Elec       q    Type
REMARK                         _______ _______ _______ _____ _____    ______ ____
ROOT
ATOM      1  O   UNL     1      -1.550  -2.802   0.269  0.00  0.00    +0.000 OA
ATOM      2  N   UNL     1      -0.190  -1.060  -0.437  0.00  0.00    +0.000 N 
ATOM      3  C   UNL     1      -1.400  -1.626  -0.051  0.00  0.00    +0.000 C 
ATOM      4  H   UNL     1      -0.148  -0.094  -0.742  0.00  0.00    +0.000 HD
ENDROOT
BRANCH   3   7
ATOM      5  N   UNL     1      -4.971  -0.450  -0.272  0.00  0.00    +0.000 NA
ATOM      6  N   UNL     1      -5.922   1.728  -0.112  0.00  0.00    +0.000 N 
ATOM      7  C   UNL     1      -2.578  -0.721  -0.064  0.00  0.00    +0.000 A 
ATOM      8  C   UNL     1      -2.431   0.650   0.113  0.00  0.00    +0.000 A 
ATOM      9  C   UNL     1      -3.858  -1.217  -0.251  0.00  0.00    +0.000 A 
ATOM     10  C   UNL     1      -3.553   1.472   0.097  0.00  0.00    +0.000 A 
ATOM     11  C   UNL     1      -4.789   0.878  -0.098  0.00  0.00    +0.000 A 
ATOM     12  H   UNL     1      -5.884   2.591   0.417  0.00  0.00    +0.000 HD
ATOM     13  H   UNL     1      -6.824   1.289  -0.248  0.00  0.00    +0.000 HD
ENDBRANCH   3   7
BRANCH   2  14
ATOM     14  C   UNL     1       1.033  -1.812  -0.500  0.00  0.00    +0.000 C 
BRANCH  14  15
ATOM     15  C   UNL     1       1.805  -1.787   0.819  0.00  0.00    +0.000 C 
BRANCH  15  16
ATOM     16  C   UNL     1       2.247  -0.391   1.266  0.00  0.00    +0.000 C 
BRANCH  16  17
ATOM     17  N   UNL     1       3.113   0.247   0.283  0.00  0.00    +0.000 NA
BRANCH  17  18
ATOM     18  C   UNL     1       4.483  -0.255   0.399  0.00  0.00    +0.000 C 
BRANCH  18  19
ATOM     19  C   UNL     1       5.236  -0.048  -0.913  0.00  0.00    +0.000 C 
ATOM     20  C   UNL     1       6.657  -0.582  -0.826  0.00  0.00    +0.000 C 
ENDBRANCH  18  19
ENDBRANCH  17  18
BRANCH  17  21
ATOM     21  C   UNL     1       3.090   1.702   0.443  0.00  0.00    +0.000 C 
BRANCH  21  22
ATOM     22  C   UNL     1       1.808   2.281  -0.150  0.00  0.00    +0.000 C 
ATOM     23  C   UNL     1       1.770   3.796  -0.015  0.00  0.00    +0.000 C 
ENDBRANCH  21  22
ENDBRANCH  17  21
ENDBRANCH  16  17
ENDBRANCH  15  16
ENDBRANCH  14  15
ENDBRANCH   2  14
TORSDOF 9
