REMARK  Name = 142990396
REMARK  1 active torsions:
REMARK  status: ('A' for Active; 'I' for Inactive)
REMARK    1  A    between atoms: C_5  and  C_8
REMARK                            x       y       z     vdW  Elec       q    Type
REMARK                         _______ _______ _______ _____ _____    ______ ____
ROOT
ATOM      1  N   UNL     1      -1.996   1.351   0.179  0.00  0.00    +0.000 NA
ATOM      2  C   UNL     1      -0.099  -0.142   0.043  0.00  0.00    +0.000 A 
ATOM      3  C   UNL     1      -0.952  -1.215  -0.196  0.00  0.00    +0.000 A 
ATOM      4  C   UNL     1      -0.666   1.109   0.222  0.00  0.00    +0.000 A 
ATOM      5  C   UNL     1      -2.325  -1.006  -0.248  0.00  0.00    +0.000 A 
ATOM      6  C   UNL     1      -2.793   0.284  -0.056  0.00  0.00    +0.000 A 
ENDROOT
BRANCH   2  10
ATOM      7  F   UNL     1       3.510   0.613  -0.235  0.00  0.00    +0.000 F 
ATOM      8  O   UNL     1       1.836  -1.425   0.421  0.00  0.00    +0.000 OA
ATOM      9  N   UNL     1       2.145   0.759  -0.231  0.00  0.00    +0.000 N 
ATOM     10  C   UNL     1       1.340  -0.329   0.102  0.00  0.00    +0.000 C 
ATOM     11  H   UNL     1       1.772   1.652  -0.536  0.00  0.00    +0.000 HD
ENDBRANCH   2  10
TORSDOF 1
