REMARK  Name = 142987271
REMARK  7 active torsions:
REMARK  status: ('A' for Active; 'I' for Inactive)
REMARK    1  A    between atoms: N_2  and  C_7
REMARK    2  A    between atoms: N_3  and  C_8
REMARK    3  A    between atoms: N_3  and  C_16
REMARK    4  A    between atoms: C_6  and  C_7
REMARK    5  A    between atoms: C_6  and  C_8
REMARK    6  A    between atoms: C_9  and  C_11
REMARK    7  A    between atoms: C_10  and  C_13
REMARK                            x       y       z     vdW  Elec       q    Type
REMARK                         _______ _______ _______ _____ _____    ______ ____
ROOT
ATOM      1  O   UNL     1       0.782  -2.307  -1.132  0.00  0.00    +0.000 OA
ATOM      2  N   UNL     1      -0.409  -0.996   0.366  0.00  0.00    +0.000 N 
ATOM      3  C   UNL     1       0.729  -1.373  -0.336  0.00  0.00    +0.000 C 
ATOM      4  H   UNL     1      -0.369  -0.247   1.048  0.00  0.00    +0.000 HD
ENDROOT
BRANCH   3   7
ATOM      5  N   UNL     1       4.372  -0.481   0.010  0.00  0.00    +0.000 NA
ATOM      6  N   UNL     1       5.439   1.539   0.685  0.00  0.00    +0.000 N 
ATOM      7  C   UNL     1       1.958  -0.585  -0.060  0.00  0.00    +0.000 A 
ATOM      8  C   UNL     1       1.881   0.735   0.370  0.00  0.00    +0.000 A 
ATOM      9  C   UNL     1       3.216  -1.142  -0.223  0.00  0.00    +0.000 A 
ATOM     10  C   UNL     1       3.049   1.448   0.620  0.00  0.00    +0.000 A 
ATOM     11  C   UNL     1       4.258   0.800   0.426  0.00  0.00    +0.000 A 
ATOM     12  H   UNL     1       5.412   2.545   0.573  0.00  0.00    +0.000 HD
ATOM     13  H   UNL     1       6.321   1.064   0.537  0.00  0.00    +0.000 HD
ENDBRANCH   3   7
BRANCH   2  14
ATOM     14  C   UNL     1      -1.668  -1.677   0.227  0.00  0.00    +0.000 C 
BRANCH  14  15
ATOM     15  C   UNL     1      -2.534  -1.076  -0.880  0.00  0.00    +0.000 C 
BRANCH  15  16
ATOM     16  C   UNL     1      -2.849   0.395  -0.665  0.00  0.00    +0.000 C 
ATOM     17  C   UNL     1      -2.404   1.302  -1.558  0.00  0.00    +0.000 C 
ATOM     18  C   UNL     1      -2.603   2.783  -1.511  0.00  0.00    +0.000 C 
BRANCH  16  19
ATOM     19  N   UNL     1      -3.559   0.682   0.469  0.00  0.00    +0.000 N 
ATOM     20  H   UNL     1      -3.533   1.637   0.808  0.00  0.00    +0.000 HD
BRANCH  19  21
ATOM     21  C   UNL     1      -4.469  -0.135   1.045  0.00  0.00    +0.000 C 
ATOM     22  C   UNL     1      -5.191   0.089   2.146  0.00  0.00    +0.000 C 
ENDBRANCH  19  21
ENDBRANCH  16  19
ENDBRANCH  15  16
ENDBRANCH  14  15
ENDBRANCH   2  14
TORSDOF 6
