REMARK  Name = 143014719
REMARK  3 active torsions:
REMARK  status: ('A' for Active; 'I' for Inactive)
REMARK    1  A    between atoms: N_2  and  N_4
REMARK    2  A    between atoms: N_4  and  C_12
REMARK    3  A    between atoms: C_6  and  C_8
REMARK                            x       y       z     vdW  Elec       q    Type
REMARK                         _______ _______ _______ _____ _____    ______ ____
ROOT
ATOM      1  N   UNL     1       2.404   1.022  -0.118  0.00  0.00    +0.000 NA
ATOM      2  N   UNL     1       4.169  -0.574  -0.016  0.00  0.00    +0.000 N 
ATOM      3  C   UNL     1       0.111   0.270   0.023  0.00  0.00    +0.000 A 
ATOM      4  C   UNL     1       0.542  -1.047   0.136  0.00  0.00    +0.000 A 
ATOM      5  C   UNL     1       1.073   1.259  -0.101  0.00  0.00    +0.000 A 
ATOM      6  C   UNL     1       1.904  -1.331   0.123  0.00  0.00    +0.000 A 
ATOM      7  C   UNL     1       2.785  -0.270  -0.005  0.00  0.00    +0.000 A 
ATOM      8  H   UNL     1       4.485  -1.402   0.474  0.00  0.00    +0.000 HD
ATOM      9  H   UNL     1       4.810   0.205  -0.104  0.00  0.00    +0.000 HD
ENDROOT
BRANCH   3  12
ATOM     10  O   UNL     1      -1.691   1.719   0.412  0.00  0.00    +0.000 OA
ATOM     11  N   UNL     1      -2.185  -0.392  -0.415  0.00  0.00    +0.000 N 
ATOM     12  C   UNL     1      -1.304   0.597   0.033  0.00  0.00    +0.000 C 
ATOM     13  H   UNL     1      -1.870  -1.282  -0.787  0.00  0.00    +0.000 HD
BRANCH  11  14
ATOM     14  N   UNL     1      -3.549  -0.142  -0.449  0.00  0.00    +0.000 NA
ATOM     15  C   UNL     1      -4.258  -1.111   0.376  0.00  0.00    +0.000 C 
ATOM     16  H   UNL     1      -3.844  -0.246  -1.420  0.00  0.00    +0.000 HD
ENDBRANCH  11  14
ENDBRANCH   3  12
TORSDOF 2
