REMARK  Name = 143014737
REMARK  7 active torsions:
REMARK  status: ('A' for Active; 'I' for Inactive)
REMARK    1  A    between atoms: N_3  and  C_10
REMARK    2  A    between atoms: C_7  and  C_8
REMARK    3  A    between atoms: C_7  and  C_9
REMARK    4  A    between atoms: C_8  and  C_10
REMARK    5  A    between atoms: C_9  and  C_11
REMARK    6  A    between atoms: C_11  and  C_12
REMARK    7  A    between atoms: C_13  and  C_14
REMARK                            x       y       z     vdW  Elec       q    Type
REMARK                         _______ _______ _______ _____ _____    ______ ____
ROOT
ATOM      1  O   UNL     1       1.578   2.331   1.128  0.00  0.00    +0.000 OA
ATOM      2  N   UNL     1       0.579   1.543  -0.811  0.00  0.00    +0.000 N 
ATOM      3  C   UNL     1       1.522   1.518   0.210  0.00  0.00    +0.000 C 
ATOM      4  H   UNL     1       0.623   0.870  -1.569  0.00  0.00    +0.000 HD
ENDROOT
BRANCH   3   7
ATOM      5  N   UNL     1       3.124  -1.796  -0.592  0.00  0.00    +0.000 NA
ATOM      6  N   UNL     1       5.293  -2.653  -0.102  0.00  0.00    +0.000 N 
ATOM      7  C   UNL     1       2.533   0.432   0.140  0.00  0.00    +0.000 A 
ATOM      8  C   UNL     1       3.793   0.587   0.708  0.00  0.00    +0.000 A 
ATOM      9  C   UNL     1       2.251  -0.768  -0.493  0.00  0.00    +0.000 A 
ATOM     10  C   UNL     1       4.719  -0.447   0.627  0.00  0.00    +0.000 A 
ATOM     11  C   UNL     1       4.339  -1.608  -0.028  0.00  0.00    +0.000 A 
ATOM     12  H   UNL     1       6.276  -2.409  -0.092  0.00  0.00    +0.000 HD
ATOM     13  H   UNL     1       5.013  -3.496  -0.587  0.00  0.00    +0.000 HD
ENDBRANCH   3   7
BRANCH   2  14
ATOM     14  C   UNL     1      -0.447   2.545  -0.896  0.00  0.00    +0.000 C 
BRANCH  14  15
ATOM     15  C   UNL     1      -1.719   2.139  -0.159  0.00  0.00    +0.000 C 
BRANCH  15  16
ATOM     16  C   UNL     1      -2.345   0.861  -0.726  0.00  0.00    +0.000 C 
BRANCH  16  17
ATOM     17  C   UNL     1      -3.612   0.477   0.046  0.00  0.00    +0.000 C 
BRANCH  17  18
ATOM     18  C   UNL     1      -4.244  -0.812  -0.477  0.00  0.00    +0.000 C 
BRANCH  18  21
ATOM     19  O   UNL     1      -5.897  -0.666   1.294  0.00  0.00    +0.000 OA
ATOM     20  N   UNL     1      -6.007  -2.424  -0.182  0.00  0.00    +0.000 N 
ATOM     21  C   UNL     1      -5.460  -1.259   0.313  0.00  0.00    +0.000 C 
ATOM     22  H   UNL     1      -6.822  -2.844   0.252  0.00  0.00    +0.000 HD
ATOM     23  H   UNL     1      -5.625  -2.902  -0.992  0.00  0.00    +0.000 HD
ENDBRANCH  18  21
ENDBRANCH  17  18
ENDBRANCH  16  17
ENDBRANCH  15  16
ENDBRANCH  14  15
ENDBRANCH   2  14
TORSDOF 7
