REMARK  Name = 143084848
REMARK  2 active torsions:
REMARK  status: ('A' for Active; 'I' for Inactive)
REMARK    1  A    between atoms: N_3  and  C_8
REMARK    2  A    between atoms: C_4  and  C_8
REMARK                            x       y       z     vdW  Elec       q    Type
REMARK                         _______ _______ _______ _____ _____    ______ ____
ROOT
ATOM      1  N   UNL     1      -1.954   1.383  -0.001  0.00  0.00    +0.000 NA
ATOM      2  C   UNL     1      -0.087  -0.154   0.001  0.00  0.00    +0.000 A 
ATOM      3  C   UNL     1      -0.966  -1.232   0.001  0.00  0.00    +0.000 A 
ATOM      4  C   UNL     1      -0.627   1.122   0.000  0.00  0.00    +0.000 A 
ATOM      5  C   UNL     1      -2.337  -1.004   0.000  0.00  0.00    +0.000 A 
ATOM      6  C   UNL     1      -2.776   0.310  -0.001  0.00  0.00    +0.000 A 
ENDROOT
BRANCH   2   8
ATOM      7  O   UNL     1       1.821  -1.515  -0.001  0.00  0.00    +0.000 OA
ATOM      8  C   UNL     1       1.350  -0.360   0.000  0.00  0.00    +0.000 C 
BRANCH   8   9
ATOM      9  N   UNL     1       2.147   0.787   0.000  0.00  0.00    +0.000 NA
ATOM     10  C   UNL     1       3.430   0.662  -0.000  0.00  0.00    +0.000 C 
ENDBRANCH   8   9
ENDBRANCH   2   8
TORSDOF 2
