REMARK  Name = 143224743
REMARK  5 active torsions:
REMARK  status: ('A' for Active; 'I' for Inactive)
REMARK    1  A    between atoms: S_1  and  C_9
REMARK    2  A    between atoms: N_3  and  C_6
REMARK    3  A    between atoms: N_3  and  C_7
REMARK    4  A    between atoms: C_6  and  C_9
REMARK    5  A    between atoms: C_8  and  C_12
REMARK                            x       y       z     vdW  Elec       q    Type
REMARK                         _______ _______ _______ _____ _____    ______ ____
ROOT
ATOM      1  N   UNL     1       0.562   1.875  -0.014  0.00  0.00    +0.000 NA
ATOM      2  C   UNL     1       0.218   0.571   0.080  0.00  0.00    +0.000 A 
ATOM      3  C   UNL     1       1.124  -0.476   0.024  0.00  0.00    +0.000 A 
ATOM      4  C   UNL     1       2.469  -0.165  -0.138  0.00  0.00    +0.000 A 
ATOM      5  C   UNL     1       2.862   1.165  -0.238  0.00  0.00    +0.000 A 
ATOM      6  C   UNL     1       1.879   2.139  -0.171  0.00  0.00    +0.000 A 
ENDROOT
BRANCH   3   9
ATOM      7  O   UNL     1       0.645  -2.445   1.225  0.00  0.00    +0.000 OA
ATOM      8  N   UNL     1       0.407  -2.540  -1.054  0.00  0.00    +0.000 N 
ATOM      9  C   UNL     1       0.722  -1.872   0.125  0.00  0.00    +0.000 C 
ATOM     10  H   UNL     1       0.457  -2.086  -1.961  0.00  0.00    +0.000 HD
ATOM     11  H   UNL     1       0.115  -3.512  -1.041  0.00  0.00    +0.000 HD
ENDBRANCH   3   9
BRANCH   2  12
ATOM     12  N   UNL     1      -1.156   0.262   0.242  0.00  0.00    +0.000 N 
ATOM     13  H   UNL     1      -1.441  -0.673  -0.032  0.00  0.00    +0.000 HD
BRANCH  12  14
ATOM     14  C   UNL     1      -2.167   1.265   0.312  0.00  0.00    +0.000 C 
BRANCH  14  15
ATOM     15  C   UNL     1      -3.548   0.649   0.498  0.00  0.00    +0.000 C 
BRANCH  15  16
ATOM     16  S   UNL     1      -4.018  -0.428  -0.891  0.00  0.00    +0.000 S 
ATOM     17  H   UNL     1      -5.223  -0.773  -0.414  0.00  0.00    +0.000 HD
ENDBRANCH  15  16
ENDBRANCH  14  15
ENDBRANCH  12  14
ENDBRANCH   2  12
TORSDOF 5
