REMARK  Name = 143224774
REMARK  4 active torsions:
REMARK  status: ('A' for Active; 'I' for Inactive)
REMARK    1  A    between atoms: S_1  and  C_8
REMARK    2  A    between atoms: N_3  and  C_6
REMARK    3  A    between atoms: C_6  and  C_8
REMARK    4  A    between atoms: C_10  and  C_13
REMARK                            x       y       z     vdW  Elec       q    Type
REMARK                         _______ _______ _______ _____ _____    ______ ____
ROOT
ATOM      1  N   UNL     1       2.184   0.307   0.290  0.00  0.00    +0.000 N 
ATOM      2  N   UNL     1       0.039   1.344   0.253  0.00  0.00    +0.000 NA
ATOM      3  C   UNL     1       0.774   0.211   0.185  0.00  0.00    +0.000 A 
ATOM      4  C   UNL     1       0.235  -1.054   0.018  0.00  0.00    +0.000 A 
ATOM      5  C   UNL     1      -1.937  -0.022  -0.021  0.00  0.00    +0.000 A 
ATOM      6  C   UNL     1      -1.147  -1.165  -0.086  0.00  0.00    +0.000 A 
ATOM      7  C   UNL     1      -1.301   1.197   0.147  0.00  0.00    +0.000 A 
ATOM      8  H   UNL     1       2.567   1.238   0.409  0.00  0.00    +0.000 HD
ENDROOT
BRANCH   5  11
ATOM      9  O   UNL     1      -3.964  -1.197  -0.262  0.00  0.00    +0.000 OA
ATOM     10  N   UNL     1      -4.108   1.082  -0.053  0.00  0.00    +0.000 N 
ATOM     11  C   UNL     1      -3.383  -0.104  -0.127  0.00  0.00    +0.000 C 
ATOM     12  H   UNL     1      -3.714   2.007   0.061  0.00  0.00    +0.000 HD
ATOM     13  H   UNL     1      -5.121   1.053  -0.117  0.00  0.00    +0.000 HD
ENDBRANCH   5  11
BRANCH   1  14
ATOM     14  C   UNL     1       3.040  -0.832   0.230  0.00  0.00    +0.000 C 
BRANCH  14  15
ATOM     15  C   UNL     1       4.504  -0.436   0.380  0.00  0.00    +0.000 C 
BRANCH  15  16
ATOM     16  S   UNL     1       5.061   0.668  -0.955  0.00  0.00    +0.000 S 
ATOM     17  H   UNL     1       6.325   0.798  -0.525  0.00  0.00    +0.000 HD
ENDBRANCH  15  16
ENDBRANCH  14  15
ENDBRANCH   1  14
TORSDOF 4
