REMARK  Name = 143296980
REMARK  7 active torsions:
REMARK  status: ('A' for Active; 'I' for Inactive)
REMARK    1  A    between atoms: N_2  and  C_10
REMARK    2  A    between atoms: N_4  and  C_7
REMARK    3  A    between atoms: C_8  and  C_12
REMARK    4  A    between atoms: C_10  and  C_14
REMARK    5  A    between atoms: C_12  and  C_16
REMARK    6  A    between atoms: C_17  and  C_20
REMARK    7  A    between atoms: C_20  and  C_21
REMARK                            x       y       z     vdW  Elec       q    Type
REMARK                         _______ _______ _______ _____ _____    ______ ____
ROOT
ATOM      1  O   UNL     1      -2.294   2.814  -0.446  0.00  0.00    +0.000 OA
ATOM      2  N   UNL     1      -0.149  -0.395   1.053  0.00  0.00    +0.000 N 
ATOM      3  N   UNL     1      -0.113   2.206  -0.329  0.00  0.00    +0.000 N 
ATOM      4  N   UNL     1      -1.946  -1.772   0.293  0.00  0.00    +0.000 NA
ATOM      5  C   UNL     1       1.002   0.233   0.546  0.00  0.00    +0.000 C 
ATOM      6  C   UNL     1       0.999   1.433  -0.087  0.00  0.00    +0.000 C 
ATOM      7  C   UNL     1      -1.346  -0.543   0.309  0.00  0.00    +0.000 A 
ATOM      8  C   UNL     1      -1.928   0.517  -0.385  0.00  0.00    +0.000 A 
ATOM      9  C   UNL     1      -1.456   1.914  -0.354  0.00  0.00    +0.000 C 
ATOM     10  C   UNL     1      -3.111   0.287  -1.112  0.00  0.00    +0.000 A 
ATOM     11  C   UNL     1      -3.696  -0.968  -1.139  0.00  0.00    +0.000 A 
ATOM     12  C   UNL     1      -3.079  -1.960  -0.417  0.00  0.00    +0.000 A 
ATOM     13  H   UNL     1       0.090   3.177  -0.559  0.00  0.00    +0.000 HD
ENDROOT
BRANCH   5  14
ATOM     14  N   UNL     1       2.252  -0.332   0.741  0.00  0.00    +0.000 NA
ATOM     15  N   UNL     1       3.885  -1.808  -0.274  0.00  0.00    +0.000 N 
ATOM     16  C   UNL     1       2.702  -1.106  -0.186  0.00  0.00    +0.000 C 
ATOM     17  H   UNL     1       4.178  -2.396  -1.042  0.00  0.00    +0.000 HD
ATOM     18  H   UNL     1       4.554  -1.740   0.488  0.00  0.00    +0.000 HD
BRANCH  16  19
ATOM     19  C   UNL     1       1.761  -1.278  -1.374  0.00  0.00    +0.000 C 
ATOM     20  C   UNL     1       2.363  -2.230  -2.392  0.00  0.00    +0.000 C 
ENDBRANCH  16  19
ENDBRANCH   5  14
BRANCH   2  21
ATOM     21  C   UNL     1      -0.052  -1.347   2.168  0.00  0.00    +0.000 C 
ATOM     22  C   UNL     1      -0.857  -0.848   3.353  0.00  0.00    +0.000 C 
ENDBRANCH   2  21
BRANCH   6  23
ATOM     23  C   UNL     1       2.270   2.136  -0.527  0.00  0.00    +0.000 C 
ATOM     24  C   UNL     1       2.792   3.044   0.560  0.00  0.00    +0.000 C 
ENDBRANCH   6  23
TORSDOF 4
