REMARK  Name = 144069647
REMARK  3 active torsions:
REMARK  status: ('A' for Active; 'I' for Inactive)
REMARK    1  A    between atoms: N_3  and  C_6
REMARK    2  A    between atoms: C_7  and  C_12
REMARK    3  A    between atoms: C_10  and  C_13
REMARK                            x       y       z     vdW  Elec       q    Type
REMARK                         _______ _______ _______ _____ _____    ______ ____
ROOT
ATOM      1  N   UNL     1       1.171   0.216  -0.045  0.00  0.00    +0.000 N 
ATOM      2  N   UNL     1       2.441  -1.727  -0.493  0.00  0.00    +0.000 NA
ATOM      3  C   UNL     1      -0.005  -0.425   0.002  0.00  0.00    +0.000 A 
ATOM      4  C   UNL     1      -1.191   0.295  -0.028  0.00  0.00    +0.000 A 
ATOM      5  C   UNL     1       1.258   1.551  -0.122  0.00  0.00    +0.000 A 
ATOM      6  C   UNL     1      -1.131   1.683  -0.108  0.00  0.00    +0.000 A 
ATOM      7  C   UNL     1       2.389  -0.524  -0.015  0.00  0.00    +0.000 C 
ATOM      8  C   UNL     1       0.104   2.322  -0.156  0.00  0.00    +0.000 A 
ATOM      9  C   UNL     1       3.624   0.097   0.595  0.00  0.00    +0.000 C 
ATOM     10  H   UNL     1       3.383  -2.119  -0.393  0.00  0.00    +0.000 HD
ENDROOT
BRANCH   4  13
ATOM     11  O   UNL     1      -3.074  -0.721  -1.013  0.00  0.00    +0.000 OA
ATOM     12  N   UNL     1      -3.057  -0.575   1.276  0.00  0.00    +0.000 N 
ATOM     13  C   UNL     1      -2.493  -0.356   0.023  0.00  0.00    +0.000 C 
ATOM     14  H   UNL     1      -2.593  -0.291   2.133  0.00  0.00    +0.000 HD
ATOM     15  H   UNL     1      -3.959  -1.030   1.370  0.00  0.00    +0.000 HD
ENDBRANCH   4  13
BRANCH   3  16
ATOM     16  N   UNL     1      -0.035  -1.834   0.083  0.00  0.00    +0.000 N 
ATOM     17  H   UNL     1      -0.854  -2.273   0.486  0.00  0.00    +0.000 HD
ATOM     18  H   UNL     1       0.822  -2.366   0.113  0.00  0.00    +0.000 HD
ENDBRANCH   3  16
TORSDOF 2
