REMARK  Name = 144081107
REMARK  4 active torsions:
REMARK  status: ('A' for Active; 'I' for Inactive)
REMARK    1  A    between atoms: N_4  and  C_15
REMARK    2  A    between atoms: C_7  and  C_9
REMARK    3  A    between atoms: C_8  and  C_12
REMARK    4  A    between atoms: C_9  and  C_14
REMARK                            x       y       z     vdW  Elec       q    Type
REMARK                         _______ _______ _______ _____ _____    ______ ____
ROOT
ATOM      1  N   UNL     1      -2.933  -0.308  -0.399  0.00  0.00    +0.000 NA
ATOM      2  N   UNL     1      -2.300   1.975  -0.429  0.00  0.00    +0.000 N 
ATOM      3  C   UNL     1      -0.367  -1.018   0.453  0.00  0.00    +0.000 A 
ATOM      4  C   UNL     1      -0.683   0.317   0.226  0.00  0.00    +0.000 A 
ATOM      5  C   UNL     1      -1.968   0.617  -0.195  0.00  0.00    +0.000 A 
ATOM      6  C   UNL     1      -1.333  -1.998   0.255  0.00  0.00    +0.000 A 
ATOM      7  C   UNL     1      -2.589  -1.595  -0.168  0.00  0.00    +0.000 A 
ATOM      8  H   UNL     1      -1.840   2.689   0.122  0.00  0.00    +0.000 HD
ATOM      9  H   UNL     1      -3.246   2.161  -0.741  0.00  0.00    +0.000 HD
ENDROOT
BRANCH   4  12
ATOM     10  O   UNL     1       0.456   1.892   1.538  0.00  0.00    +0.000 OA
ATOM     11  N   UNL     1       1.112   1.691  -0.677  0.00  0.00    +0.000 N 
ATOM     12  C   UNL     1       0.320   1.358   0.425  0.00  0.00    +0.000 C 
ATOM     13  C   UNL     1       2.162   2.683  -0.631  0.00  0.00    +0.000 C 
ATOM     14  H   UNL     1       0.936   1.229  -1.565  0.00  0.00    +0.000 HD
ENDBRANCH   4  12
BRANCH   3  15
ATOM     15  C   UNL     1       0.995  -1.428   0.907  0.00  0.00    +0.000 C 
BRANCH  15  18
ATOM     16  O   UNL     1       1.776  -1.572  -1.386  0.00  0.00    +0.000 OA
ATOM     17  N   UNL     1       3.314  -1.200   0.280  0.00  0.00    +0.000 N 
ATOM     18  C   UNL     1       2.038  -1.414  -0.198  0.00  0.00    +0.000 C 
ATOM     19  H   UNL     1       3.514  -1.077   1.267  0.00  0.00    +0.000 HD
ATOM     20  H   UNL     1       4.107  -1.165  -0.352  0.00  0.00    +0.000 HD
ENDBRANCH  15  18
ENDBRANCH   3  15
TORSDOF 3
