REMARK  Name = 144105668
REMARK  4 active torsions:
REMARK  status: ('A' for Active; 'I' for Inactive)
REMARK    1  A    between atoms: N_2  and  C_10
REMARK    2  A    between atoms: C_5  and  C_6
REMARK    3  A    between atoms: C_10  and  C_13
REMARK    4  A    between atoms: C_12  and  C_14
REMARK                            x       y       z     vdW  Elec       q    Type
REMARK                         _______ _______ _______ _____ _____    ______ ____
ROOT
ATOM      1  O   UNL     1      -0.530   1.639  -0.513  0.00  0.00    +0.000 OA
ATOM      2  N   UNL     1      -0.910  -0.579   0.072  0.00  0.00    +0.000 N 
ATOM      3  C   UNL     1      -0.120   0.525  -0.197  0.00  0.00    +0.000 C 
ATOM      4  H   UNL     1      -0.464  -1.488   0.122  0.00  0.00    +0.000 HD
ENDROOT
BRANCH   3   7
ATOM      5  N   UNL     1       3.590   0.922  -0.713  0.00  0.00    +0.000 NA
ATOM      6  N   UNL     1       5.443  -0.223   0.253  0.00  0.00    +0.000 N 
ATOM      7  C   UNL     1       1.344   0.309  -0.062  0.00  0.00    +0.000 A 
ATOM      8  C   UNL     1       1.850  -0.659   0.799  0.00  0.00    +0.000 A 
ATOM      9  C   UNL     1       2.248   1.067  -0.789  0.00  0.00    +0.000 A 
ATOM     10  C   UNL     1       3.224  -0.837   0.904  0.00  0.00    +0.000 A 
ATOM     11  C   UNL     1       4.045  -0.029   0.134  0.00  0.00    +0.000 A 
ATOM     12  H   UNL     1       5.808  -0.579   1.128  0.00  0.00    +0.000 HD
ATOM     13  H   UNL     1       6.039   0.375  -0.307  0.00  0.00    +0.000 HD
ENDBRANCH   3   7
BRANCH   2  14
ATOM     14  C   UNL     1      -2.281  -0.552   0.016  0.00  0.00    +0.000 C 
ATOM     15  C   UNL     1      -2.987   0.567   0.281  0.00  0.00    +0.000 C 
BRANCH  14  16
ATOM     16  C   UNL     1      -2.988  -1.778  -0.343  0.00  0.00    +0.000 C 
ATOM     17  C   UNL     1      -2.458  -2.972  -0.637  0.00  0.00    +0.000 C 
ENDBRANCH  14  16
BRANCH  15  18
ATOM     18  C   UNL     1      -4.428   0.722   0.257  0.00  0.00    +0.000 C 
ATOM     19  C   UNL     1      -5.042   1.877   0.537  0.00  0.00    +0.000 C 
ENDBRANCH  15  18
ENDBRANCH   2  14
TORSDOF 4
