REMARK  Name = 14416755
REMARK  1 active torsions:
REMARK  status: ('A' for Active; 'I' for Inactive)
REMARK    1  A    between atoms: C_5  and  C_8
REMARK                            x       y       z     vdW  Elec       q    Type
REMARK                         _______ _______ _______ _____ _____    ______ ____
ROOT
ATOM      1  N   UNL     1       2.357  -0.999   0.260  0.00  0.00    +0.000 NA
ATOM      2  C   UNL     1       0.131  -0.110  -0.050  0.00  0.00    +0.000 A 
ATOM      3  C   UNL     1       0.657   1.164  -0.234  0.00  0.00    +0.000 A 
ATOM      4  C   UNL     1       1.016  -1.148   0.192  0.00  0.00    +0.000 A 
ATOM      5  C   UNL     1       2.033   1.357  -0.171  0.00  0.00    +0.000 A 
ATOM      6  C   UNL     1       2.832   0.253   0.076  0.00  0.00    +0.000 A 
ENDROOT
BRANCH   2  10
ATOM      7 CL   UNL     1      -3.846   0.560   0.242  0.00  0.00    +0.000 Cl
ATOM      8  O   UNL     1      -1.746  -1.462  -0.427  0.00  0.00    +0.000 OA
ATOM      9  N   UNL     1      -2.132   0.729   0.221  0.00  0.00    +0.000 N 
ATOM     10  C   UNL     1      -1.302  -0.344  -0.110  0.00  0.00    +0.000 C 
ATOM     11  H   UNL     1      -1.767   1.625   0.526  0.00  0.00    +0.000 HD
ENDBRANCH   2  10
TORSDOF 1
