REMARK  Name = 144219362
REMARK  5 active torsions:
REMARK  status: ('A' for Active; 'I' for Inactive)
REMARK    1  A    between atoms: N_2  and  C_5
REMARK    2  A    between atoms: N_2  and  C_6
REMARK    3  A    between atoms: C_5  and  C_13
REMARK    4  A    between atoms: C_6  and  C_14
REMARK    5  A    between atoms: C_7  and  C_8
REMARK                            x       y       z     vdW  Elec       q    Type
REMARK                         _______ _______ _______ _____ _____    ______ ____
ROOT
ATOM      1  N   UNL     1      -2.829   0.130   0.053  0.00  0.00    +0.000 N 
ATOM      2  N   UNL     1      -0.748   0.603   1.127  0.00  0.00    +0.000 NA
ATOM      3  C   UNL     1       1.289   0.618  -0.174  0.00  0.00    +0.000 A 
ATOM      4  C   UNL     1      -1.416   0.300  -0.008  0.00  0.00    +0.000 A 
ATOM      5  C   UNL     1      -3.382  -0.379   1.335  0.00  0.00    +0.000 C 
ATOM      6  C   UNL     1       0.568   0.306  -1.321  0.00  0.00    +0.000 A 
ATOM      7  C   UNL     1      -0.811   0.142  -1.245  0.00  0.00    +0.000 A 
ATOM      8  C   UNL     1       0.591   0.755   1.015  0.00  0.00    +0.000 A 
ATOM      9  C   UNL     1      -3.691   0.409  -1.003  0.00  0.00    +0.000 C 
ATOM     10  C   UNL     1      -4.848  -0.731   1.242  0.00  0.00    +0.000 C 
ATOM     11  C   UNL     1      -5.004   0.143  -0.998  0.00  0.00    +0.000 C 
ATOM     12  C   UNL     1      -5.593  -0.488   0.154  0.00  0.00    +0.000 C 
ENDROOT
BRANCH   3  15
ATOM     13  O   UNL     1       3.151   1.941  -0.432  0.00  0.00    +0.000 OA
ATOM     14  N   UNL     1       3.563  -0.321  -0.014  0.00  0.00    +0.000 N 
ATOM     15  C   UNL     1       2.730   0.795  -0.221  0.00  0.00    +0.000 C 
BRANCH  14  16
ATOM     16  C   UNL     1       3.026  -1.658   0.233  0.00  0.00    +0.000 C 
ATOM     17  C   UNL     1       2.824  -2.421  -1.060  0.00  0.00    +0.000 C 
ENDBRANCH  14  16
BRANCH  14  18
ATOM     18  C   UNL     1       5.015  -0.219  -0.031  0.00  0.00    +0.000 C 
ATOM     19  C   UNL     1       5.567   0.076   1.349  0.00  0.00    +0.000 C 
ENDBRANCH  14  18
ENDBRANCH   3  15
TORSDOF 3
