REMARK  Name = 144327989
REMARK  5 active torsions:
REMARK  status: ('A' for Active; 'I' for Inactive)
REMARK    1  A    between atoms: N_2  and  C_12
REMARK    2  A    between atoms: N_2  and  C_13
REMARK    3  A    between atoms: N_5  and  C_16
REMARK    4  A    between atoms: C_6  and  C_7
REMARK    5  A    between atoms: C_14  and  C_15
REMARK                            x       y       z     vdW  Elec       q    Type
REMARK                         _______ _______ _______ _____ _____    ______ ____
ROOT
ATOM      1  N   UNL     1      -2.510  -0.974  -0.222  0.00  0.00    +0.000 N 
ATOM      2  N   UNL     1      -0.759   0.548   0.304  0.00  0.00    +0.000 NA
ATOM      3  N   UNL     1      -3.543   1.143   0.139  0.00  0.00    +0.000 NA
ATOM      4  C   UNL     1       1.524  -0.243   0.357  0.00  0.00    +0.000 A 
ATOM      5  C   UNL     1      -1.138  -0.708  -0.021  0.00  0.00    +0.000 A 
ATOM      6  C   UNL     1       1.097  -1.523   0.022  0.00  0.00    +0.000 A 
ATOM      7  C   UNL     1      -0.258  -1.768  -0.173  0.00  0.00    +0.000 A 
ATOM      8  C   UNL     1       0.565   0.749   0.485  0.00  0.00    +0.000 A 
ATOM      9  C   UNL     1      -3.600  -0.120  -0.137  0.00  0.00    +0.000 C 
ATOM     10  C   UNL     1      -4.937  -0.795  -0.428  0.00  0.00    +0.000 C 
ATOM     11  C   UNL     1      -4.760   1.937   0.186  0.00  0.00    +0.000 C 
ATOM     12  H   UNL     1      -2.697  -1.945  -0.459  0.00  0.00    +0.000 HD
ENDROOT
BRANCH   4  15
ATOM     13  O   UNL     1       3.372  -0.099   1.717  0.00  0.00    +0.000 OA
ATOM     14  N   UNL     1       3.717   0.453  -0.528  0.00  0.00    +0.000 N 
ATOM     15  C   UNL     1       2.932   0.045   0.567  0.00  0.00    +0.000 C 
ATOM     16  C   UNL     1       3.159   0.611  -1.870  0.00  0.00    +0.000 C 
ATOM     17  C   UNL     1       5.138   0.744  -0.399  0.00  0.00    +0.000 C 
ENDBRANCH   4  15
TORSDOF 1
