REMARK  Name = 144395811
REMARK  8 active torsions:
REMARK  status: ('A' for Active; 'I' for Inactive)
REMARK    1  A    between atoms: N_2  and  C_9
REMARK    2  A    between atoms: N_2  and  C_15
REMARK    3  A    between atoms: N_2  and  C_16
REMARK    4  A    between atoms: N_5  and  C_14
REMARK    5  A    between atoms: N_6  and  C_18
REMARK    6  A    between atoms: C_9  and  C_10
REMARK    7  A    between atoms: C_12  and  C_17
REMARK    8  A    between atoms: C_18  and  C_19
REMARK                            x       y       z     vdW  Elec       q    Type
REMARK                         _______ _______ _______ _____ _____    ______ ____
ROOT
ATOM      1  N   UNL     1       2.009   2.105  -0.512  0.00  0.00    +0.000 NA
ATOM      2  N   UNL     1       4.260   2.325   0.202  0.00  0.00    +0.000 N 
ATOM      3  C   UNL     1       3.146   0.211   0.470  0.00  0.00    +0.000 A 
ATOM      4  C   UNL     1       2.003  -0.565   0.314  0.00  0.00    +0.000 A 
ATOM      5  C   UNL     1       0.864  -0.008  -0.255  0.00  0.00    +0.000 A 
ATOM      6  C   UNL     1       3.098   1.529   0.045  0.00  0.00    +0.000 A 
ATOM      7  C   UNL     1       0.917   1.319  -0.648  0.00  0.00    +0.000 A 
ATOM      8  H   UNL     1       5.165   1.877   0.125  0.00  0.00    +0.000 HD
ATOM      9  H   UNL     1       4.191   3.286  -0.109  0.00  0.00    +0.000 HD
ENDROOT
BRANCH   5  12
ATOM     10  N   UNL     1      -1.436  -0.439   0.198  0.00  0.00    +0.000 NA
ATOM     11  N   UNL     1      -0.261  -1.979  -1.211  0.00  0.00    +0.000 N 
ATOM     12  C   UNL     1      -0.329  -0.829  -0.414  0.00  0.00    +0.000 C 
ATOM     13  H   UNL     1       0.599  -2.248  -1.678  0.00  0.00    +0.000 HD
ATOM     14  H   UNL     1      -1.069  -2.574  -1.359  0.00  0.00    +0.000 HD
BRANCH  10  16
ATOM     15  O   UNL     1      -2.650  -2.396   0.004  0.00  0.00    +0.000 OA
ATOM     16  C   UNL     1      -2.596  -1.174   0.110  0.00  0.00    +0.000 C 
BRANCH  16  18
ATOM     17  N   UNL     1      -6.281  -0.375   0.194  0.00  0.00    +0.000 NA
ATOM     18  C   UNL     1      -3.863  -0.395   0.196  0.00  0.00    +0.000 A 
ATOM     19  C   UNL     1      -3.845   0.987   0.356  0.00  0.00    +0.000 A 
ATOM     20  C   UNL     1      -5.096  -1.022   0.121  0.00  0.00    +0.000 A 
ATOM     21  C   UNL     1      -5.043   1.688   0.435  0.00  0.00    +0.000 A 
ATOM     22  C   UNL     1      -6.223   0.967   0.349  0.00  0.00    +0.000 A 
ENDBRANCH  16  18
ENDBRANCH  10  16
ENDBRANCH   5  12
BRANCH   7  23
ATOM     23  N   UNL     1      -0.241   1.894  -1.228  0.00  0.00    +0.000 N 
ATOM     24  H   UNL     1      -0.868   1.299  -1.756  0.00  0.00    +0.000 HD
ATOM     25  H   UNL     1      -0.175   2.867  -1.503  0.00  0.00    +0.000 HD
ENDBRANCH   7  23
BRANCH   3  26
ATOM     26  C   UNL     1       4.378  -0.395   1.087  0.00  0.00    +0.000 C 
BRANCH  26  27
ATOM     27  N   UNL     1       5.394  -0.706   0.082  0.00  0.00    +0.000 NA
ATOM     28  C   UNL     1       6.718  -0.777   0.699  0.00  0.00    +0.000 C 
ATOM     29  C   UNL     1       5.076  -1.964  -0.592  0.00  0.00    +0.000 C 
ENDBRANCH  26  27
ENDBRANCH   3  26
TORSDOF 6
