REMARK  Name = 144395622
REMARK  5 active torsions:
REMARK  status: ('A' for Active; 'I' for Inactive)
REMARK    1  A    between atoms: N_4  and  C_16
REMARK    2  A    between atoms: N_5  and  C_12
REMARK    3  A    between atoms: C_9  and  C_13
REMARK    4  A    between atoms: C_11  and  C_17
REMARK    5  A    between atoms: C_15  and  C_16
REMARK                            x       y       z     vdW  Elec       q    Type
REMARK                         _______ _______ _______ _____ _____    ______ ____
ROOT
ATOM      1  N   UNL     1       3.714  -1.175   0.225  0.00  0.00    +0.000 NA
ATOM      2  N   UNL     1       5.279   0.603   0.330  0.00  0.00    +0.000 N 
ATOM      3  C   UNL     1       1.377  -0.705  -0.180  0.00  0.00    +0.000 A 
ATOM      4  C   UNL     1       1.654   0.656  -0.243  0.00  0.00    +0.000 A 
ATOM      5  C   UNL     1       2.960   1.102  -0.073  0.00  0.00    +0.000 A 
ATOM      6  C   UNL     1       2.433  -1.572   0.055  0.00  0.00    +0.000 A 
ATOM      7  C   UNL     1       3.945   0.155   0.157  0.00  0.00    +0.000 A 
ATOM      8  H   UNL     1       5.583   1.423  -0.178  0.00  0.00    +0.000 HD
ATOM      9  H   UNL     1       5.971  -0.115   0.508  0.00  0.00    +0.000 HD
ENDROOT
BRANCH   3  12
ATOM     10  N   UNL     1      -0.909  -0.726   0.492  0.00  0.00    +0.000 NA
ATOM     11  N   UNL     1      -0.288  -2.028  -1.421  0.00  0.00    +0.000 N 
ATOM     12  C   UNL     1      -0.035  -1.178  -0.364  0.00  0.00    +0.000 C 
ATOM     13  H   UNL     1       0.448  -2.329  -2.052  0.00  0.00    +0.000 HD
ATOM     14  H   UNL     1      -1.221  -2.380  -1.607  0.00  0.00    +0.000 HD
BRANCH  10  16
ATOM     15  O   UNL     1      -2.610  -2.292   0.513  0.00  0.00    +0.000 OA
ATOM     16  C   UNL     1      -2.247  -1.105   0.400  0.00  0.00    +0.000 C 
BRANCH  16  18
ATOM     17  N   UNL     1      -5.531   0.611  -0.075  0.00  0.00    +0.000 NA
ATOM     18  C   UNL     1      -3.221  -0.045   0.206  0.00  0.00    +0.000 A 
ATOM     19  C   UNL     1      -2.825   1.285   0.118  0.00  0.00    +0.000 A 
ATOM     20  C   UNL     1      -4.574  -0.327   0.104  0.00  0.00    +0.000 A 
ATOM     21  C   UNL     1      -3.781   2.278  -0.067  0.00  0.00    +0.000 A 
ATOM     22  C   UNL     1      -5.108   1.893  -0.156  0.00  0.00    +0.000 A 
ENDBRANCH  16  18
ENDBRANCH  10  16
ENDBRANCH   3  12
BRANCH   6  23
ATOM     23  N   UNL     1       2.158  -2.961   0.120  0.00  0.00    +0.000 N 
ATOM     24  H   UNL     1       1.253  -3.261   0.459  0.00  0.00    +0.000 HD
ATOM     25  H   UNL     1       2.949  -3.571   0.289  0.00  0.00    +0.000 HD
ENDBRANCH   6  23
BRANCH   5  27
ATOM     26  O   UNL     1       4.371   3.000   0.000  0.00  0.00    +0.000 OA
ATOM     27  C   UNL     1       3.240   2.530  -0.141  0.00  0.00    +0.000 C 
ENDBRANCH   5  27
TORSDOF 5
