REMARK  Name = 144495629
REMARK  4 active torsions:
REMARK  status: ('A' for Active; 'I' for Inactive)
REMARK    1  A    between atoms: N_2  and  C_12
REMARK    2  A    between atoms: N_4  and  C_13
REMARK    3  A    between atoms: C_5  and  C_10
REMARK    4  A    between atoms: C_10  and  C_11
REMARK                            x       y       z     vdW  Elec       q    Type
REMARK                         _______ _______ _______ _____ _____    ______ ____
ROOT
ATOM      1  N   UNL     1      -2.196  -0.299  -0.043  0.00  0.00    +0.000 N 
ATOM      2  N   UNL     1      -0.215   1.010   0.153  0.00  0.00    +0.000 NA
ATOM      3  C   UNL     1       1.943  -0.070   0.008  0.00  0.00    +0.000 A 
ATOM      4  C   UNL     1      -0.782  -0.205  -0.023  0.00  0.00    +0.000 A 
ATOM      5  C   UNL     1       1.323  -1.302  -0.171  0.00  0.00    +0.000 A 
ATOM      6  C   UNL     1      -0.066  -1.379  -0.188  0.00  0.00    +0.000 A 
ATOM      7  C   UNL     1       1.136   1.046   0.164  0.00  0.00    +0.000 A 
ATOM      8  H   UNL     1      -2.569  -1.234  -0.178  0.00  0.00    +0.000 HD
ENDROOT
BRANCH   3  10
ATOM      9  O   UNL     1       4.112  -0.890   0.438  0.00  0.00    +0.000 OA
ATOM     10  C   UNL     1       3.390   0.043   0.031  0.00  0.00    +0.000 C 
ATOM     11  C   UNL     1       4.071   1.322  -0.448  0.00  0.00    +0.000 C 
ENDBRANCH   3  10
BRANCH   1  12
ATOM     12  C   UNL     1      -3.103   0.686   0.094  0.00  0.00    +0.000 C 
ATOM     13  C   UNL     1      -4.436   0.581   0.073  0.00  0.00    +0.000 C 
BRANCH  13  14
ATOM     14  N   UNL     1      -5.177  -0.544  -0.090  0.00  0.00    +0.000 N 
ATOM     15  H   UNL     1      -6.187  -0.482  -0.086  0.00  0.00    +0.000 HD
ATOM     16  H   UNL     1      -4.723  -1.440  -0.216  0.00  0.00    +0.000 HD
ENDBRANCH  13  14
ENDBRANCH   1  12
TORSDOF 3
