REMARK  Name = 14448129
REMARK  1 active torsions:
REMARK  status: ('A' for Active; 'I' for Inactive)
REMARK    1  A    between atoms: C_5  and  C_8
REMARK                            x       y       z     vdW  Elec       q    Type
REMARK                         _______ _______ _______ _____ _____    ______ ____
ROOT
ATOM      1  N   UNL     1      -2.382  -0.986   0.255  0.00  0.00    +0.000 NA
ATOM      2  C   UNL     1      -0.148  -0.113  -0.046  0.00  0.00    +0.000 A 
ATOM      3  C   UNL     1      -0.664   1.165  -0.229  0.00  0.00    +0.000 A 
ATOM      4  C   UNL     1      -1.041  -1.145   0.191  0.00  0.00    +0.000 A 
ATOM      5  C   UNL     1      -2.038   1.369  -0.171  0.00  0.00    +0.000 A 
ATOM      6  C   UNL     1      -2.847   0.270   0.072  0.00  0.00    +0.000 A 
ENDROOT
BRANCH   2  10
ATOM      7 BR   UNL     1       3.997   0.568   0.216  0.00  0.00    +0.000 Br
ATOM      8  O   UNL     1       1.720  -1.479  -0.420  0.00  0.00    +0.000 OA
ATOM      9  N   UNL     1       2.120   0.710   0.234  0.00  0.00    +0.000 N 
ATOM     10  C   UNL     1       1.283  -0.358  -0.102  0.00  0.00    +0.000 C 
ATOM     11  H   UNL     1       1.752   1.602   0.547  0.00  0.00    +0.000 HD
ENDBRANCH   2  10
TORSDOF 1
