REMARK  Name = 144495625
REMARK  5 active torsions:
REMARK  status: ('A' for Active; 'I' for Inactive)
REMARK    1  A    between atoms: N_3  and  C_9
REMARK    2  A    between atoms: N_4  and  C_14
REMARK    3  A    between atoms: C_5  and  C_10
REMARK    4  A    between atoms: C_10  and  C_11
REMARK    5  A    between atoms: C_12  and  C_13
REMARK                            x       y       z     vdW  Elec       q    Type
REMARK                         _______ _______ _______ _____ _____    ______ ____
ROOT
ATOM      1  N   UNL     1      -0.057   0.536   0.828  0.00  0.00    +0.000 NA
ATOM      2  C   UNL     1      -2.246  -0.004  -0.045  0.00  0.00    +0.000 A 
ATOM      3  C   UNL     1      -1.779  -1.244  -0.469  0.00  0.00    +0.000 A 
ATOM      4  C   UNL     1      -0.452  -1.594  -0.245  0.00  0.00    +0.000 A 
ATOM      5  C   UNL     1      -1.353   0.842   0.593  0.00  0.00    +0.000 A 
ATOM      6  C   UNL     1       0.361  -0.677   0.402  0.00  0.00    +0.000 A 
ENDROOT
BRANCH   2   8
ATOM      7  O   UNL     1      -4.278  -0.027  -1.244  0.00  0.00    +0.000 OA
ATOM      8  C   UNL     1      -3.626   0.391  -0.264  0.00  0.00    +0.000 C 
ATOM      9  C   UNL     1      -4.320   1.339   0.710  0.00  0.00    +0.000 C 
ENDBRANCH   2   8
BRANCH   6  10
ATOM     10  N   UNL     1       1.701  -0.984   0.651  0.00  0.00    +0.000 NA
ATOM     11  C   UNL     1       2.579  -0.191   0.117  0.00  0.00    +0.000 C 
BRANCH  11  12
ATOM     12  C   UNL     1       4.030  -0.392   0.295  0.00  0.00    +0.000 C 
ATOM     13  C   UNL     1       4.878   0.464  -0.283  0.00  0.00    +0.000 C 
BRANCH  13  14
ATOM     14  N   UNL     1       4.564   1.542  -1.047  0.00  0.00    +0.000 N 
ATOM     15  H   UNL     1       5.316   2.107  -1.423  0.00  0.00    +0.000 HD
ATOM     16  H   UNL     1       3.610   1.803  -1.251  0.00  0.00    +0.000 HD
ENDBRANCH  13  14
ENDBRANCH  11  12
ENDBRANCH   6  10
TORSDOF 4
