REMARK  Name = 144404811
REMARK  6 active torsions:
REMARK  status: ('A' for Active; 'I' for Inactive)
REMARK    1  A    between atoms: O_2  and  C_12
REMARK    2  A    between atoms: N_4  and  C_7
REMARK    3  A    between atoms: N_6  and  C_15
REMARK    4  A    between atoms: C_7  and  C_8
REMARK    5  A    between atoms: C_8  and  C_12
REMARK    6  A    between atoms: C_9  and  C_10
REMARK                            x       y       z     vdW  Elec       q    Type
REMARK                         _______ _______ _______ _____ _____    ______ ____
ROOT
ATOM      1  O   UNL     1      -0.861  -2.276   0.715  0.00  0.00    +0.000 OA
ATOM      2  N   UNL     1      -1.631  -0.642  -0.742  0.00  0.00    +0.000 N 
ATOM      3  C   UNL     1      -0.655  -1.301  -0.003  0.00  0.00    +0.000 C 
ATOM      4  H   UNL     1      -1.401   0.195  -1.267  0.00  0.00    +0.000 HD
ENDROOT
BRANCH   3   6
ATOM      5  N   UNL     1       2.889  -0.427   0.924  0.00  0.00    +0.000 NA
ATOM      6  C   UNL     1       0.719  -0.744  -0.093  0.00  0.00    +0.000 A 
ATOM      7  C   UNL     1       1.136  -0.041  -1.219  0.00  0.00    +0.000 A 
ATOM      8  C   UNL     1       1.626  -0.907   0.942  0.00  0.00    +0.000 A 
ATOM      9  C   UNL     1       2.429   0.468  -1.274  0.00  0.00    +0.000 A 
ATOM     10  C   UNL     1       3.259   0.250  -0.186  0.00  0.00    +0.000 A 
BRANCH  10  11
ATOM     11  N   UNL     1       4.568   0.741  -0.195  0.00  0.00    +0.000 NA
ATOM     12  C   UNL     1       4.867   1.576   0.746  0.00  0.00    +0.000 C 
ENDBRANCH  10  11
ENDBRANCH   3   6
BRANCH   2  13
ATOM     13  C   UNL     1      -3.011  -1.046  -0.739  0.00  0.00    +0.000 C 
BRANCH  13  14
ATOM     14  C   UNL     1      -3.809  -0.349   0.356  0.00  0.00    +0.000 C 
BRANCH  14  16
ATOM     15  O   UNL     1      -3.719   1.769  -0.847  0.00  0.00    +0.000 OA
ATOM     16  C   UNL     1      -3.825   1.157   0.207  0.00  0.00    +0.000 C 
BRANCH  16  17
ATOM     17  O   UNL     1      -3.982   1.771   1.409  0.00  0.00    +0.000 OA
ATOM     18  H   UNL     1      -3.997   2.748   1.320  0.00  0.00    +0.000 HD
ENDBRANCH  16  17
ENDBRANCH  14  16
ENDBRANCH  13  14
ENDBRANCH   2  13
TORSDOF 6
