REMARK  Name = 144625229
REMARK  4 active torsions:
REMARK  status: ('A' for Active; 'I' for Inactive)
REMARK    1  A    between atoms: N_2  and  C_9
REMARK    2  A    between atoms: N_2  and  C_12
REMARK    3  A    between atoms: C_8  and  C_13
REMARK    4  A    between atoms: C_14  and  C_18
REMARK                            x       y       z     vdW  Elec       q    Type
REMARK                         _______ _______ _______ _____ _____    ______ ____
ROOT
ATOM      1  N   UNL     1      -3.401  -1.422   0.107  0.00  0.00    +0.000 NA
ATOM      2  N   UNL     1      -2.212  -3.457   0.457  0.00  0.00    +0.000 N 
ATOM      3  C   UNL     1      -0.988  -0.015   0.211  0.00  0.00    +0.000 A 
ATOM      4  C   UNL     1      -2.184   0.664   0.008  0.00  0.00    +0.000 A 
ATOM      5  C   UNL     1      -0.997  -1.397   0.363  0.00  0.00    +0.000 A 
ATOM      6  C   UNL     1      -2.219  -2.048   0.303  0.00  0.00    +0.000 A 
ATOM      7  C   UNL     1      -3.352  -0.079  -0.036  0.00  0.00    +0.000 A 
ATOM      8  H   UNL     1      -1.384  -3.968   0.176  0.00  0.00    +0.000 HD
ATOM      9  H   UNL     1      -3.106  -3.929   0.407  0.00  0.00    +0.000 HD
ENDROOT
BRANCH   4  12
ATOM     10  O   UNL     1      -2.362   2.869   0.816  0.00  0.00    +0.000 OA
ATOM     11  N   UNL     1      -2.132   2.615  -1.451  0.00  0.00    +0.000 N 
ATOM     12  C   UNL     1      -2.239   2.109  -0.160  0.00  0.00    +0.000 C 
ATOM     13  H   UNL     1      -2.024   2.011  -2.260  0.00  0.00    +0.000 HD
ATOM     14  H   UNL     1      -2.159   3.614  -1.624  0.00  0.00    +0.000 HD
ENDBRANCH   4  12
BRANCH   3  15
ATOM     15  N   UNL     1       0.229   0.671   0.267  0.00  0.00    +0.000 N 
ATOM     16  H   UNL     1       0.193   1.595   0.684  0.00  0.00    +0.000 HD
BRANCH  15  20
ATOM     17  C   UNL     1       4.159  -0.840  -0.494  0.00  0.00    +0.000 C 
ATOM     18  C   UNL     1       3.035  -1.149  -1.494  0.00  0.00    +0.000 C 
ATOM     19  C   UNL     1       3.865   0.297   0.452  0.00  0.00    +0.000 C 
ATOM     20  C   UNL     1       1.470   0.226  -0.095  0.00  0.00    +0.000 C 
ATOM     21  C   UNL     1       1.676  -0.666  -1.081  0.00  0.00    +0.000 C 
ATOM     22  C   UNL     1       2.618   0.771   0.613  0.00  0.00    +0.000 C 
ATOM     23  C   UNL     1       5.033   0.848   1.215  0.00  0.00    +0.000 C 
ENDBRANCH  15  20
ENDBRANCH   3  15
TORSDOF 3
