REMARK  Name = 144940858
REMARK  3 active torsions:
REMARK  status: ('A' for Active; 'I' for Inactive)
REMARK    1  A    between atoms: N_2  and  C_6
REMARK    2  A    between atoms: N_3  and  C_7
REMARK    3  A    between atoms: C_12  and  C_13
REMARK                            x       y       z     vdW  Elec       q    Type
REMARK                         _______ _______ _______ _____ _____    ______ ____
ROOT
ATOM      1  O   UNL     1       0.300   1.732   1.200  0.00  0.00    +0.000 OA
ATOM      2  N   UNL     1      -0.532  -0.085   0.024  0.00  0.00    +0.000 N 
ATOM      3  C   UNL     1       0.478   0.707   0.547  0.00  0.00    +0.000 C 
ATOM      4  H   UNL     1      -0.306  -0.858  -0.594  0.00  0.00    +0.000 HD
ENDROOT
BRANCH   3   7
ATOM      5  N   UNL     1       4.195   0.838  -0.050  0.00  0.00    +0.000 NA
ATOM      6  N   UNL     1       5.768  -0.880  -0.551  0.00  0.00    +0.000 N 
ATOM      7  C   UNL     1       1.866   0.265   0.255  0.00  0.00    +0.000 A 
ATOM      8  C   UNL     1       2.157  -1.074   0.019  0.00  0.00    +0.000 A 
ATOM      9  C   UNL     1       2.912   1.173   0.210  0.00  0.00    +0.000 A 
ATOM     10  C   UNL     1       3.466  -1.458  -0.251  0.00  0.00    +0.000 A 
ATOM     11  C   UNL     1       4.440  -0.473  -0.274  0.00  0.00    +0.000 A 
ATOM     12  H   UNL     1       6.046  -1.821  -0.300  0.00  0.00    +0.000 HD
ATOM     13  H   UNL     1       6.478  -0.157  -0.560  0.00  0.00    +0.000 HD
ENDBRANCH   3   7
BRANCH   2  14
ATOM     14  C   UNL     1      -1.930   0.227   0.200  0.00  0.00    +0.000 C 
ATOM     15  C   UNL     1      -4.261  -0.738   0.408  0.00  0.00    +0.000 C 
ATOM     16  C   UNL     1      -2.768  -1.055   0.264  0.00  0.00    +0.000 C 
ATOM     17  C   UNL     1      -2.416   1.155  -0.916  0.00  0.00    +0.000 C 
ATOM     18  C   UNL     1      -4.741   0.185  -0.718  0.00  0.00    +0.000 C 
ATOM     19  C   UNL     1      -3.905   1.462  -0.784  0.00  0.00    +0.000 C 
BRANCH  15  20
ATOM     20  N   UNL     1      -5.031  -1.981   0.416  0.00  0.00    +0.000 NA
ATOM     21  H   UNL     1      -4.740  -2.561   1.202  0.00  0.00    +0.000 HD
ATOM     22  H   UNL     1      -6.018  -1.772   0.562  0.00  0.00    +0.000 HD
ENDBRANCH  15  20
ENDBRANCH   2  14
TORSDOF 3
