REMARK  Name = 145557483
REMARK  3 active torsions:
REMARK  status: ('A' for Active; 'I' for Inactive)
REMARK    1  A    between atoms: C_5  and  C_10
REMARK    2  A    between atoms: C_10  and  C_12
REMARK    3  A    between atoms: C_16  and  C_17
REMARK                            x       y       z     vdW  Elec       q    Type
REMARK                         _______ _______ _______ _____ _____    ______ ____
ROOT
ATOM      1  N   UNL     1      -0.974  -0.096  -0.003  0.00  0.00    +0.000 N 
ATOM      2  N   UNL     1       1.114  -1.141   0.392  0.00  0.00    +0.000 NA
ATOM      3  C   UNL     1      -3.860  -0.307   0.104  0.00  0.00    +0.000 C 
ATOM      4  C   UNL     1      -3.018  -1.220  -0.794  0.00  0.00    +0.000 C 
ATOM      5  C   UNL     1      -3.143   1.036   0.281  0.00  0.00    +0.000 C 
ATOM      6  C   UNL     1      -1.606  -1.401  -0.240  0.00  0.00    +0.000 C 
ATOM      7  C   UNL     1      -1.727   0.851   0.827  0.00  0.00    +0.000 C 
ATOM      8  C   UNL     1       0.426  -0.047  -0.005  0.00  0.00    +0.000 A 
ATOM      9  C   UNL     1       1.018   1.135  -0.418  0.00  0.00    +0.000 A 
ATOM     10  C   UNL     1       2.407   1.199  -0.426  0.00  0.00    +0.000 A 
ATOM     11  C   UNL     1       2.462  -1.042   0.371  0.00  0.00    +0.000 A 
ATOM     12  C   UNL     1       3.151   0.094  -0.025  0.00  0.00    +0.000 A 
ENDROOT
BRANCH  12  15
ATOM     13  O   UNL     1       5.229   1.150  -0.361  0.00  0.00    +0.000 OA
ATOM     14  N   UNL     1       5.279  -1.016   0.392  0.00  0.00    +0.000 N 
ATOM     15  C   UNL     1       4.603   0.129  -0.022  0.00  0.00    +0.000 C 
ATOM     16  H   UNL     1       6.294  -1.016   0.411  0.00  0.00    +0.000 HD
ATOM     17  H   UNL     1       4.846  -1.881   0.687  0.00  0.00    +0.000 HD
ENDBRANCH  12  15
BRANCH   3  18
ATOM     18  C   UNL     1      -5.255  -0.105  -0.481  0.00  0.00    +0.000 C 
ATOM     19  C   UNL     1      -6.106   0.780   0.409  0.00  0.00    +0.000 C 
ENDBRANCH   3  18
TORSDOF 2
