REMARK  Name = 145616621
REMARK  4 active torsions:
REMARK  status: ('A' for Active; 'I' for Inactive)
REMARK    1  A    between atoms: N_2  and  C_9
REMARK    2  A    between atoms: C_5  and  C_6
REMARK    3  A    between atoms: C_5  and  C_7
REMARK    4  A    between atoms: C_8  and  C_9
REMARK                            x       y       z     vdW  Elec       q    Type
REMARK                         _______ _______ _______ _____ _____    ______ ____
ROOT
ATOM      1  O   UNL     1      -0.684  -1.966   0.844  0.00  0.00    +0.000 OA
ATOM      2  C   UNL     1      -0.470  -0.760   0.764  0.00  0.00    +0.000 C 
ENDROOT
BRANCH   2   4
ATOM      3  N   UNL     1       2.361   1.563  -0.138  0.00  0.00    +0.000 NA
ATOM      4  C   UNL     1       0.872  -0.285   0.321  0.00  0.00    +0.000 A 
ATOM      5  C   UNL     1       1.867  -1.187  -0.039  0.00  0.00    +0.000 A 
ATOM      6  C   UNL     1       1.166   1.067   0.254  0.00  0.00    +0.000 A 
ATOM      7  C   UNL     1       3.110  -0.715  -0.448  0.00  0.00    +0.000 A 
ATOM      8  C   UNL     1       3.304   0.656  -0.480  0.00  0.00    +0.000 A 
ENDBRANCH   2   4
BRANCH   2   9
ATOM      9  N   UNL     1      -1.370   0.229   1.094  0.00  0.00    +0.000 NA
ATOM     10  N   UNL     1      -3.128   1.666   0.283  0.00  0.00    +0.000 N 
ATOM     11  C   UNL     1      -2.148   0.707   0.168  0.00  0.00    +0.000 C 
ATOM     12  H   UNL     1      -3.694   1.955  -0.507  0.00  0.00    +0.000 HD
ATOM     13  H   UNL     1      -3.318   2.110   1.175  0.00  0.00    +0.000 HD
BRANCH  11  14
ATOM     14  C   UNL     1      -1.974   0.106  -1.220  0.00  0.00    +0.000 C 
ATOM     15  C   UNL     1      -2.906  -1.079  -1.402  0.00  0.00    +0.000 C 
ENDBRANCH  11  14
ENDBRANCH   2   9
TORSDOF 3
