REMARK  Name = 145770021
REMARK  6 active torsions:
REMARK  status: ('A' for Active; 'I' for Inactive)
REMARK    1  A    between atoms: N_2  and  C_12
REMARK    2  A    between atoms: N_2  and  C_13
REMARK    3  A    between atoms: N_3  and  C_6
REMARK    4  A    between atoms: N_3  and  C_14
REMARK    5  A    between atoms: C_5  and  C_8
REMARK    6  A    between atoms: C_9  and  C_11
REMARK                            x       y       z     vdW  Elec       q    Type
REMARK                         _______ _______ _______ _____ _____    ______ ____
ROOT
ATOM      1  N   UNL     1      -1.825   1.272  -0.226  0.00  0.00    +0.000 NA
ATOM      2  C   UNL     1      -0.006  -0.225   0.316  0.00  0.00    +0.000 A 
ATOM      3  C   UNL     1      -0.526   1.034   0.062  0.00  0.00    +0.000 A 
ATOM      4  C   UNL     1      -0.876  -1.310   0.272  0.00  0.00    +0.000 A 
ATOM      5  C   UNL     1      -2.220  -1.104  -0.021  0.00  0.00    +0.000 A 
ATOM      6  C   UNL     1      -2.640   0.194  -0.260  0.00  0.00    +0.000 A 
ATOM      7  C   UNL     1      -3.175  -2.242  -0.076  0.00  0.00    +0.000 C 
ENDROOT
BRANCH   2  10
ATOM      8  O   UNL     1       1.723  -0.421   1.817  0.00  0.00    +0.000 OA
ATOM      9  N   UNL     1       2.294  -0.699  -0.432  0.00  0.00    +0.000 N 
ATOM     10  C   UNL     1       1.414  -0.453   0.627  0.00  0.00    +0.000 C 
ATOM     11  C   UNL     1       1.850  -0.720  -1.824  0.00  0.00    +0.000 C 
ATOM     12  C   UNL     1       3.713  -0.950  -0.219  0.00  0.00    +0.000 C 
ENDBRANCH   2  10
BRANCH   3  13
ATOM     13  N   UNL     1       0.355   2.143   0.105  0.00  0.00    +0.000 N 
ATOM     14  C   UNL     1      -0.079   3.480  -0.141  0.00  0.00    +0.000 C 
ATOM     15  H   UNL     1       1.347   1.950   0.019  0.00  0.00    +0.000 HD
ENDBRANCH   3  13
TORSDOF 2
