REMARK  Name = 145769789
REMARK  5 active torsions:
REMARK  status: ('A' for Active; 'I' for Inactive)
REMARK    1  A    between atoms: N_2  and  C_6
REMARK    2  A    between atoms: N_2  and  C_12
REMARK    3  A    between atoms: N_4  and  C_13
REMARK    4  A    between atoms: C_5  and  C_9
REMARK    5  A    between atoms: C_7  and  C_11
REMARK                            x       y       z     vdW  Elec       q    Type
REMARK                         _______ _______ _______ _____ _____    ______ ____
ROOT
ATOM      1  N   UNL     1      -1.763   1.180   0.192  0.00  0.00    +0.000 NA
ATOM      2  C   UNL     1       0.179  -0.220  -0.149  0.00  0.00    +0.000 A 
ATOM      3  C   UNL     1      -0.431   1.011   0.037  0.00  0.00    +0.000 A 
ATOM      4  C   UNL     1      -2.007  -1.216  -0.023  0.00  0.00    +0.000 A 
ATOM      5  C   UNL     1      -0.631  -1.349  -0.178  0.00  0.00    +0.000 A 
ATOM      6  C   UNL     1      -2.518   0.059   0.157  0.00  0.00    +0.000 A 
ATOM      7  C   UNL     1      -2.900  -2.405  -0.050  0.00  0.00    +0.000 C 
ENDROOT
BRANCH   2  10
ATOM      8  O   UNL     1       2.209   0.205  -1.243  0.00  0.00    +0.000 OA
ATOM      9  N   UNL     1       2.284  -1.158   0.631  0.00  0.00    +0.000 N 
ATOM     10  C   UNL     1       1.618  -0.369  -0.313  0.00  0.00    +0.000 C 
ATOM     11  C   UNL     1       3.712  -1.383   0.618  0.00  0.00    +0.000 C 
ATOM     12  H   UNL     1       1.744  -1.612   1.363  0.00  0.00    +0.000 HD
ENDBRANCH   2  10
BRANCH   3  13
ATOM     13  N   UNL     1       0.389   2.167   0.068  0.00  0.00    +0.000 N 
ATOM     14  C   UNL     1      -0.139   3.479   0.254  0.00  0.00    +0.000 C 
ATOM     15  H   UNL     1       1.377   2.030   0.249  0.00  0.00    +0.000 HD
ENDBRANCH   3  13
TORSDOF 2
