REMARK  Name = 145769927
REMARK  4 active torsions:
REMARK  status: ('A' for Active; 'I' for Inactive)
REMARK    1  A    between atoms: N_2  and  C_6
REMARK    2  A    between atoms: N_2  and  C_12
REMARK    3  A    between atoms: C_5  and  C_11
REMARK    4  A    between atoms: C_7  and  C_10
REMARK                            x       y       z     vdW  Elec       q    Type
REMARK                         _______ _______ _______ _____ _____    ______ ____
ROOT
ATOM      1  N   UNL     1      -0.699   1.679  -0.014  0.00  0.00    +0.000 NA
ATOM      2  C   UNL     1       0.240  -0.549   0.024  0.00  0.00    +0.000 A 
ATOM      3  C   UNL     1       0.355   0.832   0.007  0.00  0.00    +0.000 A 
ATOM      4  C   UNL     1      -2.147  -0.257  -0.003  0.00  0.00    +0.000 A 
ATOM      5  C   UNL     1      -1.038  -1.096   0.019  0.00  0.00    +0.000 A 
ATOM      6  C   UNL     1      -1.925   1.110  -0.018  0.00  0.00    +0.000 A 
ATOM      7  C   UNL     1      -3.527  -0.811  -0.009  0.00  0.00    +0.000 C 
ENDROOT
BRANCH   2  10
ATOM      8  O   UNL     1       1.888  -1.828   1.117  0.00  0.00    +0.000 OA
ATOM      9  N   UNL     1       1.919  -1.845  -1.176  0.00  0.00    +0.000 N 
ATOM     10  C   UNL     1       1.396  -1.435   0.046  0.00  0.00    +0.000 C 
ATOM     11  H   UNL     1       1.526  -1.540  -2.060  0.00  0.00    +0.000 HD
ATOM     12  H   UNL     1       2.720  -2.467  -1.218  0.00  0.00    +0.000 HD
ENDBRANCH   2  10
BRANCH   3  13
ATOM     13  N   UNL     1       1.655   1.397   0.012  0.00  0.00    +0.000 N 
ATOM     14  C   UNL     1       1.883   2.804  -0.004  0.00  0.00    +0.000 C 
ATOM     15  H   UNL     1       2.422   0.795  -0.268  0.00  0.00    +0.000 HD
ENDBRANCH   3  13
TORSDOF 2
