REMARK  Name = 146427045
REMARK  3 active torsions:
REMARK  status: ('A' for Active; 'I' for Inactive)
REMARK    1  A    between atoms: N_4  and  C_7
REMARK    2  A    between atoms: N_5  and  C_11
REMARK    3  A    between atoms: C_6  and  C_11
REMARK                            x       y       z     vdW  Elec       q    Type
REMARK                         _______ _______ _______ _____ _____    ______ ____
ROOT
ATOM      1 BR   UNL     1       3.194  -2.243   0.139  0.00  0.00    +0.000 Br
ATOM      2  N   UNL     1       1.680   1.600  -0.180  0.00  0.00    +0.000 NA
ATOM      3  C   UNL     1      -0.220   0.124   0.060  0.00  0.00    +0.000 A 
ATOM      4  C   UNL     1       0.349   1.378  -0.094  0.00  0.00    +0.000 A 
ATOM      5  C   UNL     1       0.631  -0.973   0.130  0.00  0.00    +0.000 A 
ATOM      6  C   UNL     1       2.007  -0.784   0.047  0.00  0.00    +0.000 A 
ATOM      7  C   UNL     1       2.476   0.510  -0.106  0.00  0.00    +0.000 A 
ENDROOT
BRANCH   4   8
ATOM      8  N   UNL     1      -0.513   2.501  -0.167  0.00  0.00    +0.000 N 
ATOM      9  H   UNL     1      -1.431   2.381  -0.578  0.00  0.00    +0.000 HD
ATOM     10  H   UNL     1      -0.068   3.405  -0.273  0.00  0.00    +0.000 HD
ENDBRANCH   4   8
BRANCH   3  12
ATOM     11  O   UNL     1      -2.389   0.801   0.636  0.00  0.00    +0.000 OA
ATOM     12  C   UNL     1      -1.659  -0.083   0.148  0.00  0.00    +0.000 C 
BRANCH  12  13
ATOM     13  N   UNL     1      -2.144  -1.298  -0.334  0.00  0.00    +0.000 NA
ATOM     14  C   UNL     1      -3.410  -1.533  -0.280  0.00  0.00    +0.000 C 
ENDBRANCH  12  13
ENDBRANCH   3  12
TORSDOF 3
