REMARK  Name = 146471272
REMARK  3 active torsions:
REMARK  status: ('A' for Active; 'I' for Inactive)
REMARK    1  A    between atoms: N_2  and  C_13
REMARK    2  A    between atoms: N_4  and  C_17
REMARK    3  A    between atoms: C_14  and  C_17
REMARK                            x       y       z     vdW  Elec       q    Type
REMARK                         _______ _______ _______ _____ _____    ______ ____
ROOT
ATOM      1  N   UNL     1       1.375   1.775   0.167  0.00  0.00    +0.000 NA
ATOM      2  C   UNL     1       0.611   0.660   0.164  0.00  0.00    +0.000 A 
ATOM      3  C   UNL     1      -0.767   0.664   0.019  0.00  0.00    +0.000 A 
ATOM      4  C   UNL     1      -1.401   1.892  -0.133  0.00  0.00    +0.000 A 
ATOM      5  C   UNL     1       0.723   2.950   0.017  0.00  0.00    +0.000 A 
ATOM      6  C   UNL     1      -0.649   3.062  -0.135  0.00  0.00    +0.000 A 
ENDROOT
BRANCH   2   7
ATOM      7  N   UNL     1       1.255  -0.568   0.320  0.00  0.00    +0.000 N 
ATOM      8  C   UNL     1       4.222  -0.993   0.126  0.00  0.00    +0.000 C 
ATOM      9  C   UNL     1       3.713  -0.414  -1.195  0.00  0.00    +0.000 C 
ATOM     10  C   UNL     1       3.501  -0.435   1.359  0.00  0.00    +0.000 C 
ATOM     11  C   UNL     1       2.473  -1.097  -1.781  0.00  0.00    +0.000 C 
ATOM     12  C   UNL     1       2.050  -0.890   1.509  0.00  0.00    +0.000 C 
ATOM     13  C   UNL     1       1.389  -1.516  -0.788  0.00  0.00    +0.000 C 
ENDBRANCH   2   7
BRANCH   3  15
ATOM     14  O   UNL     1      -1.211  -1.538   0.700  0.00  0.00    +0.000 OA
ATOM     15  C   UNL     1      -1.564  -0.555   0.023  0.00  0.00    +0.000 C 
BRANCH  15  16
ATOM     16  N   UNL     1      -2.738  -0.541  -0.724  0.00  0.00    +0.000 NA
ATOM     17  N   UNL     1      -3.957  -0.954   1.218  0.00  0.00    +0.000 N 
ATOM     18  N   UNL     1      -5.136  -0.761  -0.726  0.00  0.00    +0.000 N 
ATOM     19  C   UNL     1      -3.890  -0.742  -0.139  0.00  0.00    +0.000 C 
ATOM     20  H   UNL     1      -4.848  -1.108   1.677  0.00  0.00    +0.000 HD
ATOM     21  H   UNL     1      -3.135  -0.966   1.811  0.00  0.00    +0.000 HD
ATOM     22  H   UNL     1      -5.247  -0.613  -1.723  0.00  0.00    +0.000 HD
ATOM     23  H   UNL     1      -5.976  -0.924  -0.181  0.00  0.00    +0.000 HD
ENDBRANCH  15  16
ENDBRANCH   3  15
TORSDOF 3
