REMARK  Name = 146517038
REMARK  0 active torsions:
REMARK  status: ('A' for Active; 'I' for Inactive)
REMARK                            x       y       z     vdW  Elec       q    Type
REMARK                         _______ _______ _______ _____ _____    ______ ____
ROOT
ATOM      1  I   UNL     1      -4.042   0.108  -0.001  0.00  0.00    +0.000 I 
ATOM      2  O   UNL     1      -1.398   2.039   0.000  0.00  0.00    +0.000 OA
ATOM      3  N   UNL     1      -1.940  -0.236   0.000  0.00  0.00    +0.000 N 
ATOM      4  N   UNL     1      -0.221  -1.882   0.000  0.00  0.00    +0.000 NA
ATOM      5  N   UNL     1       2.021  -1.251  -0.000  0.00  0.00    +0.000 NA
ATOM      6  C   UNL     1       0.364   0.495   0.000  0.00  0.00    +0.000 A 
ATOM      7  C   UNL     1       0.729  -0.849   0.000  0.00  0.00    +0.000 A 
ATOM      8  C   UNL     1      -1.069   0.858   0.000  0.00  0.00    +0.000 A 
ATOM      9  C   UNL     1       1.362   1.468   0.000  0.00  0.00    +0.000 A 
ATOM     10  C   UNL     1      -1.467  -1.538   0.000  0.00  0.00    +0.000 A 
ATOM     11  C   UNL     1       2.693   1.073  -0.000  0.00  0.00    +0.000 A 
ATOM     12  C   UNL     1       2.968  -0.285  -0.001  0.00  0.00    +0.000 A 
ENDROOT
TORSDOF 0
