REMARK  Name = 146517600
REMARK  4 active torsions:
REMARK  status: ('A' for Active; 'I' for Inactive)
REMARK    1  A    between atoms: N_3  and  C_5
REMARK    2  A    between atoms: C_4  and  C_7
REMARK    3  A    between atoms: C_7  and  C_9
REMARK    4  A    between atoms: C_11  and  C_12
REMARK                            x       y       z     vdW  Elec       q    Type
REMARK                         _______ _______ _______ _____ _____    ______ ____
ROOT
ATOM      1  N   UNL     1      -1.735  -0.865   0.418  0.00  0.00    +0.000 NA
ATOM      2  C   UNL     1       0.081   0.705   0.128  0.00  0.00    +0.000 A 
ATOM      3  C   UNL     1      -0.421  -0.548   0.442  0.00  0.00    +0.000 A 
ATOM      4  C   UNL     1      -0.824   1.696  -0.234  0.00  0.00    +0.000 A 
ATOM      5  C   UNL     1      -2.184   1.409  -0.270  0.00  0.00    +0.000 A 
ATOM      6  C   UNL     1      -2.585   0.125   0.062  0.00  0.00    +0.000 A 
ENDROOT
BRANCH   2   8
ATOM      7  O   UNL     1       2.270   0.416   0.957  0.00  0.00    +0.000 OA
ATOM      8  C   UNL     1       1.505   1.002   0.167  0.00  0.00    +0.000 C 
ATOM      9  C   UNL     1       2.096   2.051  -0.768  0.00  0.00    +0.000 C 
ENDBRANCH   2   8
BRANCH   3  10
ATOM     10  N   UNL     1       0.434  -1.592   0.815  0.00  0.00    +0.000 NA
ATOM     11  C   UNL     1       0.879  -2.334  -0.150  0.00  0.00    +0.000 C 
ATOM     12  C   UNL     1       0.483  -2.067  -1.568  0.00  0.00    +0.000 C 
ENDBRANCH   3  10
TORSDOF 2
