REMARK  Name = 147531350
REMARK  3 active torsions:
REMARK  status: ('A' for Active; 'I' for Inactive)
REMARK    1  A    between atoms: N_3  and  C_11
REMARK    2  A    between atoms: C_6  and  C_8
REMARK    3  A    between atoms: C_8  and  C_12
REMARK                            x       y       z     vdW  Elec       q    Type
REMARK                         _______ _______ _______ _____ _____    ______ ____
ROOT
ATOM      1  N   UNL     1      -0.701   1.032   0.695  0.00  0.00    +0.000 NA
ATOM      2  C   UNL     1       1.388   0.019   0.021  0.00  0.00    +0.000 A 
ATOM      3  C   UNL     1       0.743  -1.196  -0.180  0.00  0.00    +0.000 A 
ATOM      4  C   UNL     1       0.628   1.093   0.455  0.00  0.00    +0.000 A 
ATOM      5  C   UNL     1      -0.624  -1.299   0.057  0.00  0.00    +0.000 A 
ATOM      6  C   UNL     1      -1.294  -0.166   0.490  0.00  0.00    +0.000 A 
ENDROOT
BRANCH   2   8
ATOM      7  O   UNL     1       3.310   1.244  -0.586  0.00  0.00    +0.000 OA
ATOM      8  C   UNL     1       2.813   0.160  -0.219  0.00  0.00    +0.000 C 
ATOM      9  C   UNL     1       3.748  -1.031  -0.026  0.00  0.00    +0.000 C 
ENDBRANCH   2   8
BRANCH   6  10
ATOM     10  N   UNL     1      -2.668  -0.218   0.741  0.00  0.00    +0.000 NA
ATOM     11  N   UNL     1      -3.356   0.056  -0.266  0.00  0.00    +0.000 NA
ATOM     12  N   UNL     1      -3.989   0.306  -1.182  0.00  0.00    +0.000 NA
ENDBRANCH   6  10
TORSDOF 2
