REMARK  Name = 148048379
REMARK  6 active torsions:
REMARK  status: ('A' for Active; 'I' for Inactive)
REMARK    1  A    between atoms: N_3  and  C_11
REMARK    2  A    between atoms: N_5  and  C_15
REMARK    3  A    between atoms: N_6  and  C_16
REMARK    4  A    between atoms: C_7  and  C_10
REMARK    5  A    between atoms: C_8  and  C_13
REMARK    6  A    between atoms: C_10  and  C_14
REMARK                            x       y       z     vdW  Elec       q    Type
REMARK                         _______ _______ _______ _____ _____    ______ ____
ROOT
ATOM      1  N   UNL     1       1.176   1.894   1.117  0.00  0.00    +0.000 NA
ATOM      2  C   UNL     1      -0.586   0.637   0.041  0.00  0.00    +0.000 A 
ATOM      3  C   UNL     1       1.699  -0.079  -0.178  0.00  0.00    +0.000 A 
ATOM      4  C   UNL     1       0.350  -0.259  -0.463  0.00  0.00    +0.000 A 
ATOM      5  C   UNL     1       2.057   1.004   0.610  0.00  0.00    +0.000 A 
ATOM      6  C   UNL     1      -0.126   1.687   0.818  0.00  0.00    +0.000 A 
ENDROOT
BRANCH   3   9
ATOM      7  O   UNL     1       3.197  -0.846  -1.826  0.00  0.00    +0.000 OA
ATOM      8  N   UNL     1       2.985  -2.135   0.059  0.00  0.00    +0.000 N 
ATOM      9  C   UNL     1       2.674  -1.020  -0.713  0.00  0.00    +0.000 C 
ATOM     10  H   UNL     1       2.562  -2.297   0.967  0.00  0.00    +0.000 HD
ATOM     11  H   UNL     1       3.652  -2.826  -0.268  0.00  0.00    +0.000 HD
ENDBRANCH   3   9
BRANCH   5  12
ATOM     12  N   UNL     1       3.431   1.194   0.905  0.00  0.00    +0.000 N 
ATOM     13  H   UNL     1       4.029   0.379   0.973  0.00  0.00    +0.000 HD
ATOM     14  H   UNL     1       3.662   1.995   1.479  0.00  0.00    +0.000 HD
ENDBRANCH   5  12
BRANCH   2  15
ATOM     15  C   UNL     1      -2.020   0.474  -0.242  0.00  0.00    +0.000 C 
ATOM     16  C   UNL     1      -2.742   1.410  -0.880  0.00  0.00    +0.000 C 
BRANCH  16  17
ATOM     17  N   UNL     1      -4.062   1.407  -1.212  0.00  0.00    +0.000 N 
ATOM     18  H   UNL     1      -4.442   2.210  -1.698  0.00  0.00    +0.000 HD
ATOM     19  H   UNL     1      -4.675   0.638  -0.986  0.00  0.00    +0.000 HD
ENDBRANCH  16  17
BRANCH  15  21
ATOM     20  N   UNL     1      -2.183  -1.753   0.762  0.00  0.00    +0.000 NA
ATOM     21  C   UNL     1      -2.746  -0.764   0.155  0.00  0.00    +0.000 C 
ATOM     22  C   UNL     1      -3.104  -2.850   1.046  0.00  0.00    +0.000 C 
ENDBRANCH  15  21
ENDBRANCH   2  15
TORSDOF 5
