REMARK  Name = 148048380
REMARK  6 active torsions:
REMARK  status: ('A' for Active; 'I' for Inactive)
REMARK    1  A    between atoms: N_3  and  C_16
REMARK    2  A    between atoms: N_4  and  C_11
REMARK    3  A    between atoms: N_5  and  C_14
REMARK    4  A    between atoms: C_7  and  C_10
REMARK    5  A    between atoms: C_9  and  C_15
REMARK    6  A    between atoms: C_10  and  C_13
REMARK                            x       y       z     vdW  Elec       q    Type
REMARK                         _______ _______ _______ _____ _____    ______ ____
ROOT
ATOM      1  N   UNL     1      -1.062   0.381   2.091  0.00  0.00    +0.000 NA
ATOM      2  C   UNL     1       0.558   0.432   0.296  0.00  0.00    +0.000 A 
ATOM      3  C   UNL     1      -0.444   0.151  -0.626  0.00  0.00    +0.000 A 
ATOM      4  C   UNL     1      -1.755  -0.015  -0.191  0.00  0.00    +0.000 A 
ATOM      5  C   UNL     1      -2.009   0.109   1.165  0.00  0.00    +0.000 A 
ATOM      6  C   UNL     1       0.200   0.536   1.631  0.00  0.00    +0.000 A 
ENDROOT
BRANCH   4   9
ATOM      7  O   UNL     1      -3.074  -1.482  -1.478  0.00  0.00    +0.000 OA
ATOM      8  N   UNL     1      -3.462   0.762  -1.746  0.00  0.00    +0.000 N 
ATOM      9  C   UNL     1      -2.797  -0.312  -1.164  0.00  0.00    +0.000 C 
ATOM     10  H   UNL     1      -3.244   1.725  -1.507  0.00  0.00    +0.000 HD
ATOM     11  H   UNL     1      -4.193   0.613  -2.434  0.00  0.00    +0.000 HD
ENDBRANCH   4   9
BRANCH   5  12
ATOM     12  N   UNL     1      -3.342  -0.058   1.616  0.00  0.00    +0.000 N 
ATOM     13  H   UNL     1      -4.100   0.205   0.998  0.00  0.00    +0.000 HD
ATOM     14  H   UNL     1      -3.497   0.034   2.613  0.00  0.00    +0.000 HD
ENDBRANCH   5  12
BRANCH   2  15
ATOM     15  C   UNL     1       1.952   0.614  -0.131  0.00  0.00    +0.000 C 
ATOM     16  C   UNL     1       2.433   1.821  -0.473  0.00  0.00    +0.000 C 
BRANCH  15  18
ATOM     17  N   UNL     1       2.636  -1.731   0.085  0.00  0.00    +0.000 N 
ATOM     18  C   UNL     1       2.917  -0.511  -0.207  0.00  0.00    +0.000 C 
ATOM     19  C   UNL     1       3.568  -2.867   0.019  0.00  0.00    +0.000 C 
ATOM     20  H   UNL     1       1.684  -1.952   0.391  0.00  0.00    +0.000 HD
ENDBRANCH  15  18
BRANCH  16  21
ATOM     21  N   UNL     1       3.681   2.169  -0.887  0.00  0.00    +0.000 N 
ATOM     22  H   UNL     1       3.869   3.140  -1.106  0.00  0.00    +0.000 HD
ATOM     23  H   UNL     1       4.426   1.494  -0.985  0.00  0.00    +0.000 HD
ENDBRANCH  16  21
ENDBRANCH   2  15
TORSDOF 5
