REMARK  Name = 149253951
REMARK  0 active torsions:
REMARK  status: ('A' for Active; 'I' for Inactive)
REMARK                            x       y       z     vdW  Elec       q    Type
REMARK                         _______ _______ _______ _____ _____    ______ ____
ROOT
ATOM      1  O   UNL     1      -0.426  -2.353  -0.996  0.00  0.00    +0.000 OA
ATOM      2  O   UNL     1      -3.069   1.412  -0.452  0.00  0.00    +0.000 OA
ATOM      3  N   UNL     1      -0.769   1.433  -0.243  0.00  0.00    +0.000 N 
ATOM      4  N   UNL     1       1.551   1.665  -0.043  0.00  0.00    +0.000 NA
ATOM      5  N   UNL     1      -1.483  -1.364   0.788  0.00  0.00    +0.000 NA
ATOM      6  C   UNL     1       0.648  -0.555   0.012  0.00  0.00    +0.000 A 
ATOM      7  C   UNL     1       0.486   0.825  -0.053  0.00  0.00    +0.000 A 
ATOM      8  C   UNL     1       1.934  -1.089   0.112  0.00  0.00    +0.000 A 
ATOM      9  C   UNL     1      -0.481  -1.485  -0.132  0.00  0.00    +0.000 A 
ATOM     10  C   UNL     1       3.028  -0.237   0.156  0.00  0.00    +0.000 A 
ATOM     11  C   UNL     1      -2.025   0.906  -0.054  0.00  0.00    +0.000 A 
ATOM     12  C   UNL     1       2.785   1.121   0.073  0.00  0.00    +0.000 A 
ATOM     13  C   UNL     1      -2.179  -0.280   0.832  0.00  0.00    +0.000 A 
ATOM     14  H   UNL     1      -0.726   2.396  -0.566  0.00  0.00    +0.000 HD
ENDROOT
TORSDOF 0
