REMARK  Name = 15073511
REMARK  5 active torsions:
REMARK  status: ('A' for Active; 'I' for Inactive)
REMARK    1  A    between atoms: N_2  and  C_6
REMARK    2  A    between atoms: N_2  and  C_8
REMARK    3  A    between atoms: C_5  and  C_6
REMARK    4  A    between atoms: C_5  and  C_7
REMARK    5  A    between atoms: C_11  and  C_17
REMARK                            x       y       z     vdW  Elec       q    Type
REMARK                         _______ _______ _______ _____ _____    ______ ____
ROOT
ATOM      1  N   UNL     1       1.988   1.860  -0.198  0.00  0.00    +0.000 NA
ATOM      2  C   UNL     1       1.571   0.627   0.221  0.00  0.00    +0.000 A 
ATOM      3  C   UNL     1       2.300  -0.534  -0.069  0.00  0.00    +0.000 A 
ATOM      4  C   UNL     1       3.477  -0.427  -0.802  0.00  0.00    +0.000 A 
ATOM      5  C   UNL     1       3.910   0.822  -1.233  0.00  0.00    +0.000 A 
ATOM      6  C   UNL     1       3.136   1.924  -0.908  0.00  0.00    +0.000 A 
ENDROOT
BRANCH   3   9
ATOM      7  O   UNL     1       2.193  -2.302   1.483  0.00  0.00    +0.000 OA
ATOM      8  N   UNL     1       1.020  -2.568  -0.469  0.00  0.00    +0.000 N 
ATOM      9  C   UNL     1       1.855  -1.847   0.378  0.00  0.00    +0.000 C 
ATOM     10  H   UNL     1       0.725  -2.207  -1.371  0.00  0.00    +0.000 HD
ATOM     11  H   UNL     1       0.674  -3.484  -0.205  0.00  0.00    +0.000 HD
ENDBRANCH   3   9
BRANCH   2  12
ATOM     12  N   UNL     1       0.398   0.528   0.950  0.00  0.00    +0.000 N 
ATOM     13  H   UNL     1       0.293  -0.297   1.532  0.00  0.00    +0.000 HD
BRANCH  12  14
ATOM     14  C   UNL     1      -0.425   1.663   1.301  0.00  0.00    +0.000 C 
BRANCH  14  15
ATOM     15  C   UNL     1      -1.834   1.207   1.708  0.00  0.00    +0.000 C 
BRANCH  15  16
ATOM     16  C   UNL     1      -2.573   0.501   0.622  0.00  0.00    +0.000 A 
ATOM     17  C   UNL     1      -3.370   1.226  -0.265  0.00  0.00    +0.000 A 
ATOM     18  C   UNL     1      -2.468  -0.884   0.493  0.00  0.00    +0.000 A 
ATOM     19  C   UNL     1      -4.061   0.565  -1.280  0.00  0.00    +0.000 A 
ATOM     20  C   UNL     1      -3.160  -1.544  -0.522  0.00  0.00    +0.000 A 
ATOM     21  C   UNL     1      -3.956  -0.819  -1.409  0.00  0.00    +0.000 A 
ENDBRANCH  15  16
ENDBRANCH  14  15
ENDBRANCH  12  14
ENDBRANCH   2  12
TORSDOF 5
