REMARK  Name = 15154532
REMARK  6 active torsions:
REMARK  status: ('A' for Active; 'I' for Inactive)
REMARK    1  A    between atoms: N_2  and  C_5
REMARK    2  A    between atoms: N_4  and  C_11
REMARK    3  A    between atoms: C_5  and  C_6
REMARK    4  A    between atoms: C_5  and  C_7
REMARK    5  A    between atoms: C_5  and  C_10
REMARK    6  A    between atoms: C_8  and  C_9
REMARK                            x       y       z     vdW  Elec       q    Type
REMARK                         _______ _______ _______ _____ _____    ______ ____
ROOT
ATOM      1  O   UNL     1       0.184   1.763   0.569  0.00  0.00    +0.000 OA
ATOM      2  N   UNL     1       1.159  -0.247  -0.050  0.00  0.00    +0.000 N 
ATOM      3  C   UNL     1       0.091   0.587   0.228  0.00  0.00    +0.000 C 
ATOM      4  H   UNL     1       0.992  -1.187  -0.398  0.00  0.00    +0.000 HD
ENDROOT
BRANCH   3   6
ATOM      5  N   UNL     1      -3.594   0.165  -0.347  0.00  0.00    +0.000 NA
ATOM      6  C   UNL     1      -1.255  -0.032   0.116  0.00  0.00    +0.000 A 
ATOM      7  C   UNL     1      -2.358   0.701  -0.238  0.00  0.00    +0.000 A 
ATOM      8  C   UNL     1      -1.378  -1.377   0.380  0.00  0.00    +0.000 A 
ATOM      9  C   UNL     1      -2.634  -1.964   0.278  0.00  0.00    +0.000 A 
ATOM     10  C   UNL     1      -3.701  -1.157  -0.085  0.00  0.00    +0.000 A 
BRANCH   7  11
ATOM     11  N   UNL     1      -2.213   2.085  -0.505  0.00  0.00    +0.000 N 
ATOM     12  H   UNL     1      -3.057   2.586  -0.758  0.00  0.00    +0.000 HD
ATOM     13  H   UNL     1      -1.339   2.414  -0.897  0.00  0.00    +0.000 HD
ENDBRANCH   7  11
ENDBRANCH   3   6
BRANCH   2  14
ATOM     14  C   UNL     1       2.534   0.201   0.039  0.00  0.00    +0.000 C 
ATOM     15  C   UNL     1       2.830   0.659   1.472  0.00  0.00    +0.000 C 
ATOM     16  C   UNL     1       2.748   1.365  -0.934  0.00  0.00    +0.000 C 
BRANCH  14  17
ATOM     17  C   UNL     1       3.429  -0.919  -0.317  0.00  0.00    +0.000 C 
ATOM     18  C   UNL     1       4.158  -1.829  -0.606  0.00  0.00    +0.000 C 
ENDBRANCH  14  17
ENDBRANCH   2  14
TORSDOF 4
