REMARK  Name = 15154531
REMARK  4 active torsions:
REMARK  status: ('A' for Active; 'I' for Inactive)
REMARK    1  A    between atoms: N_2  and  C_10
REMARK    2  A    between atoms: N_4  and  C_6
REMARK    3  A    between atoms: C_5  and  C_7
REMARK    4  A    between atoms: C_10  and  C_12
REMARK                            x       y       z     vdW  Elec       q    Type
REMARK                         _______ _______ _______ _____ _____    ______ ____
ROOT
ATOM      1  N   UNL     1      -2.949   0.725   0.497  0.00  0.00    +0.000 NA
ATOM      2  C   UNL     1      -0.797  -0.105  -0.229  0.00  0.00    +0.000 A 
ATOM      3  C   UNL     1      -1.665   0.917   0.121  0.00  0.00    +0.000 A 
ATOM      4  C   UNL     1      -1.279  -1.409  -0.191  0.00  0.00    +0.000 A 
ATOM      5  C   UNL     1      -2.595  -1.647   0.191  0.00  0.00    +0.000 A 
ATOM      6  C   UNL     1      -3.382  -0.556   0.522  0.00  0.00    +0.000 A 
ENDROOT
BRANCH   2   9
ATOM      7  O   UNL     1       0.901   1.202  -1.181  0.00  0.00    +0.000 OA
ATOM      8  N   UNL     1       1.509  -0.873  -0.342  0.00  0.00    +0.000 N 
ATOM      9  C   UNL     1       0.582   0.135  -0.629  0.00  0.00    +0.000 C 
ATOM     10  H   UNL     1       1.218  -1.696   0.175  0.00  0.00    +0.000 HD
BRANCH   8  11
ATOM     11  C   UNL     1       2.917  -0.774  -0.655  0.00  0.00    +0.000 C 
BRANCH  11  12
ATOM     12  C   UNL     1       3.662  -0.177   0.452  0.00  0.00    +0.000 C 
ATOM     13  C   UNL     1       4.278   0.314   1.358  0.00  0.00    +0.000 C 
ENDBRANCH  11  12
ENDBRANCH   8  11
ENDBRANCH   2   9
BRANCH   3  14
ATOM     14  N   UNL     1      -1.181   2.249   0.085  0.00  0.00    +0.000 N 
ATOM     15  H   UNL     1      -0.203   2.415   0.287  0.00  0.00    +0.000 HD
ATOM     16  H   UNL     1      -1.840   2.975   0.340  0.00  0.00    +0.000 HD
ENDBRANCH   3  14
TORSDOF 4
