REMARK  Name = 152476187
REMARK  3 active torsions:
REMARK  status: ('A' for Active; 'I' for Inactive)
REMARK    1  A    between atoms: N_2  and  C_9
REMARK    2  A    between atoms: N_3  and  C_12
REMARK    3  A    between atoms: C_15  and  C_18
REMARK                            x       y       z     vdW  Elec       q    Type
REMARK                         _______ _______ _______ _____ _____    ______ ____
ROOT
ATOM      1  N   UNL     1       0.000   1.263  -0.002  0.00  0.00    +0.000 N 
ATOM      2  N   UNL     1      -1.514  -0.562  -0.003  0.00  0.00    +0.000 NA
ATOM      3  C   UNL     1      -1.317   0.775  -0.002  0.00  0.00    +0.000 A 
ATOM      4  C   UNL     1      -2.340   1.710  -0.001  0.00  0.00    +0.000 A 
ATOM      5  C   UNL     1      -3.892  -0.127  -0.001  0.00  0.00    +0.000 A 
ATOM      6  C   UNL     1      -3.649   1.242  -0.001  0.00  0.00    +0.000 A 
ATOM      7  C   UNL     1      -2.800  -0.980  -0.002  0.00  0.00    +0.000 A 
ATOM      8  H   UNL     1       0.099   2.273  -0.002  0.00  0.00    +0.000 HD
ENDROOT
BRANCH   5  11
ATOM      9  O   UNL     1      -6.235   0.113   0.013  0.00  0.00    +0.000 OA
ATOM     10  N   UNL     1      -5.415  -2.029  -0.002  0.00  0.00    +0.000 N 
ATOM     11  C   UNL     1      -5.248  -0.646  -0.003  0.00  0.00    +0.000 C 
ATOM     12  H   UNL     1      -4.667  -2.711  -0.009  0.00  0.00    +0.000 HD
ATOM     13  H   UNL     1      -6.352  -2.419   0.004  0.00  0.00    +0.000 HD
ENDBRANCH   5  11
BRANCH   1  15
ATOM     14  C   UNL     1       2.409   1.047  -0.001  0.00  0.00    +0.000 C 
ATOM     15  C   UNL     1       1.163   0.563  -0.002  0.00  0.00    +0.000 C 
BRANCH  14  16
ATOM     16  N   UNL     1       3.584   0.340   0.000  0.00  0.00    +0.000 N 
ATOM     17  C   UNL     1       3.521  -1.142  -0.001  0.00  0.00    +0.000 C 
ATOM     18  C   UNL     1       4.883  -1.793   0.001  0.00  0.00    +0.000 C 
ATOM     19  C   UNL     1       4.821   0.977   0.001  0.00  0.00    +0.000 C 
ATOM     20  C   UNL     1       6.028  -1.095   0.002  0.00  0.00    +0.000 C 
ATOM     21  C   UNL     1       6.002   0.344   0.002  0.00  0.00    +0.000 C 
ENDBRANCH  14  16
ENDBRANCH   1  15
TORSDOF 3
