REMARK  Name = 153682203
REMARK  1 active torsions:
REMARK  status: ('A' for Active; 'I' for Inactive)
REMARK    1  A    between atoms: C_11  and  C_12
REMARK                            x       y       z     vdW  Elec       q    Type
REMARK                         _______ _______ _______ _____ _____    ______ ____
ROOT
ATOM      1  F   UNL     1      -3.739  -0.877  -1.133  0.00  0.00    +0.000 F 
ATOM      2  F   UNL     1      -4.616  -0.111   0.713  0.00  0.00    +0.000 F 
ATOM      3  O   UNL     1      -0.207   2.367  -0.568  0.00  0.00    +0.000 OA
ATOM      4  N   UNL     1      -1.226   0.353  -0.022  0.00  0.00    +0.000 N 
ATOM      5  C   UNL     1      -3.453  -0.370   0.089  0.00  0.00    +0.000 C 
ATOM      6  C   UNL     1      -2.598  -1.346   0.875  0.00  0.00    +0.000 C 
ATOM      7  C   UNL     1      -2.590   0.865  -0.049  0.00  0.00    +0.000 C 
ATOM      8  C   UNL     1      -1.200  -1.064   0.344  0.00  0.00    +0.000 C 
ATOM      9  C   UNL     1      -0.138   1.179  -0.262  0.00  0.00    +0.000 C 
ENDROOT
BRANCH   9  12
ATOM     10  N   UNL     1       2.816  -1.062  -0.847  0.00  0.00    +0.000 NA
ATOM     11  N   UNL     1       4.968  -1.119   0.173  0.00  0.00    +0.000 N 
ATOM     12  C   UNL     1       1.205   0.592  -0.130  0.00  0.00    +0.000 A 
ATOM     13  C   UNL     1       2.120   1.096   0.788  0.00  0.00    +0.000 A 
ATOM     14  C   UNL     1       1.598  -0.479  -0.917  0.00  0.00    +0.000 A 
ATOM     15  C   UNL     1       3.382   0.522   0.889  0.00  0.00    +0.000 A 
ATOM     16  C   UNL     1       3.678  -0.545   0.057  0.00  0.00    +0.000 A 
ATOM     17  H   UNL     1       5.731  -0.532   0.487  0.00  0.00    +0.000 HD
ATOM     18  H   UNL     1       5.182  -1.895  -0.442  0.00  0.00    +0.000 HD
ENDBRANCH   9  12
TORSDOF 1
