REMARK  Name = 153625950
REMARK  2 active torsions:
REMARK  status: ('A' for Active; 'I' for Inactive)
REMARK    1  A    between atoms: N_5  and  C_11
REMARK    2  A    between atoms: C_6  and  C_11
REMARK                            x       y       z     vdW  Elec       q    Type
REMARK                         _______ _______ _______ _____ _____    ______ ____
ROOT
ATOM      1  N   UNL     1      -1.996   1.305  -0.001  0.00  0.00    +0.000 NA
ATOM      2  N   UNL     1      -4.225   0.466  -0.001  0.00  0.00    +0.000 N 
ATOM      3  C   UNL     1      -0.141  -0.246   0.002  0.00  0.00    +0.000 A 
ATOM      4  C   UNL     1      -1.028  -1.317   0.001  0.00  0.00    +0.000 A 
ATOM      5  C   UNL     1      -2.398  -1.079   0.000  0.00  0.00    +0.000 A 
ATOM      6  C   UNL     1      -2.827   0.239  -0.001  0.00  0.00    +0.000 A 
ATOM      7  C   UNL     1      -0.671   1.034   0.001  0.00  0.00    +0.000 A 
ATOM      8  H   UNL     1      -4.827  -0.233  -0.418  0.00  0.00    +0.000 HD
ATOM      9  H   UNL     1      -4.534   1.430  -0.007  0.00  0.00    +0.000 HD
ENDROOT
BRANCH   3  11
ATOM     10  O   UNL     1       1.756  -1.623  -0.002  0.00  0.00    +0.000 OA
ATOM     11  C   UNL     1       1.295  -0.463   0.000  0.00  0.00    +0.000 C 
BRANCH  11  13
ATOM     12  S   UNL     1       4.861   0.443  -0.001  0.00  0.00    +0.000 S 
ATOM     13  N   UNL     1       2.103   0.678   0.001  0.00  0.00    +0.000 NA
ATOM     14  C   UNL     1       3.272   0.561   0.000  0.00  0.00    +0.000 C 
ENDBRANCH  11  13
ENDBRANCH   3  11
TORSDOF 2
