REMARK  Name = 153765365
REMARK  6 active torsions:
REMARK  status: ('A' for Active; 'I' for Inactive)
REMARK    1  A    between atoms: N_2  and  C_5
REMARK    2  A    between atoms: N_2  and  C_7
REMARK    3  A    between atoms: N_2  and  C_8
REMARK    4  A    between atoms: C_5  and  C_6
REMARK    5  A    between atoms: C_6  and  C_10
REMARK    6  A    between atoms: C_9  and  C_12
REMARK                            x       y       z     vdW  Elec       q    Type
REMARK                         _______ _______ _______ _____ _____    ______ ____
ROOT
ATOM      1  N   UNL     1      -0.147  -1.829  -0.457  0.00  0.00    +0.000 NA
ATOM      2  C   UNL     1      -0.175  -0.482  -0.344  0.00  0.00    +0.000 A 
ATOM      3  C   UNL     1      -1.251   0.231   0.158  0.00  0.00    +0.000 A 
ATOM      4  C   UNL     1      -2.370  -0.483   0.573  0.00  0.00    +0.000 A 
ATOM      5  C   UNL     1      -2.378  -1.870   0.473  0.00  0.00    +0.000 A 
ATOM      6  C   UNL     1      -1.252  -2.490  -0.044  0.00  0.00    +0.000 A 
ENDROOT
BRANCH   3   9
ATOM      7  O   UNL     1      -1.647   2.399  -0.674  0.00  0.00    +0.000 OA
ATOM      8  N   UNL     1      -0.783   2.247   1.445  0.00  0.00    +0.000 N 
ATOM      9  C   UNL     1      -1.254   1.684   0.263  0.00  0.00    +0.000 C 
ATOM     10  H   UNL     1      -0.455   1.679   2.219  0.00  0.00    +0.000 HD
ATOM     11  H   UNL     1      -0.756   3.253   1.568  0.00  0.00    +0.000 HD
ENDBRANCH   3   9
BRANCH   2  12
ATOM     12  N   UNL     1       0.955   0.232  -0.768  0.00  0.00    +0.000 N 
ATOM     13  C   UNL     1       1.054   0.688  -2.155  0.00  0.00    +0.000 C 
BRANCH  12  14
ATOM     14  C   UNL     1       2.026   0.555   0.144  0.00  0.00    +0.000 C 
BRANCH  14  15
ATOM     15  C   UNL     1       3.046  -0.577   0.202  0.00  0.00    +0.000 C 
ATOM     16  C   UNL     1       4.176  -0.303   1.185  0.00  0.00    +0.000 C 
ENDBRANCH  14  15
ENDBRANCH  12  14
ENDBRANCH   2  12
TORSDOF 4
