REMARK  Name = 154191519
REMARK  3 active torsions:
REMARK  status: ('A' for Active; 'I' for Inactive)
REMARK    1  A    between atoms: N_2  and  C_6
REMARK    2  A    between atoms: C_6  and  C_8
REMARK    3  A    between atoms: C_6  and  C_9
REMARK                            x       y       z     vdW  Elec       q    Type
REMARK                         _______ _______ _______ _____ _____    ______ ____
ROOT
ATOM      1  O   UNL     1       1.590   2.808   0.162  0.00  0.00    +0.000 OA
ATOM      2  N   UNL     1      -2.484   0.584  -0.090  0.00  0.00    +0.000 N 
ATOM      3  N   UNL     1      -0.415   1.664   0.035  0.00  0.00    +0.000 N 
ATOM      4  N   UNL     1      -0.512  -0.683  -0.118  0.00  0.00    +0.000 NA
ATOM      5  N   UNL     1       1.454  -1.935  -0.145  0.00  0.00    +0.000 NA
ATOM      6  C   UNL     1      -1.119   0.469  -0.060  0.00  0.00    +0.000 A 
ATOM      7  C   UNL     1       1.655   0.456   0.013  0.00  0.00    +0.000 A 
ATOM      8  C   UNL     1       0.893  -0.705  -0.082  0.00  0.00    +0.000 A 
ATOM      9  C   UNL     1       0.967   1.756   0.078  0.00  0.00    +0.000 A 
ATOM     10  C   UNL     1       3.044   0.361   0.045  0.00  0.00    +0.000 A 
ATOM     11  C   UNL     1       3.636  -0.894  -0.019  0.00  0.00    +0.000 A 
ATOM     12  C   UNL     1       2.806  -1.999  -0.113  0.00  0.00    +0.000 A 
ATOM     13  H   UNL     1      -2.906   1.502   0.007  0.00  0.00    +0.000 HD
ATOM     14  H   UNL     1      -0.947   2.528   0.076  0.00  0.00    +0.000 HD
ENDROOT
BRANCH   2  15
ATOM     15  C   UNL     1      -3.345  -0.555  -0.182  0.00  0.00    +0.000 C 
ATOM     16  C   UNL     1      -3.468  -1.212   1.186  0.00  0.00    +0.000 C 
ATOM     17  C   UNL     1      -4.704  -0.115  -0.711  0.00  0.00    +0.000 C 
ENDBRANCH   2  15
TORSDOF 1
