REMARK  Name = 154234780
REMARK  1 active torsions:
REMARK  status: ('A' for Active; 'I' for Inactive)
REMARK    1  A    between atoms: C_12  and  C_18
REMARK                            x       y       z     vdW  Elec       q    Type
REMARK                         _______ _______ _______ _____ _____    ______ ____
ROOT
ATOM      1  O   UNL     1       2.265   2.236  -1.482  0.00  0.00    +0.000 OA
ATOM      2  N   UNL     1      -1.597  -0.592  -0.555  0.00  0.00    +0.000 NA
ATOM      3  N   UNL     1       0.617  -1.070  -0.428  0.00  0.00    +0.000 NA
ATOM      4  N   UNL     1       0.887   1.896   0.331  0.00  0.00    +0.000 NA
ATOM      5  N   UNL     1       2.617  -2.017   0.242  0.00  0.00    +0.000 NA
ATOM      6  C   UNL     1      -0.121   1.106   0.508  0.00  0.00    +0.000 A 
ATOM      7  C   UNL     1      -0.325  -0.214  -0.191  0.00  0.00    +0.000 A 
ATOM      8  C   UNL     1       2.627   0.335  -0.198  0.00  0.00    +0.000 A 
ATOM      9  C   UNL     1      -2.572  -0.079   0.129  0.00  0.00    +0.000 A 
ATOM     10  C   UNL     1       1.961  -0.878  -0.087  0.00  0.00    +0.000 A 
ATOM     11  C   UNL     1      -1.227   1.477   1.416  0.00  0.00    +0.000 A 
ATOM     12  C   UNL     1      -2.411   0.884   1.250  0.00  0.00    +0.000 A 
ATOM     13  C   UNL     1       1.892   1.557  -0.533  0.00  0.00    +0.000 A 
ATOM     14  C   UNL     1       4.002   0.397   0.022  0.00  0.00    +0.000 A 
ATOM     15  C   UNL     1       4.681  -0.762   0.367  0.00  0.00    +0.000 A 
ATOM     16  C   UNL     1       3.950  -1.932   0.468  0.00  0.00    +0.000 A 
ENDROOT
BRANCH   9  20
ATOM     17  F   UNL     1      -4.869   0.122   0.572  0.00  0.00    +0.000 F 
ATOM     18  F   UNL     1      -4.264  -0.159  -1.503  0.00  0.00    +0.000 F 
ATOM     19  F   UNL     1      -4.136  -1.819  -0.096  0.00  0.00    +0.000 F 
ATOM     20  C   UNL     1      -3.978  -0.490  -0.230  0.00  0.00    +0.000 C 
ENDBRANCH   9  20
TORSDOF 1
