REMARK  Name = 154230846
REMARK  1 active torsions:
REMARK  status: ('A' for Active; 'I' for Inactive)
REMARK    1  A    between atoms: N_4  and  C_13
REMARK                            x       y       z     vdW  Elec       q    Type
REMARK                         _______ _______ _______ _____ _____    ______ ____
ROOT
ATOM      1  O   UNL     1       0.458   2.842   0.000  0.00  0.00    +0.000 OA
ATOM      2  N   UNL     1      -1.308   1.350  -0.000  0.00  0.00    +0.000 N 
ATOM      3  N   UNL     1      -0.980  -0.982  -0.001  0.00  0.00    +0.000 NA
ATOM      4  N   UNL     1      -3.149  -0.091  -0.001  0.00  0.00    +0.000 N 
ATOM      5  N   UNL     1       1.180  -1.858  -0.001  0.00  0.00    +0.000 NA
ATOM      6  C   UNL     1       0.946   0.536   0.000  0.00  0.00    +0.000 A 
ATOM      7  C   UNL     1       0.406  -0.747  -0.001  0.00  0.00    +0.000 A 
ATOM      8  C   UNL     1      -1.786   0.044  -0.001  0.00  0.00    +0.000 A 
ATOM      9  C   UNL     1       0.035   1.692   0.000  0.00  0.00    +0.000 A 
ATOM     10  C   UNL     1       2.330   0.695   0.001  0.00  0.00    +0.000 A 
ATOM     11  C   UNL     1       3.138  -0.435   0.001  0.00  0.00    +0.000 A 
ATOM     12  C   UNL     1       2.521  -1.675  -0.000  0.00  0.00    +0.000 A 
ATOM     13  C   UNL     1      -3.790  -1.370   0.002  0.00  0.00    +0.000 C 
ATOM     14  H   UNL     1      -1.988   2.105  -0.000  0.00  0.00    +0.000 HD
ATOM     15  H   UNL     1      -3.737   0.736  -0.001  0.00  0.00    +0.000 HD
ENDROOT
TORSDOF 0
