REMARK  Name = 154215169
REMARK  3 active torsions:
REMARK  status: ('A' for Active; 'I' for Inactive)
REMARK    1  A    between atoms: S_1  and  C_11
REMARK    2  A    between atoms: C_6  and  C_7
REMARK    3  A    between atoms: C_6  and  C_11
REMARK                            x       y       z     vdW  Elec       q    Type
REMARK                         _______ _______ _______ _____ _____    ______ ____
ROOT
ATOM      1  O   UNL     1       0.709  -2.799  -0.058  0.00  0.00    +0.000 OA
ATOM      2  N   UNL     1      -0.942  -1.216   0.272  0.00  0.00    +0.000 N 
ATOM      3  N   UNL     1      -0.463   1.099   0.333  0.00  0.00    +0.000 NA
ATOM      4  N   UNL     1       1.729   1.848   0.056  0.00  0.00    +0.000 NA
ATOM      5  C   UNL     1      -1.299   0.111   0.400  0.00  0.00    +0.000 A 
ATOM      6  C   UNL     1       1.340  -0.526  -0.022  0.00  0.00    +0.000 A 
ATOM      7  C   UNL     1       0.892   0.786   0.118  0.00  0.00    +0.000 A 
ATOM      8  C   UNL     1       0.363  -1.630   0.058  0.00  0.00    +0.000 A 
ATOM      9  C   UNL     1       2.695  -0.765  -0.234  0.00  0.00    +0.000 A 
ATOM     10  C   UNL     1       3.567   0.314  -0.299  0.00  0.00    +0.000 A 
ATOM     11  C   UNL     1       3.040   1.587  -0.150  0.00  0.00    +0.000 A 
ATOM     12  H   UNL     1      -1.659  -1.932   0.336  0.00  0.00    +0.000 HD
ENDROOT
BRANCH   5  13
ATOM     13  C   UNL     1      -2.762   0.351   0.627  0.00  0.00    +0.000 C 
BRANCH  13  14
ATOM     14  C   UNL     1      -3.548   0.256  -0.671  0.00  0.00    +0.000 C 
BRANCH  14  15
ATOM     15  S   UNL     1      -5.321   0.585  -0.429  0.00  0.00    +0.000 S 
ATOM     16  H   UNL     1      -5.681   0.426  -1.711  0.00  0.00    +0.000 HD
ENDBRANCH  14  15
ENDBRANCH  13  14
ENDBRANCH   5  13
TORSDOF 3
