REMARK  Name = 154335245
REMARK  3 active torsions:
REMARK  status: ('A' for Active; 'I' for Inactive)
REMARK    1  A    between atoms: N_2  and  C_6
REMARK    2  A    between atoms: C_6  and  C_7
REMARK    3  A    between atoms: C_7  and  C_12
REMARK                            x       y       z     vdW  Elec       q    Type
REMARK                         _______ _______ _______ _____ _____    ______ ____
ROOT
ATOM      1  O   UNL     1       1.863   2.751   0.015  0.00  0.00    +0.000 OA
ATOM      2  N   UNL     1      -2.299   0.681  -0.027  0.00  0.00    +0.000 N 
ATOM      3  N   UNL     1      -0.187   1.683  -0.005  0.00  0.00    +0.000 N 
ATOM      4  N   UNL     1      -0.379  -0.664  -0.018  0.00  0.00    +0.000 NA
ATOM      5  N   UNL     1       1.536  -1.993  -0.009  0.00  0.00    +0.000 NA
ATOM      6  C   UNL     1      -0.940   0.513  -0.017  0.00  0.00    +0.000 A 
ATOM      7  C   UNL     1       1.834   0.393   0.005  0.00  0.00    +0.000 A 
ATOM      8  C   UNL     1       1.025  -0.739  -0.007  0.00  0.00    +0.000 A 
ATOM      9  C   UNL     1       1.198   1.722   0.006  0.00  0.00    +0.000 A 
ATOM     10  C   UNL     1       3.218   0.244   0.016  0.00  0.00    +0.000 A 
ATOM     11  C   UNL     1       3.759  -1.035   0.014  0.00  0.00    +0.000 A 
ATOM     12  C   UNL     1       2.884  -2.109   0.002  0.00  0.00    +0.000 A 
ATOM     13  H   UNL     1      -2.683   1.622  -0.031  0.00  0.00    +0.000 HD
ATOM     14  H   UNL     1      -0.684   2.568  -0.005  0.00  0.00    +0.000 HD
ENDROOT
BRANCH   2  15
ATOM     15  C   UNL     1      -3.206  -0.425  -0.039  0.00  0.00    +0.000 C 
BRANCH  15  16
ATOM     16  C   UNL     1      -4.651   0.060   0.014  0.00  0.00    +0.000 C 
ATOM     17  C   UNL     1      -5.656  -1.083   0.049  0.00  0.00    +0.000 C 
ENDBRANCH  15  16
ENDBRANCH   2  15
TORSDOF 2
