REMARK  Name = 154410587
REMARK  2 active torsions:
REMARK  status: ('A' for Active; 'I' for Inactive)
REMARK    1  A    between atoms: N_3  and  C_9
REMARK    2  A    between atoms: C_5  and  C_9
REMARK                            x       y       z     vdW  Elec       q    Type
REMARK                         _______ _______ _______ _____ _____    ______ ____
ROOT
ATOM      1  N   UNL     1      -2.776   0.953   0.000  0.00  0.00    +0.000 NA
ATOM      2  C   UNL     1      -0.499   0.142  -0.001  0.00  0.00    +0.000 A 
ATOM      3  C   UNL     1      -0.958  -1.171  -0.001  0.00  0.00    +0.000 A 
ATOM      4  C   UNL     1      -1.440   1.159   0.000  0.00  0.00    +0.000 A 
ATOM      5  C   UNL     1      -2.325  -1.423   0.000  0.00  0.00    +0.000 A 
ATOM      6  C   UNL     1      -3.185  -0.336   0.001  0.00  0.00    +0.000 A 
ENDROOT
BRANCH   2   8
ATOM      7  O   UNL     1       1.320   1.623  -0.000  0.00  0.00    +0.000 OA
ATOM      8  C   UNL     1       0.923   0.439  -0.000  0.00  0.00    +0.000 C 
BRANCH   8   9
ATOM      9  N   UNL     1       1.795  -0.655   0.000  0.00  0.00    +0.000 NA
ATOM     10  N   UNL     1       4.192  -0.268   0.001  0.00  0.00    +0.000 NA
ATOM     11  C   UNL     1       2.953  -0.463   0.000  0.00  0.00    +0.000 C 
ENDBRANCH   8   9
ENDBRANCH   2   8
TORSDOF 2
