REMARK  Name = 154984916
REMARK  4 active torsions:
REMARK  status: ('A' for Active; 'I' for Inactive)
REMARK    1  A    between atoms: N_2  and  C_12
REMARK    2  A    between atoms: N_4  and  C_7
REMARK    3  A    between atoms: C_5  and  C_9
REMARK    4  A    between atoms: C_6  and  C_10
REMARK                            x       y       z     vdW  Elec       q    Type
REMARK                         _______ _______ _______ _____ _____    ______ ____
ROOT
ATOM      1  N   UNL     1      -2.023   1.056  -0.311  0.00  0.00    +0.000 NA
ATOM      2  C   UNL     1      -0.056  -0.304   0.043  0.00  0.00    +0.000 A 
ATOM      3  C   UNL     1      -0.837  -1.454   0.016  0.00  0.00    +0.000 A 
ATOM      4  C   UNL     1      -0.692   0.915  -0.124  0.00  0.00    +0.000 A 
ATOM      5  C   UNL     1      -2.211  -1.351  -0.174  0.00  0.00    +0.000 A 
ATOM      6  C   UNL     1      -0.230  -2.808   0.188  0.00  0.00    +0.000 C 
ATOM      7  C   UNL     1      -2.750  -0.084  -0.332  0.00  0.00    +0.000 A 
ENDROOT
BRANCH   2  10
ATOM      8  O   UNL     1       1.851  -0.905   1.268  0.00  0.00    +0.000 OA
ATOM      9  N   UNL     1       2.192   0.133  -0.777  0.00  0.00    +0.000 N 
ATOM     10  C   UNL     1       1.386  -0.382   0.242  0.00  0.00    +0.000 C 
ATOM     11  C   UNL     1       3.637   0.109  -0.739  0.00  0.00    +0.000 C 
ATOM     12  H   UNL     1       1.751   0.561  -1.586  0.00  0.00    +0.000 HD
ENDBRANCH   2  10
BRANCH   4  13
ATOM     13  N   UNL     1       0.033   2.113  -0.108  0.00  0.00    +0.000 NA
ATOM     14  C   UNL     1      -0.298   2.962   0.808  0.00  0.00    +0.000 C 
ENDBRANCH   4  13
TORSDOF 2
