REMARK  Name = 15519767
REMARK  2 active torsions:
REMARK  status: ('A' for Active; 'I' for Inactive)
REMARK    1  A    between atoms: N_3  and  C_5
REMARK    2  A    between atoms: C_6  and  C_10
REMARK                            x       y       z     vdW  Elec       q    Type
REMARK                         _______ _______ _______ _____ _____    ______ ____
ROOT
ATOM      1  N   UNL     1       1.508  -1.251   0.000  0.00  0.00    +0.000 NA
ATOM      2  N   UNL     1       3.257   0.366  -0.000  0.00  0.00    +0.000 N 
ATOM      3  C   UNL     1      -0.377   0.814   0.000  0.00  0.00    +0.000 A 
ATOM      4  C   UNL     1      -0.794  -0.513   0.001  0.00  0.00    +0.000 A 
ATOM      5  C   UNL     1       0.982   1.109  -0.000  0.00  0.00    +0.000 A 
ATOM      6  C   UNL     1       1.876   0.050  -0.000  0.00  0.00    +0.000 A 
ATOM      7  C   UNL     1       0.179  -1.499   0.000  0.00  0.00    +0.000 A 
ATOM      8  H   UNL     1       3.906  -0.411   0.006  0.00  0.00    +0.000 HD
ATOM      9  H   UNL     1       3.551   1.240   0.419  0.00  0.00    +0.000 HD
ENDROOT
BRANCH   3  10
ATOM     10  N   UNL     1      -1.313   1.870   0.000  0.00  0.00    +0.000 N 
ATOM     11  H   UNL     1      -2.307   1.687   0.002  0.00  0.00    +0.000 HD
ATOM     12  H   UNL     1      -0.987   2.827   0.001  0.00  0.00    +0.000 HD
ENDBRANCH   3  10
BRANCH   4  14
ATOM     13  O   UNL     1      -3.116  -0.059  -0.000  0.00  0.00    +0.000 OA
ATOM     14  C   UNL     1      -2.201  -0.886  -0.001  0.00  0.00    +0.000 C 
ENDBRANCH   4  14
TORSDOF 2
