REMARK  Name = 155230717
REMARK  4 active torsions:
REMARK  status: ('A' for Active; 'I' for Inactive)
REMARK    1  A    between atoms: N_3  and  C_8
REMARK    2  A    between atoms: N_3  and  C_9
REMARK    3  A    between atoms: N_5  and  C_11
REMARK    4  A    between atoms: C_6  and  C_7
REMARK                            x       y       z     vdW  Elec       q    Type
REMARK                         _______ _______ _______ _____ _____    ______ ____
ROOT
ATOM      1  N   UNL     1       2.281  -0.156  -0.182  0.00  0.00    +0.000 NA
ATOM      2  C   UNL     1      -0.043  -0.821  -0.214  0.00  0.00    +0.000 A 
ATOM      3  C   UNL     1       0.293  -2.050   0.344  0.00  0.00    +0.000 A 
ATOM      4  C   UNL     1       0.979   0.083  -0.455  0.00  0.00    +0.000 A 
ATOM      5  C   UNL     1       1.622  -2.333   0.638  0.00  0.00    +0.000 A 
ATOM      6  C   UNL     1       2.570  -1.361   0.359  0.00  0.00    +0.000 A 
ENDROOT
BRANCH   2   9
ATOM      7  O   UNL     1      -1.831  -0.817  -1.658  0.00  0.00    +0.000 OA
ATOM      8  N   UNL     1      -2.233   0.088   0.460  0.00  0.00    +0.000 N 
ATOM      9  C   UNL     1      -1.449  -0.519  -0.527  0.00  0.00    +0.000 C 
ATOM     10  C   UNL     1      -3.623   0.412   0.168  0.00  0.00    +0.000 C 
ATOM     11  C   UNL     1      -1.771   0.433   1.802  0.00  0.00    +0.000 C 
ENDBRANCH   2   9
BRANCH   4  13
ATOM     12  S   UNL     1       1.462   3.467   0.597  0.00  0.00    +0.000 S 
ATOM     13  N   UNL     1       0.710   1.338  -1.014  0.00  0.00    +0.000 NA
ATOM     14  C   UNL     1       1.034   2.235  -0.320  0.00  0.00    +0.000 C 
ENDBRANCH   4  13
TORSDOF 2
