REMARK  Name = 15532801
REMARK  4 active torsions:
REMARK  status: ('A' for Active; 'I' for Inactive)
REMARK    1  A    between atoms: N_2  and  C_10
REMARK    2  A    between atoms: N_5  and  C_9
REMARK    3  A    between atoms: N_6  and  C_16
REMARK    4  A    between atoms: N_6  and  C_17
REMARK                            x       y       z     vdW  Elec       q    Type
REMARK                         _______ _______ _______ _____ _____    ______ ____
ROOT
ATOM      1  O   UNL     1       1.482  -2.881  -0.035  0.00  0.00    +0.000 OA
ATOM      2  N   UNL     1       0.178   0.885  -0.483  0.00  0.00    +0.000 N 
ATOM      3  N   UNL     1      -0.276  -1.456  -0.361  0.00  0.00    +0.000 NA
ATOM      4  N   UNL     1       2.382   1.758   0.032  0.00  0.00    +0.000 NA
ATOM      5  C   UNL     1       1.537   0.704  -0.126  0.00  0.00    +0.000 A 
ATOM      6  C   UNL     1       1.991  -0.604   0.059  0.00  0.00    +0.000 A 
ATOM      7  C   UNL     1      -0.663  -0.222  -0.522  0.00  0.00    +0.000 A 
ATOM      8  C   UNL     1      -0.245   2.263  -0.705  0.00  0.00    +0.000 C 
ATOM      9  C   UNL     1       1.050  -1.735  -0.119  0.00  0.00    +0.000 A 
ATOM     10  C   UNL     1       3.325  -0.836   0.403  0.00  0.00    +0.000 A 
ATOM     11  C   UNL     1       4.184   0.240   0.562  0.00  0.00    +0.000 A 
ATOM     12  C   UNL     1       3.668   1.506   0.367  0.00  0.00    +0.000 A 
ENDROOT
BRANCH   7  13
ATOM     13  N   UNL     1      -2.018  -0.104  -0.732  0.00  0.00    +0.000 NA
ATOM     14  N   UNL     1      -4.113   0.181   0.402  0.00  0.00    +0.000 N 
ATOM     15  C   UNL     1      -2.738   0.041   0.327  0.00  0.00    +0.000 C 
ATOM     16  C   UNL     1      -4.787   0.338   1.683  0.00  0.00    +0.000 C 
ATOM     17  C   UNL     1      -4.959  -0.078  -0.754  0.00  0.00    +0.000 C 
ENDBRANCH   7  13
TORSDOF 1
