REMARK  Name = 155654082
REMARK  1 active torsions:
REMARK  status: ('A' for Active; 'I' for Inactive)
REMARK    1  A    between atoms: C_4  and  C_8
REMARK                            x       y       z     vdW  Elec       q    Type
REMARK                         _______ _______ _______ _____ _____    ______ ____
ROOT
ATOM      1  N   UNL     1      -1.761   1.228   0.003  0.00  0.00    +0.000 NA
ATOM      2  C   UNL     1       0.297  -0.040  -0.002  0.00  0.00    +0.000 A 
ATOM      3  C   UNL     1      -0.426  -1.227  -0.004  0.00  0.00    +0.000 A 
ATOM      4  C   UNL     1      -0.412   1.151   0.002  0.00  0.00    +0.000 A 
ATOM      5  C   UNL     1      -1.816  -1.189  -0.002  0.00  0.00    +0.000 A 
ATOM      6  C   UNL     1      -2.430   0.053   0.001  0.00  0.00    +0.000 A 
ATOM      7  H   UNL     1       0.072  -2.193  -0.007  0.00  0.00    +0.000 HD
ATOM      8  H   UNL     1      -3.512   0.138   0.002  0.00  0.00    +0.000 HD
ENDROOT
BRANCH   2  11
ATOM      9  O   UNL     1       2.394  -1.112   0.008  0.00  0.00    +0.000 OA
ATOM     10  N   UNL     1       2.405   1.181  -0.003  0.00  0.00    +0.000 N 
ATOM     11  C   UNL     1       1.749  -0.047  -0.005  0.00  0.00    +0.000 C 
ATOM     12  H   UNL     1       1.956   2.088  -0.008  0.00  0.00    +0.000 HD
ATOM     13  H   UNL     1       3.420   1.205   0.002  0.00  0.00    +0.000 HD
ENDBRANCH   2  11
TORSDOF 1
