REMARK  Name = 155666806
REMARK  3 active torsions:
REMARK  status: ('A' for Active; 'I' for Inactive)
REMARK    1  A    between atoms: N_3  and  C_12
REMARK    2  A    between atoms: N_5  and  C_11
REMARK    3  A    between atoms: C_6  and  C_8
REMARK                            x       y       z     vdW  Elec       q    Type
REMARK                         _______ _______ _______ _____ _____    ______ ____
ROOT
ATOM      1  I   UNL     1      -3.231   2.120   0.276  0.00  0.00    +0.000 I 
ATOM      2  N   UNL     1      -1.143  -1.691  -0.147  0.00  0.00    +0.000 NA
ATOM      3  C   UNL     1       0.544   0.040  -0.089  0.00  0.00    +0.000 A 
ATOM      4  C   UNL     1      -0.445   1.009   0.043  0.00  0.00    +0.000 A 
ATOM      5  C   UNL     1      -1.782   0.630   0.081  0.00  0.00    +0.000 A 
ATOM      6  C   UNL     1       0.146  -1.284  -0.179  0.00  0.00    +0.000 A 
ATOM      7  C   UNL     1      -2.076  -0.721  -0.017  0.00  0.00    +0.000 A 
ENDROOT
BRANCH   3  10
ATOM      8  O   UNL     1       2.302   1.530  -0.524  0.00  0.00    +0.000 OA
ATOM      9  N   UNL     1       2.868  -0.557   0.314  0.00  0.00    +0.000 N 
ATOM     10  C   UNL     1       1.950   0.403  -0.129  0.00  0.00    +0.000 C 
ATOM     11  C   UNL     1       4.296  -0.340   0.357  0.00  0.00    +0.000 C 
ATOM     12  H   UNL     1       2.535  -1.433   0.704  0.00  0.00    +0.000 HD
ENDBRANCH   3  10
BRANCH   7  13
ATOM     13  N   UNL     1      -3.428  -1.140   0.015  0.00  0.00    +0.000 N 
ATOM     14  H   UNL     1      -4.097  -0.562   0.509  0.00  0.00    +0.000 HD
ATOM     15  H   UNL     1      -3.605  -2.134  -0.051  0.00  0.00    +0.000 HD
ENDBRANCH   7  13
TORSDOF 2
