REMARK  Name = 155733030
REMARK  10 active torsions:
REMARK  status: ('A' for Active; 'I' for Inactive)
REMARK    1  A    between atoms: N_2  and  C_5
REMARK    2  A    between atoms: N_2  and  C_7
REMARK    3  A    between atoms: N_2  and  C_8
REMARK    4  A    between atoms: N_4  and  C_18
REMARK    5  A    between atoms: C_5  and  C_6
REMARK    6  A    between atoms: C_6  and  C_10
REMARK    7  A    between atoms: C_6  and  C_11
REMARK    8  A    between atoms: C_7  and  C_9
REMARK    9  A    between atoms: C_9  and  C_13
REMARK   10  A    between atoms: C_12  and  C_15
REMARK                            x       y       z     vdW  Elec       q    Type
REMARK                         _______ _______ _______ _____ _____    ______ ____
ROOT
ATOM      1  N   UNL     1      -0.344   1.736  -1.370  0.00  0.00    +0.000 NA
ATOM      2  C   UNL     1      -0.330   0.706  -0.495  0.00  0.00    +0.000 A 
ATOM      3  C   UNL     1      -1.455  -0.013  -0.126  0.00  0.00    +0.000 A 
ATOM      4  C   UNL     1      -2.673   0.349  -0.691  0.00  0.00    +0.000 A 
ATOM      5  C   UNL     1      -1.545   2.058  -1.899  0.00  0.00    +0.000 A 
ATOM      6  C   UNL     1      -2.728   1.403  -1.596  0.00  0.00    +0.000 A 
ENDROOT
BRANCH   3   9
ATOM      7  O   UNL     1      -1.027  -0.926   1.991  0.00  0.00    +0.000 OA
ATOM      8  N   UNL     1      -1.834  -2.366   0.362  0.00  0.00    +0.000 N 
ATOM      9  C   UNL     1      -1.410  -1.116   0.824  0.00  0.00    +0.000 C 
ATOM     10  C   UNL     1      -1.870  -3.552   1.189  0.00  0.00    +0.000 C 
ATOM     11  H   UNL     1      -2.108  -2.464  -0.611  0.00  0.00    +0.000 HD
ENDBRANCH   3   9
BRANCH   2  12
ATOM     12  N   UNL     1       0.901   0.349   0.073  0.00  0.00    +0.000 N 
BRANCH  12  13
ATOM     13  C   UNL     1       1.445  -0.979  -0.082  0.00  0.00    +0.000 C 
BRANCH  13  14
ATOM     14  C   UNL     1       2.788  -0.966  -0.826  0.00  0.00    +0.000 C 
ATOM     15  C   UNL     1       3.427  -2.355  -0.884  0.00  0.00    +0.000 C 
ATOM     16  C   UNL     1       2.660  -0.374  -2.231  0.00  0.00    +0.000 C 
ENDBRANCH  13  14
ENDBRANCH  12  13
BRANCH  12  17
ATOM     17  C   UNL     1       1.651   1.325   0.865  0.00  0.00    +0.000 C 
BRANCH  17  18
ATOM     18  C   UNL     1       0.811   1.834   2.032  0.00  0.00    +0.000 C 
ATOM     19  C   UNL     1       1.532   2.888   2.863  0.00  0.00    +0.000 C 
ENDBRANCH  17  18
ENDBRANCH  12  17
ENDBRANCH   2  12
TORSDOF 6
