REMARK  Name = 155733072
REMARK  9 active torsions:
REMARK  status: ('A' for Active; 'I' for Inactive)
REMARK    1  A    between atoms: N_2  and  C_5
REMARK    2  A    between atoms: N_2  and  C_6
REMARK    3  A    between atoms: N_2  and  C_9
REMARK    4  A    between atoms: N_4  and  C_17
REMARK    5  A    between atoms: C_5  and  C_7
REMARK    6  A    between atoms: C_6  and  C_8
REMARK    7  A    between atoms: C_7  and  C_11
REMARK    8  A    between atoms: C_8  and  C_12
REMARK    9  A    between atoms: C_10  and  C_14
REMARK                            x       y       z     vdW  Elec       q    Type
REMARK                         _______ _______ _______ _____ _____    ______ ____
ROOT
ATOM      1  N   UNL     1       0.077   1.940   1.247  0.00  0.00    +0.000 NA
ATOM      2  C   UNL     1       0.103   0.837   0.466  0.00  0.00    +0.000 A 
ATOM      3  C   UNL     1       1.227   0.392  -0.211  0.00  0.00    +0.000 A 
ATOM      4  C   UNL     1       2.401   1.125  -0.077  0.00  0.00    +0.000 A 
ATOM      5  C   UNL     1       1.237   2.627   1.354  0.00  0.00    +0.000 A 
ATOM      6  C   UNL     1       2.414   2.266   0.719  0.00  0.00    +0.000 A 
ENDROOT
BRANCH   3   9
ATOM      7  O   UNL     1       0.478  -0.867  -2.042  0.00  0.00    +0.000 OA
ATOM      8  N   UNL     1       2.102  -1.827  -0.693  0.00  0.00    +0.000 N 
ATOM      9  C   UNL     1       1.222  -0.799  -1.049  0.00  0.00    +0.000 C 
ATOM     10  C   UNL     1       2.231  -3.059  -1.437  0.00  0.00    +0.000 C 
ATOM     11  H   UNL     1       2.665  -1.724   0.146  0.00  0.00    +0.000 HD
ENDBRANCH   3   9
BRANCH   2  12
ATOM     12  N   UNL     1      -1.085   0.104   0.333  0.00  0.00    +0.000 N 
BRANCH  12  13
ATOM     13  C   UNL     1      -2.287   0.750  -0.197  0.00  0.00    +0.000 C 
BRANCH  13  14
ATOM     14  C   UNL     1      -2.319   0.666  -1.720  0.00  0.00    +0.000 C 
ATOM     15  C   UNL     1      -3.530   1.364  -2.325  0.00  0.00    +0.000 C 
ENDBRANCH  13  14
ENDBRANCH  12  13
BRANCH  12  16
ATOM     16  C   UNL     1      -1.164  -1.280   0.732  0.00  0.00    +0.000 C 
BRANCH  16  17
ATOM     17  C   UNL     1      -1.527  -1.397   2.208  0.00  0.00    +0.000 C 
ATOM     18  C   UNL     1      -1.579  -2.840   2.691  0.00  0.00    +0.000 C 
ENDBRANCH  16  17
ENDBRANCH  12  16
ENDBRANCH   2  12
TORSDOF 6
