REMARK  Name = 156111910
REMARK  2 active torsions:
REMARK  status: ('A' for Active; 'I' for Inactive)
REMARK    1  A    between atoms: C_10  and  C_11
REMARK    2  A    between atoms: C_16  and  C_17
REMARK                            x       y       z     vdW  Elec       q    Type
REMARK                         _______ _______ _______ _____ _____    ______ ____
ROOT
ATOM      1  O   UNL     1       3.717  -1.286  -0.925  0.00  0.00    +0.000 OA
ATOM      2  N   UNL     1       1.061   1.573   0.962  0.00  0.00    +0.000 NA
ATOM      3  N   UNL     1       3.109   0.487   0.497  0.00  0.00    +0.000 N 
ATOM      4  C   UNL     1      -0.950   0.848  -0.169  0.00  0.00    +0.000 A 
ATOM      5  C   UNL     1      -0.225  -0.122  -0.851  0.00  0.00    +0.000 A 
ATOM      6  C   UNL     1      -0.266   1.664   0.719  0.00  0.00    +0.000 A 
ATOM      7  C   UNL     1       1.143  -0.246  -0.628  0.00  0.00    +0.000 A 
ATOM      8  C   UNL     1       1.732   0.619   0.280  0.00  0.00    +0.000 A 
ATOM      9  C   UNL     1       3.988  -0.425  -0.097  0.00  0.00    +0.000 C 
ATOM     10  H   UNL     1       3.484   1.148   1.173  0.00  0.00    +0.000 HD
ENDROOT
BRANCH   4  17
ATOM     11  O   UNL     1      -2.795   2.093  -0.790  0.00  0.00    +0.000 OA
ATOM     12  N   UNL     1      -3.208  -0.084  -0.093  0.00  0.00    +0.000 N 
ATOM     13  C   UNL     1      -5.146  -1.423   0.009  0.00  0.00    +0.000 C 
ATOM     14  C   UNL     1      -4.071  -2.044   0.895  0.00  0.00    +0.000 C 
ATOM     15  C   UNL     1      -4.657   0.003  -0.180  0.00  0.00    +0.000 C 
ATOM     16  C   UNL     1      -2.789  -1.396   0.394  0.00  0.00    +0.000 C 
ATOM     17  C   UNL     1      -2.397   1.004  -0.381  0.00  0.00    +0.000 C 
ENDBRANCH   4  17
BRANCH   9  18
ATOM     18  C   UNL     1       5.382  -0.243   0.402  0.00  0.00    +0.000 C 
ATOM     19  C   UNL     1       6.372  -1.022  -0.046  0.00  0.00    +0.000 C 
ENDBRANCH   9  18
TORSDOF 2
