REMARK  Name = 156213722
REMARK  3 active torsions:
REMARK  status: ('A' for Active; 'I' for Inactive)
REMARK    1  A    between atoms: O_3  and  N_6
REMARK    2  A    between atoms: N_5  and  C_10
REMARK    3  A    between atoms: C_7  and  C_12
REMARK                            x       y       z     vdW  Elec       q    Type
REMARK                         _______ _______ _______ _____ _____    ______ ____
ROOT
ATOM      1  F   UNL     1      -2.673   1.748   0.245  0.00  0.00    +0.000 F 
ATOM      2  N   UNL     1      -1.277  -1.582  -0.162  0.00  0.00    +0.000 NA
ATOM      3  C   UNL     1       0.515   0.038  -0.075  0.00  0.00    +0.000 A 
ATOM      4  C   UNL     1      -0.411   1.065   0.072  0.00  0.00    +0.000 A 
ATOM      5  C   UNL     1      -1.770   0.770   0.103  0.00  0.00    +0.000 A 
ATOM      6  C   UNL     1      -2.148  -0.558  -0.017  0.00  0.00    +0.000 A 
ATOM      7  C   UNL     1       0.035  -1.256  -0.187  0.00  0.00    +0.000 A 
ENDROOT
BRANCH   3  10
ATOM      8  O   UNL     1       2.367   1.423  -0.488  0.00  0.00    +0.000 OA
ATOM      9  N   UNL     1       2.791  -0.698   0.311  0.00  0.00    +0.000 N 
ATOM     10  C   UNL     1       1.940   0.315  -0.111  0.00  0.00    +0.000 C 
ATOM     11  H   UNL     1       2.517  -1.584   0.720  0.00  0.00    +0.000 HD
BRANCH   9  12
ATOM     12  O   UNL     1       4.165  -0.418   0.294  0.00  0.00    +0.000 OA
ATOM     13  H   UNL     1       4.447  -0.878   1.103  0.00  0.00    +0.000 HD
ENDBRANCH   9  12
ENDBRANCH   3  10
BRANCH   6  14
ATOM     14  N   UNL     1      -3.534  -0.846   0.016  0.00  0.00    +0.000 N 
ATOM     15  H   UNL     1      -4.144  -0.216   0.522  0.00  0.00    +0.000 HD
ATOM     16  H   UNL     1      -3.805  -1.819  -0.064  0.00  0.00    +0.000 HD
ENDBRANCH   6  14
TORSDOF 3
