REMARK  Name = 156301266
REMARK  14 active torsions:
REMARK  status: ('A' for Active; 'I' for Inactive)
REMARK    1  A    between atoms: N_2  and  C_12
REMARK    2  A    between atoms: N_2  and  C_18
REMARK    3  A    between atoms: N_3  and  C_14
REMARK    4  A    between atoms: C_6  and  C_7
REMARK    5  A    between atoms: C_6  and  C_9
REMARK    6  A    between atoms: C_7  and  C_10
REMARK    7  A    between atoms: C_8  and  C_11
REMARK    8  A    between atoms: C_8  and  C_12
REMARK    9  A    between atoms: C_9  and  C_15
REMARK   10  A    between atoms: C_10  and  C_14
REMARK   11  A    between atoms: C_11  and  C_13
REMARK   12  A    between atoms: C_13  and  C_16
REMARK   13  A    between atoms: C_17  and  C_20
REMARK   14  A    between atoms: C_19  and  C_21
REMARK                            x       y       z     vdW  Elec       q    Type
REMARK                         _______ _______ _______ _____ _____    ______ ____
ROOT
ATOM      1  C   UNL     1      -0.198   2.575   0.109  0.00  0.00    +0.000 C 
ENDROOT
BRANCH   1   2
ATOM      2  C   UNL     1      -0.958   1.252   0.247  0.00  0.00    +0.000 C 
BRANCH   2   3
ATOM      3  C   UNL     1      -2.059   1.060  -0.810  0.00  0.00    +0.000 C 
BRANCH   3   5
ATOM      4  C   UNL     1      -3.948  -0.461  -0.073  0.00  0.00    +0.000 C 
ATOM      5  C   UNL     1      -2.777  -0.287  -0.751  0.00  0.00    +0.000 C 
BRANCH   5   6
ATOM      6  C   UNL     1      -2.144  -1.396  -1.483  0.00  0.00    +0.000 C 
ATOM      7  C   UNL     1      -1.001  -1.371  -2.189  0.00  0.00    +0.000 C 
ATOM      8  C   UNL     1      -0.155  -0.148  -2.345  0.00  0.00    +0.000 C 
ENDBRANCH   5   6
BRANCH   4   9
ATOM      9  C   UNL     1      -4.704  -1.786  -0.004  0.00  0.00    +0.000 C 
BRANCH   9  10
ATOM     10  C   UNL     1      -4.335  -2.595   1.243  0.00  0.00    +0.000 C 
ATOM     11  C   UNL     1      -5.078  -3.921   1.283  0.00  0.00    +0.000 C 
ENDBRANCH   9  10
ENDBRANCH   4   9
BRANCH   4  12
ATOM     12  C   UNL     1      -4.649   0.646   0.700  0.00  0.00    +0.000 C 
BRANCH  12  13
ATOM     13  N   UNL     1      -5.574   1.407  -0.136  0.00  0.00    +0.000 NA
ATOM     14  C   UNL     1      -6.218   2.462   0.633  0.00  0.00    +0.000 C 
ATOM     15  H   UNL     1      -6.293   0.783  -0.502  0.00  0.00    +0.000 HD
ENDBRANCH  12  13
ENDBRANCH   4  12
ENDBRANCH   3   5
ENDBRANCH   2   3
ENDBRANCH   1   2
BRANCH   1  16
ATOM     16  C   UNL     1       0.922   2.714   1.136  0.00  0.00    +0.000 C 
BRANCH  16  18
ATOM     17  O   UNL     1       3.295   2.702  -0.481  0.00  0.00    +0.000 OA
ATOM     18  N   UNL     1       1.889   1.655   1.038  0.00  0.00    +0.000 N 
ATOM     19  C   UNL     1       3.014   1.737   0.225  0.00  0.00    +0.000 C 
ATOM     20  H   UNL     1       1.691   0.806   1.556  0.00  0.00    +0.000 HD
BRANCH  19  23
ATOM     21  N   UNL     1       4.753  -1.405   1.361  0.00  0.00    +0.000 NA
ATOM     22  N   UNL     1       6.348  -2.800   0.272  0.00  0.00    +0.000 N 
ATOM     23  C   UNL     1       3.902   0.547   0.215  0.00  0.00    +0.000 A 
ATOM     24  C   UNL     1       4.691   0.251  -0.891  0.00  0.00    +0.000 A 
ATOM     25  C   UNL     1       3.968  -0.305   1.306  0.00  0.00    +0.000 A 
ATOM     26  C   UNL     1       5.511  -0.872  -0.872  0.00  0.00    +0.000 A 
ATOM     27  C   UNL     1       5.506  -1.660   0.268  0.00  0.00    +0.000 A 
ATOM     28  H   UNL     1       6.336  -3.376   1.105  0.00  0.00    +0.000 HD
ATOM     29  H   UNL     1       6.567  -3.240  -0.613  0.00  0.00    +0.000 HD
ENDBRANCH  19  23
ENDBRANCH  16  18
ENDBRANCH   1  16
TORSDOF 11
