REMARK  Name = 156784573
REMARK  2 active torsions:
REMARK  status: ('A' for Active; 'I' for Inactive)
REMARK    1  A    between atoms: N_4  and  C_12
REMARK    2  A    between atoms: C_13  and  C_15
REMARK                            x       y       z     vdW  Elec       q    Type
REMARK                         _______ _______ _______ _____ _____    ______ ____
ROOT
ATOM      1  N   UNL     1      -1.517  -1.884   0.055  0.00  0.00    +0.000 NA
ATOM      2  C   UNL     1      -1.074  -0.607   0.025  0.00  0.00    +0.000 A 
ATOM      3  C   UNL     1      -1.904   0.502  -0.004  0.00  0.00    +0.000 A 
ATOM      4  C   UNL     1      -3.278   0.286  -0.002  0.00  0.00    +0.000 A 
ATOM      5  C   UNL     1      -2.858  -2.054   0.056  0.00  0.00    +0.000 A 
ATOM      6  C   UNL     1      -3.772  -1.013   0.028  0.00  0.00    +0.000 A 
ENDROOT
BRANCH   2   9
ATOM      7  F   UNL     1       4.272   0.667  -0.215  0.00  0.00    +0.000 F 
ATOM      8  F   UNL     1       3.600  -1.316   0.375  0.00  0.00    +0.000 F 
ATOM      9  N   UNL     1       0.311  -0.399   0.020  0.00  0.00    +0.000 N 
ATOM     10  C   UNL     1       3.166  -0.089  -0.010  0.00  0.00    +0.000 C 
ATOM     11  C   UNL     1       2.384  -0.211  -1.302  0.00  0.00    +0.000 C 
ATOM     12  C   UNL     1       2.328   0.520   1.097  0.00  0.00    +0.000 C 
ATOM     13  C   UNL     1       1.077  -0.973  -1.096  0.00  0.00    +0.000 C 
ATOM     14  C   UNL     1       1.018  -0.239   1.296  0.00  0.00    +0.000 C 
ENDBRANCH   2   9
BRANCH   3  17
ATOM     15  O   UNL     1      -1.190   2.507   1.004  0.00  0.00    +0.000 OA
ATOM     16  N   UNL     1      -1.167   2.437  -1.288  0.00  0.00    +0.000 N 
ATOM     17  C   UNL     1      -1.396   1.866  -0.040  0.00  0.00    +0.000 C 
ATOM     18  H   UNL     1      -1.336   1.931  -2.151  0.00  0.00    +0.000 HD
ATOM     19  H   UNL     1      -0.819   3.386  -1.371  0.00  0.00    +0.000 HD
ENDBRANCH   3  17
TORSDOF 2
