REMARK  Name = 156709507
REMARK  2 active torsions:
REMARK  status: ('A' for Active; 'I' for Inactive)
REMARK    1  A    between atoms: P_1  and  N_4
REMARK    2  A    between atoms: C_6  and  C_10
REMARK                            x       y       z     vdW  Elec       q    Type
REMARK                         _______ _______ _______ _____ _____    ______ ____
ROOT
ATOM      1  N   UNL     1      -0.419   1.337  -0.006  0.00  0.00    +0.000 NA
ATOM      2  N   UNL     1      -2.673   0.567  -0.035  0.00  0.00    +0.000 N 
ATOM      3  C   UNL     1      -1.283   0.297  -0.023  0.00  0.00    +0.000 A 
ATOM      4  C   UNL     1       1.386  -0.270   0.000  0.00  0.00    +0.000 A 
ATOM      5  C   UNL     1      -0.894  -1.033  -0.030  0.00  0.00    +0.000 A 
ATOM      6  C   UNL     1       0.468  -1.313  -0.019  0.00  0.00    +0.000 A 
ATOM      7  C   UNL     1       0.896   1.026   0.005  0.00  0.00    +0.000 A 
ATOM      8  H   UNL     1      -2.834   1.572  -0.018  0.00  0.00    +0.000 HD
ENDROOT
BRANCH   2   9
ATOM      9  P   UNL     1      -3.962  -0.445   0.070  0.00  0.00    +0.000 P 
ATOM     10  H   UNL     1      -4.966   0.462  -0.344  0.00  0.00    +0.000 HD
ATOM     11  H   UNL     1      -4.228  -0.288   1.451  0.00  0.00    +0.000 HD
ENDBRANCH   2   9
BRANCH   4  13
ATOM     12  O   UNL     1       3.666   0.364   0.027  0.00  0.00    +0.000 OA
ATOM     13  C   UNL     1       2.815  -0.531   0.011  0.00  0.00    +0.000 C 
ENDBRANCH   4  13
TORSDOF 2
