REMARK  Name = 156720967
REMARK  3 active torsions:
REMARK  status: ('A' for Active; 'I' for Inactive)
REMARK    1  A    between atoms: N_3  and  C_6
REMARK    2  A    between atoms: N_3  and  C_12
REMARK    3  A    between atoms: C_7  and  C_11
REMARK                            x       y       z     vdW  Elec       q    Type
REMARK                         _______ _______ _______ _____ _____    ______ ____
ROOT
ATOM      1  F   UNL     1      -1.547   2.290   0.003  0.00  0.00    +0.000 F 
ATOM      2  N   UNL     1      -0.884  -1.283  -0.001  0.00  0.00    +0.000 NA
ATOM      3  C   UNL     1      -1.520  -0.090  -0.000  0.00  0.00    +0.000 A 
ATOM      4  C   UNL     1       1.209  -0.074   0.003  0.00  0.00    +0.000 A 
ATOM      5  C   UNL     1      -0.870   1.135   0.002  0.00  0.00    +0.000 A 
ATOM      6  C   UNL     1       0.520   1.134   0.003  0.00  0.00    +0.000 A 
ATOM      7  C   UNL     1       0.467  -1.244   0.001  0.00  0.00    +0.000 A 
ENDROOT
BRANCH   4  10
ATOM      8  O   UNL     1       3.336   0.938  -0.012  0.00  0.00    +0.000 OA
ATOM      9  N   UNL     1       3.282  -1.354   0.003  0.00  0.00    +0.000 N 
ATOM     10  C   UNL     1       2.661  -0.107   0.004  0.00  0.00    +0.000 C 
ATOM     11  H   UNL     1       2.807  -2.248   0.011  0.00  0.00    +0.000 HD
ATOM     12  H   UNL     1       4.296  -1.407  -0.003  0.00  0.00    +0.000 HD
ENDBRANCH   4  10
BRANCH   3  13
ATOM     13  N   UNL     1      -2.936  -0.076  -0.001  0.00  0.00    +0.000 N 
ATOM     14  C   UNL     1      -3.718  -1.269  -0.004  0.00  0.00    +0.000 C 
ATOM     15  H   UNL     1      -3.389   0.806  -0.216  0.00  0.00    +0.000 HD
ENDBRANCH   3  13
TORSDOF 2
