REMARK  Name = 156804607
REMARK  4 active torsions:
REMARK  status: ('A' for Active; 'I' for Inactive)
REMARK    1  A    between atoms: S_1  and  C_7
REMARK    2  A    between atoms: S_1  and  C_8
REMARK    3  A    between atoms: N_4  and  C_9
REMARK    4  A    between atoms: C_10  and  C_13
REMARK                            x       y       z     vdW  Elec       q    Type
REMARK                         _______ _______ _______ _____ _____    ______ ____
ROOT
ATOM      1  N   UNL     1       0.711   1.861  -0.472  0.00  0.00    +0.000 NA
ATOM      2  C   UNL     1       0.354   0.557  -0.439  0.00  0.00    +0.000 A 
ATOM      3  C   UNL     1       1.186  -0.464  -0.010  0.00  0.00    +0.000 A 
ATOM      4  C   UNL     1       2.467  -0.126   0.413  0.00  0.00    +0.000 A 
ATOM      5  C   UNL     1       2.871   1.205   0.394  0.00  0.00    +0.000 A 
ATOM      6  C   UNL     1       1.963   2.151  -0.053  0.00  0.00    +0.000 A 
ENDROOT
BRANCH   2   9
ATOM      7  S   UNL     1      -2.184   0.232   0.106  0.00  0.00    +0.000 S 
ATOM      8  O   UNL     1      -2.252  -0.550   1.328  0.00  0.00    +0.000 OA
ATOM      9  N   UNL     1      -1.001   0.245  -0.893  0.00  0.00    +0.000 NA
ATOM     10  C   UNL     1      -3.628  -0.187  -0.844  0.00  0.00    +0.000 C 
ATOM     11  C   UNL     1      -2.519   1.920   0.557  0.00  0.00    +0.000 C 
ENDBRANCH   2   9
BRANCH   3  14
ATOM     12  O   UNL     1       0.247  -2.361   1.022  0.00  0.00    +0.000 OA
ATOM     13  N   UNL     1       1.009  -2.623  -1.125  0.00  0.00    +0.000 N 
ATOM     14  C   UNL     1       0.774  -1.861   0.015  0.00  0.00    +0.000 C 
ATOM     15  H   UNL     1       1.446  -2.233  -1.954  0.00  0.00    +0.000 HD
ATOM     16  H   UNL     1       0.748  -3.603  -1.160  0.00  0.00    +0.000 HD
ENDBRANCH   3  14
TORSDOF 2
