REMARK  Name = 156831805
REMARK  3 active torsions:
REMARK  status: ('A' for Active; 'I' for Inactive)
REMARK    1  A    between atoms: N_2  and  C_12
REMARK    2  A    between atoms: C_5  and  C_9
REMARK    3  A    between atoms: C_6  and  C_11
REMARK                            x       y       z     vdW  Elec       q    Type
REMARK                         _______ _______ _______ _____ _____    ______ ____
ROOT
ATOM      1  N   UNL     1      -3.149   0.365   0.018  0.00  0.00    +0.000 N 
ATOM      2  N   UNL     1      -1.292  -1.126  -0.012  0.00  0.00    +0.000 NA
ATOM      3  C   UNL     1       0.444   1.065  -0.009  0.00  0.00    +0.000 A 
ATOM      4  C   UNL     1       0.953  -0.229  -0.025  0.00  0.00    +0.000 A 
ATOM      5  C   UNL     1      -0.932   1.264   0.006  0.00  0.00    +0.000 A 
ATOM      6  C   UNL     1      -1.749   0.146   0.004  0.00  0.00    +0.000 A 
ATOM      7  C   UNL     1       1.350   2.252  -0.007  0.00  0.00    +0.000 C 
ATOM      8  C   UNL     1       0.051  -1.281  -0.026  0.00  0.00    +0.000 A 
ATOM      9  C   UNL     1      -4.096  -0.702   0.017  0.00  0.00    +0.000 C 
ATOM     10  H   UNL     1      -3.473   1.301  -0.201  0.00  0.00    +0.000 HD
ENDROOT
BRANCH   4  13
ATOM     11  O   UNL     1       3.007  -0.626  -1.109  0.00  0.00    +0.000 OA
ATOM     12  N   UNL     1       3.030  -0.629   1.185  0.00  0.00    +0.000 N 
ATOM     13  C   UNL     1       2.382  -0.498  -0.041  0.00  0.00    +0.000 C 
ATOM     14  H   UNL     1       2.538  -0.535   2.067  0.00  0.00    +0.000 HD
ATOM     15  H   UNL     1       4.025  -0.823   1.231  0.00  0.00    +0.000 HD
ENDBRANCH   4  13
TORSDOF 1
