REMARK  Name = 156894050
REMARK  2 active torsions:
REMARK  status: ('A' for Active; 'I' for Inactive)
REMARK    1  A    between atoms: N_3  and  C_6
REMARK    2  A    between atoms: C_4  and  C_9
REMARK                            x       y       z     vdW  Elec       q    Type
REMARK                         _______ _______ _______ _____ _____    ______ ____
ROOT
ATOM      1  N   UNL     1      -0.818   1.629  -0.000  0.00  0.00    +0.000 NA
ATOM      2  C   UNL     1       0.031  -0.635  -0.001  0.00  0.00    +0.000 A 
ATOM      3  C   UNL     1      -1.268  -1.130  -0.000  0.00  0.00    +0.000 A 
ATOM      4  C   UNL     1       0.201   0.741  -0.001  0.00  0.00    +0.000 A 
ATOM      5  C   UNL     1      -2.343  -0.247   0.001  0.00  0.00    +0.000 A 
ATOM      6  C   UNL     1      -2.066   1.111   0.001  0.00  0.00    +0.000 A 
ENDROOT
BRANCH   2   8
ATOM      7  O   UNL     1       1.015  -2.787   0.001  0.00  0.00    +0.000 OA
ATOM      8  C   UNL     1       1.154  -1.561  -0.000  0.00  0.00    +0.000 C 
ENDBRANCH   2   8
BRANCH   4   9
ATOM      9  N   UNL     1       1.499   1.232   0.000  0.00  0.00    +0.000 NA
ATOM     10  C   UNL     1       2.594   1.646   0.001  0.00  0.00    +0.000 C 
ENDBRANCH   4   9
TORSDOF 2
