REMARK  Name = 156831803
REMARK  5 active torsions:
REMARK  status: ('A' for Active; 'I' for Inactive)
REMARK    1  A    between atoms: N_3  and  C_14
REMARK    2  A    between atoms: C_5  and  C_6
REMARK    3  A    between atoms: C_5  and  C_8
REMARK    4  A    between atoms: C_5  and  C_9
REMARK    5  A    between atoms: C_7  and  C_13
REMARK                            x       y       z     vdW  Elec       q    Type
REMARK                         _______ _______ _______ _____ _____    ______ ____
ROOT
ATOM      1  N   UNL     1      -1.726  -1.275  -0.013  0.00  0.00    +0.000 NA
ATOM      2  N   UNL     1      -3.276   0.534   0.020  0.00  0.00    +0.000 N 
ATOM      3  C   UNL     1       0.385   0.557  -0.009  0.00  0.00    +0.000 A 
ATOM      4  C   UNL     1       0.646  -0.808  -0.027  0.00  0.00    +0.000 A 
ATOM      5  C   UNL     1      -0.930   1.008   0.007  0.00  0.00    +0.000 A 
ATOM      6  C   UNL     1      -1.940   0.060   0.004  0.00  0.00    +0.000 A 
ATOM      7  C   UNL     1      -0.435  -1.675  -0.028  0.00  0.00    +0.000 A 
ATOM      8  C   UNL     1      -4.403  -0.339   0.018  0.00  0.00    +0.000 C 
ATOM      9  H   UNL     1      -3.417   1.508   0.265  0.00  0.00    +0.000 HD
ENDROOT
BRANCH   4  12
ATOM     10  O   UNL     1       2.590  -1.577  -1.112  0.00  0.00    +0.000 OA
ATOM     11  N   UNL     1       2.614  -1.586   1.181  0.00  0.00    +0.000 N 
ATOM     12  C   UNL     1       2.001  -1.337  -0.043  0.00  0.00    +0.000 C 
ATOM     13  H   UNL     1       2.148  -1.402   2.064  0.00  0.00    +0.000 HD
ATOM     14  H   UNL     1       3.556  -1.960   1.227  0.00  0.00    +0.000 HD
ENDBRANCH   4  12
BRANCH   3  15
ATOM     15  C   UNL     1       1.495   1.556  -0.007  0.00  0.00    +0.000 C 
ATOM     16  C   UNL     1       1.499   2.426   1.264  0.00  0.00    +0.000 C 
ATOM     17  C   UNL     1       1.479   2.455  -1.257  0.00  0.00    +0.000 C 
ENDBRANCH   3  15
TORSDOF 2
