REMARK  Name = 157589192
REMARK  2 active torsions:
REMARK  status: ('A' for Active; 'I' for Inactive)
REMARK    1  A    between atoms: N_5  and  C_11
REMARK    2  A    between atoms: C_7  and  C_11
REMARK                            x       y       z     vdW  Elec       q    Type
REMARK                         _______ _______ _______ _____ _____    ______ ____
ROOT
ATOM      1  O   UNL     1       0.163  -2.807  -0.083  0.00  0.00    +0.000 OA
ATOM      2  N   UNL     1      -1.434  -1.155   0.164  0.00  0.00    +0.000 N 
ATOM      3  N   UNL     1      -0.862   1.138   0.253  0.00  0.00    +0.000 NA
ATOM      4  N   UNL     1       1.371   1.793   0.092  0.00  0.00    +0.000 NA
ATOM      5  C   UNL     1       0.886  -0.562  -0.011  0.00  0.00    +0.000 A 
ATOM      6  C   UNL     1      -1.741   0.187   0.275  0.00  0.00    +0.000 A 
ATOM      7  C   UNL     1       0.488   0.768   0.108  0.00  0.00    +0.000 A 
ATOM      8  C   UNL     1      -0.139  -1.623   0.017  0.00  0.00    +0.000 A 
ATOM      9  C   UNL     1       2.240  -0.858  -0.152  0.00  0.00    +0.000 A 
ATOM     10  C   UNL     1       3.159   0.183  -0.171  0.00  0.00    +0.000 A 
ATOM     11  C   UNL     1       2.679   1.477  -0.046  0.00  0.00    +0.000 A 
ATOM     12  H   UNL     1      -2.182  -1.842   0.186  0.00  0.00    +0.000 HD
ENDROOT
BRANCH   6  13
ATOM     13  C   UNL     1      -3.203   0.488   0.426  0.00  0.00    +0.000 C 
BRANCH  13  14
ATOM     14  N   UNL     1      -3.607   0.971  -0.872  0.00  0.00    +0.000 NA
ATOM     15  H   UNL     1      -3.615   0.187  -1.535  0.00  0.00    +0.000 HD
ENDBRANCH  13  14
ENDBRANCH   6  13
TORSDOF 2
