REMARK  Name = 157550612
REMARK  2 active torsions:
REMARK  status: ('A' for Active; 'I' for Inactive)
REMARK    1  A    between atoms: C_5  and  C_9
REMARK    2  A    between atoms: C_10  and  C_11
REMARK                            x       y       z     vdW  Elec       q    Type
REMARK                         _______ _______ _______ _____ _____    ______ ____
ROOT
ATOM      1  O   UNL     1      -0.322  -1.864  -0.300  0.00  0.00    +0.000 OA
ATOM      2  N   UNL     1       2.281  -1.191  -0.174  0.00  0.00    +0.000 NA
ATOM      3  N   UNL     1       0.476   0.297   0.016  0.00  0.00    +0.000 N 
ATOM      4  C   UNL     1       3.912   0.492   0.111  0.00  0.00    +0.000 C 
ATOM      5  C   UNL     1       3.745  -0.976  -0.114  0.00  0.00    +0.000 C 
ATOM      6  C   UNL     1       1.804   0.007  -0.002  0.00  0.00    +0.000 C 
ATOM      7  C   UNL     1       2.736   1.114   0.183  0.00  0.00    +0.000 C 
ATOM      8  C   UNL     1       5.258   1.109   0.229  0.00  0.00    +0.000 C 
ATOM      9  C   UNL     1      -0.519  -0.663  -0.135  0.00  0.00    +0.000 C 
ATOM     10  H   UNL     1       0.216   1.264   0.189  0.00  0.00    +0.000 HD
ENDROOT
BRANCH   9  12
ATOM     11  N   UNL     1      -4.237  -0.597   0.459  0.00  0.00    +0.000 NA
ATOM     12  C   UNL     1      -1.915  -0.162  -0.053  0.00  0.00    +0.000 A 
ATOM     13  C   UNL     1      -2.227   1.149  -0.394  0.00  0.00    +0.000 A 
ATOM     14  C   UNL     1      -2.946  -0.988   0.363  0.00  0.00    +0.000 A 
ATOM     15  C   UNL     1      -3.544   1.589  -0.308  0.00  0.00    +0.000 A 
ATOM     16  C   UNL     1      -4.503   0.685   0.120  0.00  0.00    +0.000 A 
ENDBRANCH   9  12
TORSDOF 1
