REMARK  Name = 159305576
REMARK  5 active torsions:
REMARK  status: ('A' for Active; 'I' for Inactive)
REMARK    1  A    between atoms: N_2  and  C_5
REMARK    2  A    between atoms: C_5  and  C_6
REMARK    3  A    between atoms: C_5  and  C_7
REMARK    4  A    between atoms: C_5  and  C_8
REMARK    5  A    between atoms: C_10  and  C_12
REMARK                            x       y       z     vdW  Elec       q    Type
REMARK                         _______ _______ _______ _____ _____    ______ ____
ROOT
ATOM      1  O   UNL     1       2.271   2.556   0.000  0.00  0.00    +0.000 OA
ATOM      2  N   UNL     1      -0.906   0.094   0.000  0.00  0.00    +0.000 N 
ATOM      3  N   UNL     1      -0.002   2.311  -0.000  0.00  0.00    +0.000 NA
ATOM      4  N   UNL     1       0.547  -1.848  -0.000  0.00  0.00    +0.000 NA
ATOM      5  C   UNL     1       0.382  -0.498  -0.000  0.00  0.00    +0.000 A 
ATOM      6  C   UNL     1      -1.003   1.479  -0.000  0.00  0.00    +0.000 A 
ATOM      7  C   UNL     1       1.491   0.354   0.000  0.00  0.00    +0.000 A 
ATOM      8  C   UNL     1      -2.374   2.124  -0.000  0.00  0.00    +0.000 C 
ATOM      9  C   UNL     1       1.287   1.824   0.000  0.00  0.00    +0.000 A 
ATOM     10  C   UNL     1       2.780  -0.183   0.000  0.00  0.00    +0.000 A 
ATOM     11  C   UNL     1       1.806  -2.342  -0.000  0.00  0.00    +0.000 A 
ATOM     12  C   UNL     1       2.945  -1.560   0.000  0.00  0.00    +0.000 A 
ENDROOT
BRANCH   2  13
ATOM     13  C   UNL     1      -2.024  -0.841   0.000  0.00  0.00    +0.000 C 
ATOM     14  C   UNL     1      -1.465  -2.266  -0.000  0.00  0.00    +0.000 C 
ATOM     15  C   UNL     1      -2.868  -0.602   1.255  0.00  0.00    +0.000 C 
ATOM     16  C   UNL     1      -2.868  -0.601  -1.254  0.00  0.00    +0.000 C 
ENDBRANCH   2  13
TORSDOF 1
