REMARK  Name = 159748527
REMARK  8 active torsions:
REMARK  status: ('A' for Active; 'I' for Inactive)
REMARK    1  A    between atoms: N_2  and  C_5
REMARK    2  A    between atoms: N_2  and  C_11
REMARK    3  A    between atoms: N_3  and  C_6
REMARK    4  A    between atoms: C_5  and  C_7
REMARK    5  A    between atoms: C_5  and  C_8
REMARK    6  A    between atoms: C_6  and  C_13
REMARK    7  A    between atoms: C_6  and  C_14
REMARK    8  A    between atoms: C_9  and  C_10
REMARK                            x       y       z     vdW  Elec       q    Type
REMARK                         _______ _______ _______ _____ _____    ______ ____
ROOT
ATOM      1  N   UNL     1      -3.292  -0.139  -0.606  0.00  0.00    +0.000 N 
ATOM      2  N   UNL     1      -1.468  -0.152   0.882  0.00  0.00    +0.000 NA
ATOM      3  C   UNL     1       0.702  -0.847   0.075  0.00  0.00    +0.000 A 
ATOM      4  C   UNL     1      -1.950  -0.372  -0.361  0.00  0.00    +0.000 A 
ATOM      5  C   UNL     1       0.170  -1.062  -1.192  0.00  0.00    +0.000 A 
ATOM      6  C   UNL     1      -1.181  -0.822  -1.423  0.00  0.00    +0.000 A 
ATOM      7  C   UNL     1      -0.152  -0.396   1.069  0.00  0.00    +0.000 A 
ATOM      8  H   UNL     1      -3.563  -0.015  -1.576  0.00  0.00    +0.000 HD
ENDROOT
BRANCH   3  11
ATOM      9  O   UNL     1       2.422  -2.220   0.737  0.00  0.00    +0.000 OA
ATOM     10  N   UNL     1       3.027  -0.034   0.169  0.00  0.00    +0.000 N 
ATOM     11  C   UNL     1       2.108  -1.087   0.346  0.00  0.00    +0.000 C 
ATOM     12  C   UNL     1       4.440  -0.245   0.450  0.00  0.00    +0.000 C 
BRANCH  10  13
ATOM     13  C   UNL     1       2.666   1.304  -0.293  0.00  0.00    +0.000 C 
ATOM     14  C   UNL     1       3.393   1.597  -1.599  0.00  0.00    +0.000 C 
ATOM     15  C   UNL     1       3.020   2.326   0.780  0.00  0.00    +0.000 C 
ENDBRANCH  10  13
ENDBRANCH   3  11
BRANCH   1  16
ATOM     16  C   UNL     1      -4.219   0.331   0.401  0.00  0.00    +0.000 C 
ATOM     17  C   UNL     1      -4.045   1.832   0.592  0.00  0.00    +0.000 C 
ATOM     18  C   UNL     1      -5.640  -0.014  -0.026  0.00  0.00    +0.000 C 
ENDBRANCH   1  16
TORSDOF 3
