REMARK  Name = 162271409
REMARK  4 active torsions:
REMARK  status: ('A' for Active; 'I' for Inactive)
REMARK    1  A    between atoms: N_2  and  C_5
REMARK    2  A    between atoms: C_5  and  C_6
REMARK    3  A    between atoms: C_5  and  C_7
REMARK    4  A    between atoms: C_5  and  C_8
REMARK                            x       y       z     vdW  Elec       q    Type
REMARK                         _______ _______ _______ _____ _____    ______ ____
ROOT
ATOM      1  O   UNL     1       2.713   2.090  -0.000  0.00  0.00    +0.000 OA
ATOM      2  N   UNL     1      -0.962   0.465   0.000  0.00  0.00    +0.000 N 
ATOM      3  N   UNL     1      -0.039  -1.771  -0.000  0.00  0.00    +0.000 NA
ATOM      4  N   UNL     1       0.445   2.409  -0.000  0.00  0.00    +0.000 NA
ATOM      5  C   UNL     1       0.134  -0.423   0.000  0.00  0.00    +0.000 A 
ATOM      6  C   UNL     1      -0.704   1.812  -0.000  0.00  0.00    +0.000 A 
ATOM      7  C   UNL     1       1.419   0.138  -0.000  0.00  0.00    +0.000 A 
ATOM      8  C   UNL     1       1.579   1.620  -0.000  0.00  0.00    +0.000 A 
ATOM      9  C   UNL     1       2.537  -0.698  -0.000  0.00  0.00    +0.000 A 
ATOM     10  C   UNL     1       1.063  -2.555  -0.000  0.00  0.00    +0.000 A 
ATOM     11  C   UNL     1       2.359  -2.073  -0.001  0.00  0.00    +0.000 A 
ENDROOT
BRANCH   2  12
ATOM     12  C   UNL     1      -2.297  -0.108   0.001  0.00  0.00    +0.000 C 
ATOM     13  C   UNL     1      -2.457  -0.966   1.257  0.00  0.00    +0.000 C 
ATOM     14  C   UNL     1      -3.322   1.029  -0.000  0.00  0.00    +0.000 C 
ATOM     15  C   UNL     1      -2.466  -0.968  -1.255  0.00  0.00    +0.000 C 
ENDBRANCH   2  12
TORSDOF 1
