REMARK  Name = 162672625
REMARK  2 active torsions:
REMARK  status: ('A' for Active; 'I' for Inactive)
REMARK    1  A    between atoms: N_3  and  C_7
REMARK    2  A    between atoms: C_6  and  C_12
REMARK                            x       y       z     vdW  Elec       q    Type
REMARK                         _______ _______ _______ _____ _____    ______ ____
ROOT
ATOM      1  N   UNL     1       2.021  -0.079  -0.821  0.00  0.00    +0.000 NA
ATOM      2  N   UNL     1       4.247   0.153   0.076  0.00  0.00    +0.000 N 
ATOM      3  N   UNL     1       2.429   0.286   1.450  0.00  0.00    +0.000 N 
ATOM      4  C   UNL     1       2.872   0.107   0.160  0.00  0.00    +0.000 C 
ATOM      5  H   UNL     1       4.720   0.037  -0.813  0.00  0.00    +0.000 HD
ATOM      6  H   UNL     1       4.823   0.303   0.896  0.00  0.00    +0.000 HD
ATOM      7  H   UNL     1       1.450   0.273   1.710  0.00  0.00    +0.000 HD
ATOM      8  H   UNL     1       3.090   0.433   2.206  0.00  0.00    +0.000 HD
ENDROOT
BRANCH   1  11
ATOM      9  N   UNL     1       0.125  -1.301  -0.232  0.00  0.00    +0.000 NA
ATOM     10  C   UNL     1      -2.014  -0.205   0.034  0.00  0.00    +0.000 A 
ATOM     11  C   UNL     1       0.652  -0.094  -0.535  0.00  0.00    +0.000 A 
ATOM     12  C   UNL     1      -0.077   1.084  -0.575  0.00  0.00    +0.000 A 
ATOM     13  C   UNL     1      -1.435   1.018  -0.284  0.00  0.00    +0.000 A 
ATOM     14  C   UNL     1      -1.198  -1.325   0.046  0.00  0.00    +0.000 A 
BRANCH  10  16
ATOM     15  O   UNL     1      -4.194   0.663   0.341  0.00  0.00    +0.000 OA
ATOM     16  C   UNL     1      -3.429  -0.307   0.341  0.00  0.00    +0.000 C 
ENDBRANCH  10  16
ENDBRANCH   1  11
TORSDOF 2
