REMARK  Name = 162651847
REMARK  3 active torsions:
REMARK  status: ('A' for Active; 'I' for Inactive)
REMARK    1  A    between atoms: N_3  and  C_9
REMARK    2  A    between atoms: C_6  and  C_11
REMARK    3  A    between atoms: C_11  and  C_12
REMARK                            x       y       z     vdW  Elec       q    Type
REMARK                         _______ _______ _______ _____ _____    ______ ____
ROOT
ATOM      1  N   UNL     1       0.381   1.264   0.041  0.00  0.00    +0.000 NA
ATOM      2  C   UNL     1      -1.704   0.041   0.073  0.00  0.00    +0.000 A 
ATOM      3  C   UNL     1      -1.051  -1.074   0.586  0.00  0.00    +0.000 A 
ATOM      4  C   UNL     1       0.317  -1.022   0.826  0.00  0.00    +0.000 A 
ATOM      5  C   UNL     1       0.981   0.160   0.539  0.00  0.00    +0.000 A 
ATOM      6  C   UNL     1      -0.950   1.176  -0.180  0.00  0.00    +0.000 A 
ENDROOT
BRANCH   5   7
ATOM      7  N   UNL     1       2.357   0.262   0.765  0.00  0.00    +0.000 NA
ATOM      8  N   UNL     1       2.710  -0.500  -1.415  0.00  0.00    +0.000 N 
ATOM      9  N   UNL     1       4.561  -0.030  -0.167  0.00  0.00    +0.000 N 
ATOM     10  C   UNL     1       3.184  -0.065  -0.200  0.00  0.00    +0.000 C 
ATOM     11  H   UNL     1       1.723  -0.581  -1.632  0.00  0.00    +0.000 HD
ATOM     12  H   UNL     1       3.352  -0.754  -2.158  0.00  0.00    +0.000 HD
ATOM     13  H   UNL     1       5.057   0.271   0.665  0.00  0.00    +0.000 HD
ATOM     14  H   UNL     1       5.118  -0.304  -0.969  0.00  0.00    +0.000 HD
ENDBRANCH   5   7
BRANCH   2  16
ATOM     15  O   UNL     1      -3.827   1.053  -0.108  0.00  0.00    +0.000 OA
ATOM     16  C   UNL     1      -3.133   0.019  -0.189  0.00  0.00    +0.000 C 
ATOM     17  C   UNL     1      -3.826  -1.285  -0.572  0.00  0.00    +0.000 C 
ENDBRANCH   2  16
TORSDOF 2
