REMARK  Name = 162668765
REMARK  5 active torsions:
REMARK  status: ('A' for Active; 'I' for Inactive)
REMARK    1  A    between atoms: O_1  and  N_3
REMARK    2  A    between atoms: O_1  and  C_15
REMARK    3  A    between atoms: N_3  and  C_14
REMARK    4  A    between atoms: N_5  and  C_13
REMARK    5  A    between atoms: C_8  and  C_9
REMARK                            x       y       z     vdW  Elec       q    Type
REMARK                         _______ _______ _______ _____ _____    ______ ____
ROOT
ATOM      1  N   UNL     1       1.209  -1.036   0.978  0.00  0.00    +0.000 NA
ATOM      2  C   UNL     1      -0.959  -0.724  -0.045  0.00  0.00    +0.000 A 
ATOM      3  C   UNL     1      -0.351  -0.371  -1.244  0.00  0.00    +0.000 A 
ATOM      4  C   UNL     1      -0.142  -1.045   1.027  0.00  0.00    +0.000 A 
ATOM      5  C   UNL     1       1.036  -0.350  -1.333  0.00  0.00    +0.000 A 
ATOM      6  C   UNL     1       1.764  -0.687  -0.204  0.00  0.00    +0.000 A 
ENDROOT
BRANCH   6   7
ATOM      7  N   UNL     1       3.162  -0.681  -0.244  0.00  0.00    +0.000 NA
ATOM      8  N   UNL     1       3.111   1.558   0.420  0.00  0.00    +0.000 N 
ATOM      9  N   UNL     1       5.164   0.621   0.081  0.00  0.00    +0.000 N 
ATOM     10  C   UNL     1       3.800   0.423   0.064  0.00  0.00    +0.000 C 
ATOM     11  H   UNL     1       2.100   1.602   0.476  0.00  0.00    +0.000 HD
ATOM     12  H   UNL     1       3.608   2.410   0.655  0.00  0.00    +0.000 HD
ATOM     13  H   UNL     1       5.805  -0.128  -0.160  0.00  0.00    +0.000 HD
ATOM     14  H   UNL     1       5.566   1.517   0.335  0.00  0.00    +0.000 HD
ENDBRANCH   6   7
BRANCH   2  17
ATOM     15  O   UNL     1      -2.940  -1.837   0.373  0.00  0.00    +0.000 OA
ATOM     16  N   UNL     1      -3.124   0.408  -0.143  0.00  0.00    +0.000 N 
ATOM     17  C   UNL     1      -2.428  -0.757   0.083  0.00  0.00    +0.000 C 
ATOM     18  C   UNL     1      -4.569   0.509  -0.066  0.00  0.00    +0.000 C 
BRANCH  16  19
ATOM     19  O   UNL     1      -2.512   1.630  -0.473  0.00  0.00    +0.000 OA
ATOM     20  C   UNL     1      -2.219   2.342   0.725  0.00  0.00    +0.000 C 
ENDBRANCH  16  19
ENDBRANCH   2  17
TORSDOF 3
