REMARK  Name = 162719178
REMARK  2 active torsions:
REMARK  status: ('A' for Active; 'I' for Inactive)
REMARK    1  A    between atoms: N_4  and  C_13
REMARK    2  A    between atoms: C_8  and  C_9
REMARK                            x       y       z     vdW  Elec       q    Type
REMARK                         _______ _______ _______ _____ _____    ______ ____
ROOT
ATOM      1  O   UNL     1      -0.532   2.133  -0.511  0.00  0.00    +0.000 OA
ATOM      2  N   UNL     1       0.626   0.284   0.318  0.00  0.00    +0.000 N 
ATOM      3  N   UNL     1       2.227   1.996   0.035  0.00  0.00    +0.000 NA
ATOM      4  C   UNL     1      -0.510   0.970  -0.117  0.00  0.00    +0.000 C 
ATOM      5  C   UNL     1       1.918   0.790   0.383  0.00  0.00    +0.000 C 
ATOM      6  H   UNL     1       0.528  -0.665   0.665  0.00  0.00    +0.000 HD
ATOM      7  H   UNL     1       3.233   2.135   0.181  0.00  0.00    +0.000 HD
ENDROOT
BRANCH   5   8
ATOM      8  N   UNL     1       2.882  -0.054   0.866  0.00  0.00    +0.000 NA
ATOM      9  N   UNL     1       4.529  -1.705   0.276  0.00  0.00    +0.000 N 
ATOM     10  N   UNL     1       3.244  -0.725  -1.338  0.00  0.00    +0.000 N 
ATOM     11  C   UNL     1       3.530  -0.797   0.004  0.00  0.00    +0.000 C 
ATOM     12  H   UNL     1       4.846  -1.866   1.226  0.00  0.00    +0.000 HD
ATOM     13  H   UNL     1       4.975  -2.239  -0.462  0.00  0.00    +0.000 HD
ATOM     14  H   UNL     1       2.535  -0.110  -1.721  0.00  0.00    +0.000 HD
ATOM     15  H   UNL     1       3.747  -1.301  -2.006  0.00  0.00    +0.000 HD
ENDBRANCH   5   8
BRANCH   4  17
ATOM     16  N   UNL     1      -4.190   0.222   0.161  0.00  0.00    +0.000 NA
ATOM     17  C   UNL     1      -1.782   0.207  -0.051  0.00  0.00    +0.000 A 
ATOM     18  C   UNL     1      -1.790  -1.181  -0.132  0.00  0.00    +0.000 A 
ATOM     19  C   UNL     1      -2.997   0.856   0.093  0.00  0.00    +0.000 A 
ATOM     20  C   UNL     1      -2.997  -1.869  -0.065  0.00  0.00    +0.000 A 
ATOM     21  C   UNL     1      -4.158  -1.127   0.079  0.00  0.00    +0.000 A 
ENDBRANCH   4  17
TORSDOF 2
