REMARK  Name = 163727827
REMARK  5 active torsions:
REMARK  status: ('A' for Active; 'I' for Inactive)
REMARK    1  A    between atoms: N_2  and  C_8
REMARK    2  A    between atoms: C_5  and  C_11
REMARK    3  A    between atoms: C_7  and  C_12
REMARK    4  A    between atoms: C_10  and  C_13
REMARK    5  A    between atoms: C_14  and  C_15
REMARK                            x       y       z     vdW  Elec       q    Type
REMARK                         _______ _______ _______ _____ _____    ______ ____
ROOT
ATOM      1  O   UNL     1      -0.099   1.295   1.153  0.00  0.00    +0.000 OA
ATOM      2  N   UNL     1       0.287  -0.395  -0.397  0.00  0.00    +0.000 N 
ATOM      3  C   UNL     1      -0.506   0.424   0.388  0.00  0.00    +0.000 C 
ATOM      4  H   UNL     1      -0.126  -1.269  -0.712  0.00  0.00    +0.000 HD
ENDROOT
BRANCH   3   7
ATOM      5  N   UNL     1      -3.837  -0.492  -1.115  0.00  0.00    +0.000 NA
ATOM      6  N   UNL     1      -6.044  -0.394  -0.224  0.00  0.00    +0.000 N 
ATOM      7  C   UNL     1      -1.971   0.218   0.249  0.00  0.00    +0.000 A 
ATOM      8  C   UNL     1      -2.839   0.515   1.294  0.00  0.00    +0.000 A 
ATOM      9  C   UNL     1      -2.515  -0.279  -0.925  0.00  0.00    +0.000 A 
ATOM     10  C   UNL     1      -4.205   0.310   1.135  0.00  0.00    +0.000 A 
ATOM     11  C   UNL     1      -4.649  -0.191  -0.078  0.00  0.00    +0.000 A 
ATOM     12  H   UNL     1      -6.363  -0.766  -1.110  0.00  0.00    +0.000 HD
ATOM     13  H   UNL     1      -6.592  -0.592   0.604  0.00  0.00    +0.000 HD
ENDBRANCH   3   7
BRANCH   2  17
ATOM     14  C   UNL     1       4.476   0.147   0.088  0.00  0.00    +0.000 C 
ATOM     15  C   UNL     1       3.941  -1.283  -0.114  0.00  0.00    +0.000 C 
ATOM     16  C   UNL     1       2.428  -1.395  -0.101  0.00  0.00    +0.000 C 
ATOM     17  C   UNL     1       1.656  -0.326  -0.409  0.00  0.00    +0.000 C 
ATOM     18  C   UNL     1       3.578   1.173  -0.544  0.00  0.00    +0.000 C 
ATOM     19  C   UNL     1       2.272   0.953  -0.785  0.00  0.00    +0.000 C 
ATOM     20  C   UNL     1       4.663   0.472   1.573  0.00  0.00    +0.000 C 
ATOM     21  C   UNL     1       1.929  -2.773   0.247  0.00  0.00    +0.000 C 
ATOM     22  C   UNL     1       1.435   2.022  -1.435  0.00  0.00    +0.000 C 
ENDBRANCH   2  17
TORSDOF 2
