REMARK  Name = 164046775
REMARK  2 active torsions:
REMARK  status: ('A' for Active; 'I' for Inactive)
REMARK    1  A    between atoms: N_5  and  C_12
REMARK    2  A    between atoms: C_10  and  C_11
REMARK                            x       y       z     vdW  Elec       q    Type
REMARK                         _______ _______ _______ _____ _____    ______ ____
ROOT
ATOM      1  N   UNL     1      -3.156  -0.181  -0.937  0.00  0.00    +0.000 NA
ATOM      2  C   UNL     1      -1.130   0.257   0.308  0.00  0.00    +0.000 A 
ATOM      3  C   UNL     1      -2.015   0.513  -0.727  0.00  0.00    +0.000 A 
ATOM      4  C   UNL     1      -1.436  -0.778   1.184  0.00  0.00    +0.000 A 
ATOM      5  C   UNL     1      -2.601  -1.515   1.001  0.00  0.00    +0.000 A 
ATOM      6  C   UNL     1      -3.420  -1.180  -0.065  0.00  0.00    +0.000 A 
ENDROOT
BRANCH   2  14
ATOM      7  I   UNL     1       3.370  -0.994  -2.226  0.00  0.00    +0.000 I 
ATOM      8  O   UNL     1      -0.016   2.244   0.694  0.00  0.00    +0.000 OA
ATOM      9  N   UNL     1       1.307   0.347   0.474  0.00  0.00    +0.000 N 
ATOM     10  C   UNL     1       2.997  -1.210  -0.121  0.00  0.00    +0.000 C 
ATOM     11  C   UNL     1       3.626  -0.067   0.680  0.00  0.00    +0.000 C 
ATOM     12  C   UNL     1       1.508  -1.074   0.193  0.00  0.00    +0.000 C 
ATOM     13  C   UNL     1       2.576   1.035   0.653  0.00  0.00    +0.000 C 
ATOM     14  C   UNL     1       0.103   1.034   0.512  0.00  0.00    +0.000 C 
ENDBRANCH   2  14
BRANCH   3  15
ATOM     15  N   UNL     1      -1.712   1.569  -1.623  0.00  0.00    +0.000 N 
ATOM     16  H   UNL     1      -1.193   2.366  -1.276  0.00  0.00    +0.000 HD
ATOM     17  H   UNL     1      -2.375   1.731  -2.371  0.00  0.00    +0.000 HD
ENDBRANCH   3  15
TORSDOF 2
