REMARK  Name = 164005684
REMARK  6 active torsions:
REMARK  status: ('A' for Active; 'I' for Inactive)
REMARK    1  A    between atoms: N_3  and  C_10
REMARK    2  A    between atoms: N_5  and  C_16
REMARK    3  A    between atoms: C_6  and  C_9
REMARK    4  A    between atoms: C_8  and  C_13
REMARK    5  A    between atoms: C_9  and  C_14
REMARK    6  A    between atoms: C_12  and  C_15
REMARK                            x       y       z     vdW  Elec       q    Type
REMARK                         _______ _______ _______ _____ _____    ______ ____
ROOT
ATOM      1  N   UNL     1      -1.164  -1.794   1.224  0.00  0.00    +0.000 NA
ATOM      2  C   UNL     1       0.558  -0.606   0.013  0.00  0.00    +0.000 A 
ATOM      3  C   UNL     1      -0.399   0.247  -0.525  0.00  0.00    +0.000 A 
ATOM      4  C   UNL     1      -1.738   0.082  -0.189  0.00  0.00    +0.000 A 
ATOM      5  C   UNL     1      -2.066  -0.945   0.682  0.00  0.00    +0.000 A 
ATOM      6  C   UNL     1       0.128  -1.602   0.875  0.00  0.00    +0.000 A 
ENDROOT
BRANCH   4   9
ATOM      7  O   UNL     1      -3.288   0.725  -1.842  0.00  0.00    +0.000 OA
ATOM      8  N   UNL     1      -3.030   2.143  -0.058  0.00  0.00    +0.000 N 
ATOM      9  C   UNL     1      -2.734   0.979  -0.759  0.00  0.00    +0.000 C 
ATOM     10  H   UNL     1      -2.583   2.370   0.824  0.00  0.00    +0.000 HD
ATOM     11  H   UNL     1      -3.712   2.806  -0.412  0.00  0.00    +0.000 HD
ENDBRANCH   4   9
BRANCH   5  12
ATOM     12  N   UNL     1      -3.429  -1.121   1.030  0.00  0.00    +0.000 N 
ATOM     13  H   UNL     1      -4.030  -0.307   1.059  0.00  0.00    +0.000 HD
ATOM     14  H   UNL     1      -3.638  -1.882   1.665  0.00  0.00    +0.000 HD
ENDBRANCH   5  12
BRANCH   2  15
ATOM     15  C   UNL     1       1.980  -0.457  -0.321  0.00  0.00    +0.000 C 
ATOM     16  C   UNL     1       2.705  -1.422  -0.914  0.00  0.00    +0.000 C 
ATOM     17  C   UNL     1       4.153  -1.361  -1.291  0.00  0.00    +0.000 C 
BRANCH  15  19
ATOM     18  N   UNL     1       2.388   1.570   0.989  0.00  0.00    +0.000 NA
ATOM     19  C   UNL     1       2.698   0.810  -0.006  0.00  0.00    +0.000 C 
ATOM     20  C   UNL     1       3.237   2.754   1.090  0.00  0.00    +0.000 C 
ENDBRANCH  15  19
ENDBRANCH   2  15
TORSDOF 4
