REMARK  Name = 164071158
REMARK  6 active torsions:
REMARK  status: ('A' for Active; 'I' for Inactive)
REMARK    1  A    between atoms: N_2  and  C_5
REMARK    2  A    between atoms: N_4  and  C_14
REMARK    3  A    between atoms: C_5  and  C_6
REMARK    4  A    between atoms: C_5  and  C_7
REMARK    5  A    between atoms: C_10  and  C_13
REMARK    6  A    between atoms: C_14  and  C_15
REMARK                            x       y       z     vdW  Elec       q    Type
REMARK                         _______ _______ _______ _____ _____    ______ ____
ROOT
ATOM      1  N   UNL     1      -3.764  -0.494  -0.118  0.00  0.00    +0.000 N 
ATOM      2  N   UNL     1      -1.752   0.628   0.366  0.00  0.00    +0.000 NA
ATOM      3  C   UNL     1      -2.381  -0.491  -0.057  0.00  0.00    +0.000 A 
ATOM      4  C   UNL     1      -1.727  -1.651  -0.439  0.00  0.00    +0.000 A 
ATOM      5  C   UNL     1       0.345  -0.531   0.049  0.00  0.00    +0.000 A 
ATOM      6  C   UNL     1      -0.338  -1.664  -0.382  0.00  0.00    +0.000 A 
ATOM      7  C   UNL     1      -0.402   0.579   0.408  0.00  0.00    +0.000 A 
ATOM      8  H   UNL     1      -4.193  -1.201  -0.706  0.00  0.00    +0.000 HD
ENDROOT
BRANCH   5  11
ATOM      9  O   UNL     1       2.429  -1.568   0.306  0.00  0.00    +0.000 OA
ATOM     10  N   UNL     1       2.421   0.735  -0.021  0.00  0.00    +0.000 N 
ATOM     11  C   UNL     1       1.796  -0.513   0.116  0.00  0.00    +0.000 C 
ATOM     12  H   UNL     1       1.852   1.556  -0.203  0.00  0.00    +0.000 HD
BRANCH  10  13
ATOM     13  C   UNL     1       3.770   0.937   0.036  0.00  0.00    +0.000 C 
ATOM     14  C   UNL     1       4.255   2.180  -0.109  0.00  0.00    +0.000 C 
BRANCH  13  15
ATOM     15  C   UNL     1       4.663  -0.190   0.252  0.00  0.00    +0.000 C 
ATOM     16  C   UNL     1       5.847  -0.412  -0.335  0.00  0.00    +0.000 C 
ENDBRANCH  13  15
ENDBRANCH  10  13
ENDBRANCH   5  11
BRANCH   1  17
ATOM     17  C   UNL     1      -4.584   0.641   0.249  0.00  0.00    +0.000 C 
ATOM     18  C   UNL     1      -5.993   0.160   0.567  0.00  0.00    +0.000 C 
ATOM     19  C   UNL     1      -4.587   1.655  -0.888  0.00  0.00    +0.000 C 
ENDBRANCH   1  17
TORSDOF 4
