REMARK  Name = 164761942
REMARK  2 active torsions:
REMARK  status: ('A' for Active; 'I' for Inactive)
REMARK    1  A    between atoms: C_4  and  C_9
REMARK    2  A    between atoms: C_5  and  C_10
REMARK                            x       y       z     vdW  Elec       q    Type
REMARK                         _______ _______ _______ _____ _____    ______ ____
ROOT
ATOM      1  N   UNL     1       1.236   1.809   0.072  0.00  0.00    +0.000 NA
ATOM      2  N   UNL     1       2.653  -0.075   0.300  0.00  0.00    +0.000 N 
ATOM      3  C   UNL     1      -0.983   0.126  -0.169  0.00  0.00    +0.000 A 
ATOM      4  C   UNL     1       0.286  -0.413   0.007  0.00  0.00    +0.000 A 
ATOM      5  C   UNL     1       1.353   0.463   0.121  0.00  0.00    +0.000 A 
ATOM      6  C   UNL     1      -1.145   1.506  -0.225  0.00  0.00    +0.000 A 
ATOM      7  C   UNL     1      -0.014   2.297  -0.100  0.00  0.00    +0.000 A 
ATOM      8  H   UNL     1       2.751  -0.946   0.808  0.00  0.00    +0.000 HD
ATOM      9  H   UNL     1       3.410   0.594   0.372  0.00  0.00    +0.000 HD
ENDROOT
BRANCH   4  11
ATOM     10  O   UNL     1       1.522  -2.408  -0.303  0.00  0.00    +0.000 OA
ATOM     11  C   UNL     1       0.486  -1.859   0.071  0.00  0.00    +0.000 C 
ENDBRANCH   4  11
BRANCH   3  12
ATOM     12  C   UNL     1      -2.164  -0.718  -0.298  0.00  0.00    +0.000 C 
ATOM     13  C   UNL     1      -3.231  -0.727   0.525  0.00  0.00    +0.000 C 
ENDBRANCH   3  12
TORSDOF 2
