REMARK  Name = 16654086
REMARK  5 active torsions:
REMARK  status: ('A' for Active; 'I' for Inactive)
REMARK    1  A    between atoms: N_3  and  C_8
REMARK    2  A    between atoms: C_7  and  C_8
REMARK    3  A    between atoms: C_7  and  C_9
REMARK    4  A    between atoms: C_9  and  C_10
REMARK    5  A    between atoms: C_14  and  C_17
REMARK                            x       y       z     vdW  Elec       q    Type
REMARK                         _______ _______ _______ _____ _____    ______ ____
ROOT
ATOM      1  O   UNL     1      -1.559  -1.643  -0.085  0.00  0.00    +0.000 OA
ATOM      2  N   UNL     1      -2.932  -0.035  -1.022  0.00  0.00    +0.000 N 
ATOM      3  N   UNL     1      -0.689   0.424  -0.779  0.00  0.00    +0.000 N 
ATOM      4  N   UNL     1       1.113  -0.834   0.094  0.00  0.00    +0.000 NA
ATOM      5  C   UNL     1      -1.695  -0.525  -0.578  0.00  0.00    +0.000 C 
ATOM      6  C   UNL     1       0.686   0.312  -0.466  0.00  0.00    +0.000 A 
ATOM      7  C   UNL     1       1.485   1.397  -0.762  0.00  0.00    +0.000 A 
ATOM      8  C   UNL     1       3.330   0.132   0.121  0.00  0.00    +0.000 A 
ATOM      9  C   UNL     1       2.838   1.296  -0.458  0.00  0.00    +0.000 A 
ATOM     10  C   UNL     1       2.434  -0.895   0.375  0.00  0.00    +0.000 A 
ATOM     11  H   UNL     1      -2.969   0.901  -1.414  0.00  0.00    +0.000 HD
ATOM     12  H   UNL     1      -0.976   1.304  -1.201  0.00  0.00    +0.000 HD
ENDROOT
BRANCH   8  15
ATOM     13  O   UNL     1       5.546   0.919   0.244  0.00  0.00    +0.000 OA
ATOM     14  N   UNL     1       5.156  -1.199   1.031  0.00  0.00    +0.000 N 
ATOM     15  C   UNL     1       4.738  -0.004   0.452  0.00  0.00    +0.000 C 
ATOM     16  H   UNL     1       6.134  -1.318   1.278  0.00  0.00    +0.000 HD
ATOM     17  H   UNL     1       4.564  -1.994   1.236  0.00  0.00    +0.000 HD
ENDBRANCH   8  15
BRANCH   2  18
ATOM     18  C   UNL     1      -4.154  -0.787  -0.945  0.00  0.00    +0.000 C 
BRANCH  18  19
ATOM     19  C   UNL     1      -4.896  -0.557   0.367  0.00  0.00    +0.000 C 
BRANCH  19  20
ATOM     20  C   UNL     1      -5.306   0.904   0.563  0.00  0.00    +0.000 C 
ATOM     21  C   UNL     1      -6.096   1.092   1.849  0.00  0.00    +0.000 C 
ENDBRANCH  19  20
ENDBRANCH  18  19
ENDBRANCH   2  18
TORSDOF 4
