REMARK  Name = 167138624
REMARK  5 active torsions:
REMARK  status: ('A' for Active; 'I' for Inactive)
REMARK    1  A    between atoms: N_2  and  C_11
REMARK    2  A    between atoms: N_2  and  C_12
REMARK    3  A    between atoms: N_4  and  C_9
REMARK    4  A    between atoms: C_5  and  C_6
REMARK    5  A    between atoms: C_8  and  C_13
REMARK                            x       y       z     vdW  Elec       q    Type
REMARK                         _______ _______ _______ _____ _____    ______ ____
ROOT
ATOM      1  N   UNL     1       1.824  -1.538   0.323  0.00  0.00    +0.000 NA
ATOM      2  C   UNL     1       0.016  -0.059  -0.299  0.00  0.00    +0.000 A 
ATOM      3  C   UNL     1       0.894   1.019  -0.315  0.00  0.00    +0.000 A 
ATOM      4  C   UNL     1       2.236   0.820  -0.013  0.00  0.00    +0.000 A 
ATOM      5  C   UNL     1       0.526  -1.306   0.023  0.00  0.00    +0.000 A 
ATOM      6  C   UNL     1       2.648  -0.467   0.296  0.00  0.00    +0.000 A 
ATOM      7  C   UNL     1       3.201   1.952  -0.023  0.00  0.00    +0.000 C 
ENDROOT
BRANCH   2  10
ATOM      8  O   UNL     1      -1.714   0.069  -1.806  0.00  0.00    +0.000 OA
ATOM      9  N   UNL     1      -2.279   0.472   0.426  0.00  0.00    +0.000 N 
ATOM     10  C   UNL     1      -1.403   0.162  -0.619  0.00  0.00    +0.000 C 
ATOM     11  C   UNL     1      -3.685   0.711   0.132  0.00  0.00    +0.000 C 
ATOM     12  C   UNL     1      -1.901   0.576   1.834  0.00  0.00    +0.000 C 
ENDBRANCH   2  10
BRANCH   5  13
ATOM     13  N   UNL     1      -0.363  -2.410   0.042  0.00  0.00    +0.000 N 
ATOM     14  H   UNL     1      -1.330  -2.249   0.293  0.00  0.00    +0.000 HD
ATOM     15  H   UNL     1       0.040  -3.310   0.277  0.00  0.00    +0.000 HD
ENDBRANCH   5  13
TORSDOF 2
