REMARK  Name = 167239622
REMARK  5 active torsions:
REMARK  status: ('A' for Active; 'I' for Inactive)
REMARK    1  A    between atoms: N_3  and  C_13
REMARK    2  A    between atoms: N_4  and  C_9
REMARK    3  A    between atoms: C_5  and  C_6
REMARK    4  A    between atoms: C_6  and  C_11
REMARK    5  A    between atoms: C_7  and  C_12
REMARK                            x       y       z     vdW  Elec       q    Type
REMARK                         _______ _______ _______ _____ _____    ______ ____
ROOT
ATOM      1  N   UNL     1       1.087  -1.972   0.340  0.00  0.00    +0.000 NA
ATOM      2  C   UNL     1       1.883   0.218  -0.307  0.00  0.00    +0.000 A 
ATOM      3  C   UNL     1      -0.481  -0.202  -0.162  0.00  0.00    +0.000 A 
ATOM      4  C   UNL     1       0.572   0.667  -0.425  0.00  0.00    +0.000 A 
ATOM      5  C   UNL     1      -0.173  -1.500   0.213  0.00  0.00    +0.000 A 
ATOM      6  C   UNL     1       2.085  -1.099   0.076  0.00  0.00    +0.000 A 
ENDROOT
BRANCH   3   9
ATOM      7  O   UNL     1      -2.639  -0.270  -1.077  0.00  0.00    +0.000 OA
ATOM      8  N   UNL     1      -2.222   1.351   0.529  0.00  0.00    +0.000 N 
ATOM      9  C   UNL     1      -1.850   0.278  -0.288  0.00  0.00    +0.000 C 
ATOM     10  C   UNL     1      -3.549   1.924   0.537  0.00  0.00    +0.000 C 
ATOM     11  H   UNL     1      -1.529   1.764   1.145  0.00  0.00    +0.000 HD
ENDBRANCH   3   9
BRANCH   5  12
ATOM     12  N   UNL     1      -1.241  -2.391   0.483  0.00  0.00    +0.000 N 
ATOM     13  H   UNL     1      -2.104  -2.015   0.856  0.00  0.00    +0.000 HD
ATOM     14  H   UNL     1      -0.986  -3.334   0.752  0.00  0.00    +0.000 HD
ENDBRANCH   5  12
BRANCH   2  15
ATOM     15  C   UNL     1       3.031   1.122  -0.583  0.00  0.00    +0.000 C 
ATOM     16  C   UNL     1       3.497   1.873   0.664  0.00  0.00    +0.000 C 
ENDBRANCH   2  15
TORSDOF 3
