REMARK  Name = 16785637
REMARK  2 active torsions:
REMARK  status: ('A' for Active; 'I' for Inactive)
REMARK    1  A    between atoms: N_2  and  C_10
REMARK    2  A    between atoms: C_11  and  C_13
REMARK                            x       y       z     vdW  Elec       q    Type
REMARK                         _______ _______ _______ _____ _____    ______ ____
ROOT
ATOM      1  N   UNL     1       1.070   1.871  -0.109  0.00  0.00    +0.000 NA
ATOM      2  C   UNL     1       0.579   0.613  -0.044  0.00  0.00    +0.000 A 
ATOM      3  C   UNL     1       1.367  -0.525   0.019  0.00  0.00    +0.000 A 
ATOM      4  C   UNL     1       2.748  -0.361   0.014  0.00  0.00    +0.000 A 
ATOM      5  C   UNL     1       2.416   1.991  -0.112  0.00  0.00    +0.000 A 
ATOM      6  C   UNL     1       3.291   0.917  -0.052  0.00  0.00    +0.000 A 
ENDROOT
BRANCH   2   7
ATOM      7  N   UNL     1      -0.812   0.456  -0.039  0.00  0.00    +0.000 N 
ATOM      8  N   UNL     1      -3.666   0.388  -0.068  0.00  0.00    +0.000 NA
ATOM      9  C   UNL     1      -1.574   1.081   1.050  0.00  0.00    +0.000 C 
ATOM     10  C   UNL     1      -1.530   0.296  -1.308  0.00  0.00    +0.000 C 
ATOM     11  C   UNL     1      -2.939   0.411   1.201  0.00  0.00    +0.000 C 
ATOM     12  C   UNL     1      -2.897  -0.345  -1.074  0.00  0.00    +0.000 C 
ATOM     13  H   UNL     1      -4.566  -0.072   0.068  0.00  0.00    +0.000 HD
ENDBRANCH   2   7
BRANCH   3  16
ATOM     14  O   UNL     1       0.575  -2.545  -0.919  0.00  0.00    +0.000 OA
ATOM     15  N   UNL     1       0.565  -2.380   1.354  0.00  0.00    +0.000 N 
ATOM     16  C   UNL     1       0.808  -1.868   0.089  0.00  0.00    +0.000 C 
ATOM     17  H   UNL     1       0.754  -1.848   2.198  0.00  0.00    +0.000 HD
ATOM     18  H   UNL     1       0.183  -3.312   1.475  0.00  0.00    +0.000 HD
ENDBRANCH   3  16
TORSDOF 2
