REMARK  Name = 16793970
REMARK  3 active torsions:
REMARK  status: ('A' for Active; 'I' for Inactive)
REMARK    1  A    between atoms: N_2  and  C_11
REMARK    2  A    between atoms: N_3  and  C_6
REMARK    3  A    between atoms: C_12  and  C_14
REMARK                            x       y       z     vdW  Elec       q    Type
REMARK                         _______ _______ _______ _____ _____    ______ ____
ROOT
ATOM      1  N   UNL     1      -1.458   1.849   0.113  0.00  0.00    +0.000 NA
ATOM      2  C   UNL     1      -0.912   0.613   0.051  0.00  0.00    +0.000 A 
ATOM      3  C   UNL     1      -1.649  -0.557  -0.026  0.00  0.00    +0.000 A 
ATOM      4  C   UNL     1      -3.036  -0.454  -0.041  0.00  0.00    +0.000 A 
ATOM      5  C   UNL     1      -2.808   1.910   0.096  0.00  0.00    +0.000 A 
ATOM      6  C   UNL     1      -3.634   0.799   0.021  0.00  0.00    +0.000 A 
ENDROOT
BRANCH   2   7
ATOM      7  N   UNL     1       0.485   0.516   0.066  0.00  0.00    +0.000 N 
ATOM      8  C   UNL     1       3.374   0.473   0.091  0.00  0.00    +0.000 C 
ATOM      9  C   UNL     1       2.587   0.529  -1.221  0.00  0.00    +0.000 C 
ATOM     10  C   UNL     1       2.554  -0.262   1.153  0.00  0.00    +0.000 C 
ATOM     11  C   UNL     1       1.220   1.184  -1.017  0.00  0.00    +0.000 C 
ATOM     12  C   UNL     1       1.185   0.391   1.349  0.00  0.00    +0.000 C 
BRANCH   8  13
ATOM     13  N   UNL     1       4.657  -0.200  -0.104  0.00  0.00    +0.000 NA
ATOM     14  H   UNL     1       5.185  -0.191   0.767  0.00  0.00    +0.000 HD
ATOM     15  H   UNL     1       5.214   0.314  -0.785  0.00  0.00    +0.000 HD
ENDBRANCH   8  13
ENDBRANCH   2   7
BRANCH   3  18
ATOM     16  O   UNL     1      -0.784  -2.545   0.917  0.00  0.00    +0.000 OA
ATOM     17  N   UNL     1      -0.748  -2.371  -1.355  0.00  0.00    +0.000 N 
ATOM     18  C   UNL     1      -1.032  -1.875  -0.092  0.00  0.00    +0.000 C 
ATOM     19  H   UNL     1      -0.948  -1.845  -2.200  0.00  0.00    +0.000 HD
ATOM     20  H   UNL     1      -0.325  -3.285  -1.474  0.00  0.00    +0.000 HD
ENDBRANCH   3  18
TORSDOF 3
