REMARK  Name = 168786362
REMARK  2 active torsions:
REMARK  status: ('A' for Active; 'I' for Inactive)
REMARK    1  A    between atoms: N_3  and  C_8
REMARK    2  A    between atoms: C_4  and  C_9
REMARK                            x       y       z     vdW  Elec       q    Type
REMARK                         _______ _______ _______ _____ _____    ______ ____
ROOT
ATOM      1  N   UNL     1      -0.783   1.252  -0.001  0.00  0.00    +0.000 NA
ATOM      2  C   UNL     1       1.400   0.213   0.001  0.00  0.00    +0.000 A 
ATOM      3  C   UNL     1       0.810  -1.046   0.000  0.00  0.00    +0.000 A 
ATOM      4  C   UNL     1      -0.576  -1.157  -0.001  0.00  0.00    +0.000 A 
ATOM      5  C   UNL     1       0.567   1.320   0.000  0.00  0.00    +0.000 A 
ATOM      6  C   UNL     1      -1.321   0.011  -0.002  0.00  0.00    +0.000 A 
ENDROOT
BRANCH   2   8
ATOM      7  O   UNL     1       3.624  -0.595  -0.001  0.00  0.00    +0.000 OA
ATOM      8  C   UNL     1       2.845   0.363   0.001  0.00  0.00    +0.000 C 
ENDBRANCH   2   8
BRANCH   6   9
ATOM      9  N   UNL     1      -2.700  -0.124   0.000  0.00  0.00    +0.000 NA
ATOM     10  C   UNL     1      -3.867  -0.237   0.002  0.00  0.00    +0.000 C 
ENDBRANCH   6   9
TORSDOF 2
