REMARK  Name = 168788211
REMARK  1 active torsions:
REMARK  status: ('A' for Active; 'I' for Inactive)
REMARK    1  A    between atoms: C_11  and  C_13
REMARK                            x       y       z     vdW  Elec       q    Type
REMARK                         _______ _______ _______ _____ _____    ______ ____
ROOT
ATOM      1  N   UNL     1       2.474  -1.188   0.003  0.00  0.00    +0.000 N 
ATOM      2  N   UNL     1       0.182  -1.752   0.002  0.00  0.00    +0.000 NA
ATOM      3  C   UNL     1       0.816   0.568  -0.002  0.00  0.00    +0.000 A 
ATOM      4  C   UNL     1       1.144  -0.794   0.001  0.00  0.00    +0.000 A 
ATOM      5  C   UNL     1       3.585  -0.253   0.001  0.00  0.00    +0.000 C 
ATOM      6  C   UNL     1       1.875   1.575  -0.002  0.00  0.00    +0.000 C 
ATOM      7  C   UNL     1      -0.530   0.941  -0.003  0.00  0.00    +0.000 A 
ATOM      8  C   UNL     1       3.155   1.183  -0.001  0.00  0.00    +0.000 C 
ATOM      9  C   UNL     1      -1.516  -0.035  -0.002  0.00  0.00    +0.000 A 
ATOM     10  C   UNL     1      -1.111  -1.356   0.000  0.00  0.00    +0.000 A 
ATOM     11  H   UNL     1       2.669  -2.182   0.005  0.00  0.00    +0.000 HD
ENDROOT
BRANCH   9  14
ATOM     12  O   UNL     1      -3.296   1.507   0.010  0.00  0.00    +0.000 OA
ATOM     13  N   UNL     1      -3.855  -0.717  -0.003  0.00  0.00    +0.000 N 
ATOM     14  C   UNL     1      -2.924   0.319  -0.004  0.00  0.00    +0.000 C 
ATOM     15  H   UNL     1      -3.635  -1.705  -0.010  0.00  0.00    +0.000 HD
ATOM     16  H   UNL     1      -4.846  -0.497   0.003  0.00  0.00    +0.000 HD
ENDBRANCH   9  14
TORSDOF 1
