REMARK  Name = 168968870
REMARK  1 active torsions:
REMARK  status: ('A' for Active; 'I' for Inactive)
REMARK    1  A    between atoms: N_4  and  C_13
REMARK                            x       y       z     vdW  Elec       q    Type
REMARK                         _______ _______ _______ _____ _____    ______ ____
ROOT
ATOM      1  O   UNL     1      -2.413  -2.097   0.001  0.00  0.00    +0.000 OA
ATOM      2  N   UNL     1      -3.024   0.128   0.000  0.00  0.00    +0.000 N 
ATOM      3  N   UNL     1       1.659  -1.104  -0.001  0.00  0.00    +0.000 NA
ATOM      4  N   UNL     1       3.312   0.612   0.000  0.00  0.00    +0.000 N 
ATOM      5  C   UNL     1      -0.345   0.862  -0.000  0.00  0.00    +0.000 A 
ATOM      6  C   UNL     1      -0.676  -0.498  -0.001  0.00  0.00    +0.000 A 
ATOM      7  C   UNL     1       0.999   1.228  -0.001  0.00  0.00    +0.000 A 
ATOM      8  C   UNL     1       1.950   0.218  -0.001  0.00  0.00    +0.000 A 
ATOM      9  C   UNL     1      -1.409   1.865   0.000  0.00  0.00    +0.000 A 
ATOM     10  C   UNL     1      -2.103  -0.910  -0.000  0.00  0.00    +0.000 A 
ATOM     11  C   UNL     1       0.348  -1.434  -0.001  0.00  0.00    +0.000 A 
ATOM     12  C   UNL     1      -2.682   1.457   0.001  0.00  0.00    +0.000 A 
ATOM     13  C   UNL     1       4.384  -0.328   0.001  0.00  0.00    +0.000 C 
ATOM     14  H   UNL     1      -4.014  -0.100   0.001  0.00  0.00    +0.000 HD
ATOM     15  H   UNL     1       3.513   1.579   0.232  0.00  0.00    +0.000 HD
ENDROOT
TORSDOF 0
