REMARK  Name = 169148623
REMARK  0 active torsions:
REMARK  status: ('A' for Active; 'I' for Inactive)
REMARK                            x       y       z     vdW  Elec       q    Type
REMARK                         _______ _______ _______ _____ _____    ______ ____
ROOT
ATOM      1  I   UNL     1       3.907   1.187  -0.000  0.00  0.00    +0.000 I 
ATOM      2  O   UNL     1       0.367  -2.727   0.000  0.00  0.00    +0.000 OA
ATOM      3  N   UNL     1       1.796  -0.910   0.000  0.00  0.00    +0.000 N 
ATOM      4  N   UNL     1       0.998   1.316  -0.000  0.00  0.00    +0.000 NA
ATOM      5  N   UNL     1      -1.297   1.734   0.000  0.00  0.00    +0.000 NA
ATOM      6  C   UNL     1      -0.579  -0.564  -0.000  0.00  0.00    +0.000 A 
ATOM      7  C   UNL     1      -0.313   0.805   0.000  0.00  0.00    +0.000 A 
ATOM      8  C   UNL     1       0.550  -1.516   0.000  0.00  0.00    +0.000 A 
ATOM      9  C   UNL     1      -1.901  -1.002  -0.001  0.00  0.00    +0.000 A 
ATOM     10  C   UNL     1       1.967   0.458   0.000  0.00  0.00    +0.000 A 
ATOM     11  C   UNL     1      -2.922  -0.061  -0.000  0.00  0.00    +0.000 A 
ATOM     12  C   UNL     1      -2.572   1.280   0.000  0.00  0.00    +0.000 A 
ATOM     13  H   UNL     1       2.621  -1.502   0.000  0.00  0.00    +0.000 HD
ENDROOT
TORSDOF 0
