REMARK  Name = 169737613
REMARK  4 active torsions:
REMARK  status: ('A' for Active; 'I' for Inactive)
REMARK    1  A    between atoms: N_3  and  C_12
REMARK    2  A    between atoms: C_6  and  C_10
REMARK    3  A    between atoms: C_7  and  C_11
REMARK    4  A    between atoms: C_13  and  C_15
REMARK                            x       y       z     vdW  Elec       q    Type
REMARK                         _______ _______ _______ _____ _____    ______ ____
ROOT
ATOM      1  N   UNL     1       1.538   1.788   0.113  0.00  0.00    +0.000 NA
ATOM      2  C   UNL     1       1.316   0.463  -0.042  0.00  0.00    +0.000 A 
ATOM      3  C   UNL     1       2.308  -0.502   0.022  0.00  0.00    +0.000 A 
ATOM      4  C   UNL     1       3.612  -0.081   0.261  0.00  0.00    +0.000 A 
ATOM      5  C   UNL     1       2.818   2.159   0.343  0.00  0.00    +0.000 A 
ATOM      6  C   UNL     1       3.880   1.273   0.426  0.00  0.00    +0.000 A 
ENDROOT
BRANCH   3   9
ATOM      7  O   UNL     1       2.062  -2.455  -1.272  0.00  0.00    +0.000 OA
ATOM      8  N   UNL     1       1.732  -2.663   0.988  0.00  0.00    +0.000 N 
ATOM      9  C   UNL     1       2.038  -1.923  -0.149  0.00  0.00    +0.000 C 
ATOM     10  H   UNL     1       1.699  -2.244   1.912  0.00  0.00    +0.000 HD
ATOM     11  H   UNL     1       1.528  -3.655   0.926  0.00  0.00    +0.000 HD
ENDBRANCH   3   9
BRANCH   2  13
ATOM     12  O   UNL     1      -1.191   2.071  -0.282  0.00  0.00    +0.000 OA
ATOM     13  N   UNL     1      -0.015   0.049  -0.287  0.00  0.00    +0.000 N 
ATOM     14  C   UNL     1      -1.151   0.843  -0.389  0.00  0.00    +0.000 C 
ATOM     15  H   UNL     1      -0.156  -0.952  -0.402  0.00  0.00    +0.000 HD
BRANCH  14  17
ATOM     16  C   UNL     1      -4.378  -0.541  -0.006  0.00  0.00    +0.000 C 
ATOM     17  C   UNL     1      -2.414   0.024  -0.668  0.00  0.00    +0.000 C 
ATOM     18  C   UNL     1      -3.779   0.757  -0.598  0.00  0.00    +0.000 C 
ATOM     19  C   UNL     1      -2.946  -0.890   0.467  0.00  0.00    +0.000 C 
ATOM     20  C   UNL     1      -5.427  -0.374   1.073  0.00  0.00    +0.000 C 
ENDBRANCH  14  17
ENDBRANCH   2  13
TORSDOF 3
