REMARK  Name = 169864782
REMARK  4 active torsions:
REMARK  status: ('A' for Active; 'I' for Inactive)
REMARK    1  A    between atoms: P_1  and  N_3
REMARK    2  A    between atoms: N_3  and  C_13
REMARK    3  A    between atoms: C_6  and  C_10
REMARK    4  A    between atoms: C_8  and  C_12
REMARK                            x       y       z     vdW  Elec       q    Type
REMARK                         _______ _______ _______ _____ _____    ______ ____
ROOT
ATOM      1  N   UNL     1      -2.860  -0.074   0.011  0.00  0.00    +0.000 N 
ATOM      2  N   UNL     1      -0.853  -1.357  -0.011  0.00  0.00    +0.000 NA
ATOM      3  C   UNL     1       0.637   1.008  -0.014  0.00  0.00    +0.000 A 
ATOM      4  C   UNL     1      -1.444  -0.142  -0.001  0.00  0.00    +0.000 A 
ATOM      5  C   UNL     1       1.283  -0.224  -0.025  0.00  0.00    +0.000 A 
ATOM      6  C   UNL     1      -0.752   1.058  -0.002  0.00  0.00    +0.000 A 
ATOM      7  C   UNL     1       1.411   2.286  -0.015  0.00  0.00    +0.000 C 
ATOM      8  C   UNL     1       0.499  -1.366  -0.023  0.00  0.00    +0.000 A 
ATOM      9  C   UNL     1      -3.595  -1.350   0.012  0.00  0.00    +0.000 C 
ENDROOT
BRANCH   5  12
ATOM     10  O   UNL     1       3.369  -0.401  -1.104  0.00  0.00    +0.000 OA
ATOM     11  N   UNL     1       3.388  -0.393   1.189  0.00  0.00    +0.000 N 
ATOM     12  C   UNL     1       2.733  -0.337  -0.037  0.00  0.00    +0.000 C 
ATOM     13  H   UNL     1       2.887  -0.349   2.071  0.00  0.00    +0.000 HD
ATOM     14  H   UNL     1       4.398  -0.478   1.238  0.00  0.00    +0.000 HD
ENDBRANCH   5  12
BRANCH   1  15
ATOM     15  P   UNL     1      -3.816   1.291   0.020  0.00  0.00    +0.000 P 
ATOM     16  H   UNL     1      -4.705   0.931  -1.020  0.00  0.00    +0.000 HD
ATOM     17  H   UNL     1      -4.694   0.925   1.068  0.00  0.00    +0.000 HD
ENDBRANCH   1  15
TORSDOF 2
