REMARK  Name = 169864780
REMARK  3 active torsions:
REMARK  status: ('A' for Active; 'I' for Inactive)
REMARK    1  A    between atoms: P_1  and  N_3
REMARK    2  A    between atoms: N_3  and  C_11
REMARK    3  A    between atoms: C_7  and  C_12
REMARK                            x       y       z     vdW  Elec       q    Type
REMARK                         _______ _______ _______ _____ _____    ______ ____
ROOT
ATOM      1  N   UNL     1      -2.744   0.041  -0.000  0.00  0.00    +0.000 N 
ATOM      2  N   UNL     1      -0.665   1.204   0.000  0.00  0.00    +0.000 NA
ATOM      3  C   UNL     1      -1.328   0.025  -0.001  0.00  0.00    +0.000 A 
ATOM      4  C   UNL     1       1.400  -0.053  -0.001  0.00  0.00    +0.000 A 
ATOM      5  C   UNL     1      -0.707  -1.213  -0.004  0.00  0.00    +0.000 A 
ATOM      6  C   UNL     1       0.684  -1.244  -0.004  0.00  0.00    +0.000 A 
ATOM      7  C   UNL     1       0.685   1.134   0.001  0.00  0.00    +0.000 A 
ATOM      8  C   UNL     1      -3.403   1.358   0.002  0.00  0.00    +0.000 C 
ENDROOT
BRANCH   4  11
ATOM      9  O   UNL     1       3.503  -1.114   0.009  0.00  0.00    +0.000 OA
ATOM     10  N   UNL     1       3.502   1.179  -0.001  0.00  0.00    +0.000 N 
ATOM     11  C   UNL     1       2.852  -0.053  -0.004  0.00  0.00    +0.000 C 
ATOM     12  H   UNL     1       3.048   2.084  -0.005  0.00  0.00    +0.000 HD
ATOM     13  H   UNL     1       4.517   1.208   0.004  0.00  0.00    +0.000 HD
ENDBRANCH   4  11
BRANCH   1  14
ATOM     14  P   UNL     1      -3.779  -1.265   0.003  0.00  0.00    +0.000 P 
ATOM     15  H   UNL     1      -4.636  -0.852   1.050  0.00  0.00    +0.000 HD
ATOM     16  H   UNL     1      -4.644  -0.851  -1.038  0.00  0.00    +0.000 HD
ENDBRANCH   1  14
TORSDOF 2
