REMARK  Name = 169838282
REMARK  4 active torsions:
REMARK  status: ('A' for Active; 'I' for Inactive)
REMARK    1  A    between atoms: N_3  and  C_9
REMARK    2  A    between atoms: C_6  and  C_10
REMARK    3  A    between atoms: C_8  and  C_13
REMARK    4  A    between atoms: C_10  and  C_12
REMARK                            x       y       z     vdW  Elec       q    Type
REMARK                         _______ _______ _______ _____ _____    ______ ____
ROOT
ATOM      1  N   UNL     1      -0.008   2.057   0.107  0.00  0.00    +0.000 NA
ATOM      2  C   UNL     1       1.020  -0.128  -0.008  0.00  0.00    +0.000 A 
ATOM      3  C   UNL     1      -0.235  -0.725  -0.049  0.00  0.00    +0.000 A 
ATOM      4  C   UNL     1      -1.377   0.067  -0.012  0.00  0.00    +0.000 A 
ATOM      5  C   UNL     1       1.079   1.254   0.069  0.00  0.00    +0.000 A 
ATOM      6  C   UNL     1      -1.211   1.441   0.065  0.00  0.00    +0.000 A 
ENDROOT
BRANCH   4   9
ATOM      7  O   UNL     1      -2.861  -1.758  -0.135  0.00  0.00    +0.000 OA
ATOM      8  N   UNL     1      -3.799   0.331  -0.010  0.00  0.00    +0.000 N 
ATOM      9  C   UNL     1      -2.702  -0.526  -0.051  0.00  0.00    +0.000 C 
ATOM     10  H   UNL     1      -3.755   1.340   0.052  0.00  0.00    +0.000 HD
ATOM     11  H   UNL     1      -4.737  -0.057  -0.043  0.00  0.00    +0.000 HD
ENDBRANCH   4   9
BRANCH   2  13
ATOM     12  N   UNL     1       3.339  -0.537  -0.564  0.00  0.00    +0.000 NA
ATOM     13  C   UNL     1       2.211  -0.966  -0.050  0.00  0.00    +0.000 C 
ATOM     14  C   UNL     1       2.188  -2.380   0.527  0.00  0.00    +0.000 C 
ATOM     15  H   UNL     1       4.059  -1.265  -0.501  0.00  0.00    +0.000 HD
ENDBRANCH   2  13
BRANCH   5  16
ATOM     16  N   UNL     1       2.355   1.870   0.111  0.00  0.00    +0.000 N 
ATOM     17  H   UNL     1       3.117   1.375   0.557  0.00  0.00    +0.000 HD
ATOM     18  H   UNL     1       2.365   2.882   0.160  0.00  0.00    +0.000 HD
ENDBRANCH   5  16
TORSDOF 3
