REMARK  Name = 170052213
REMARK  7 active torsions:
REMARK  status: ('A' for Active; 'I' for Inactive)
REMARK    1  A    between atoms: N_2  and  C_5
REMARK    2  A    between atoms: N_3  and  C_10
REMARK    3  A    between atoms: N_3  and  C_15
REMARK    4  A    between atoms: C_5  and  C_7
REMARK    5  A    between atoms: C_5  and  C_8
REMARK    6  A    between atoms: C_9  and  C_11
REMARK    7  A    between atoms: C_10  and  C_16
REMARK                            x       y       z     vdW  Elec       q    Type
REMARK                         _______ _______ _______ _____ _____    ______ ____
ROOT
ATOM      1  N   UNL     1      -3.054  -0.376  -0.503  0.00  0.00    +0.000 N 
ATOM      2  N   UNL     1      -1.174   0.099   0.830  0.00  0.00    +0.000 NA
ATOM      3  C   UNL     1      -1.691  -0.467  -0.283  0.00  0.00    +0.000 A 
ATOM      4  C   UNL     1       1.001  -0.672   0.110  0.00  0.00    +0.000 A 
ATOM      5  C   UNL     1      -0.939  -1.141  -1.232  0.00  0.00    +0.000 A 
ATOM      6  C   UNL     1       0.432  -1.241  -1.024  0.00  0.00    +0.000 A 
ATOM      7  C   UNL     1       0.162  -0.019   0.999  0.00  0.00    +0.000 A 
ATOM      8  H   UNL     1      -3.373  -0.527  -1.455  0.00  0.00    +0.000 HD
ENDROOT
BRANCH   4  11
ATOM      9  O   UNL     1       2.833  -1.730   1.009  0.00  0.00    +0.000 OA
ATOM     10  N   UNL     1       3.271   0.256  -0.144  0.00  0.00    +0.000 N 
ATOM     11  C   UNL     1       2.430  -0.758   0.354  0.00  0.00    +0.000 C 
ATOM     12  C   UNL     1       4.705   0.200   0.101  0.00  0.00    +0.000 C 
BRANCH  10  13
ATOM     13  C   UNL     1       2.805   1.404  -0.919  0.00  0.00    +0.000 C 
ATOM     14  C   UNL     1       2.450   2.575  -0.026  0.00  0.00    +0.000 C 
ENDBRANCH  10  13
ENDBRANCH   4  11
BRANCH   1  15
ATOM     15  C   UNL     1      -3.968   0.295   0.397  0.00  0.00    +0.000 C 
ATOM     16  C   UNL     1      -3.884   1.800   0.178  0.00  0.00    +0.000 C 
ATOM     17  C   UNL     1      -5.380  -0.223   0.156  0.00  0.00    +0.000 C 
ENDBRANCH   1  15
TORSDOF 3
