REMARK  Name = 170278659
REMARK  0 active torsions:
REMARK  status: ('A' for Active; 'I' for Inactive)
REMARK                            x       y       z     vdW  Elec       q    Type
REMARK                         _______ _______ _______ _____ _____    ______ ____
ROOT
ATOM      1  O   UNL     1      -1.143  -2.381  -0.622  0.00  0.00    +0.000 OA
ATOM      2  N   UNL     1      -2.204  -0.553   0.273  0.00  0.00    +0.000 N 
ATOM      3  N   UNL     1      -0.578   1.717  -0.648  0.00  0.00    +0.000 NA
ATOM      4  N   UNL     1       1.650   1.377  -0.165  0.00  0.00    +0.000 NA
ATOM      5  C   UNL     1       0.227  -0.566  -0.050  0.00  0.00    +0.000 A 
ATOM      6  C   UNL     1      -2.170   0.716   0.962  0.00  0.00    +0.000 C 
ATOM      7  C   UNL     1       0.421   0.806  -0.256  0.00  0.00    +0.000 A 
ATOM      8  C   UNL     1      -1.088  -1.244  -0.159  0.00  0.00    +0.000 C 
ATOM      9  C   UNL     1       1.339  -1.359   0.254  0.00  0.00    +0.000 A 
ATOM     10  C   UNL     1      -1.747   1.688  -0.092  0.00  0.00    +0.000 C 
ATOM     11  C   UNL     1       2.596  -0.780   0.359  0.00  0.00    +0.000 A 
ATOM     12  C   UNL     1       2.697   0.580   0.144  0.00  0.00    +0.000 A 
ATOM     13  H   UNL     1      -3.102  -1.022   0.194  0.00  0.00    +0.000 HD
ENDROOT
TORSDOF 0
