REMARK  Name = 170568765
REMARK  1 active torsions:
REMARK  status: ('A' for Active; 'I' for Inactive)
REMARK    1  A    between atoms: C_12  and  C_14
REMARK                            x       y       z     vdW  Elec       q    Type
REMARK                         _______ _______ _______ _____ _____    ______ ____
ROOT
ATOM      1  F   UNL     1      -5.037   0.075   0.568  0.00  0.00    +0.000 F 
ATOM      2  N   UNL     1      -1.960  -0.008  -0.155  0.00  0.00    +0.000 N 
ATOM      3  N   UNL     1       0.083   1.186  -0.047  0.00  0.00    +0.000 NA
ATOM      4  C   UNL     1      -4.003  -0.024  -0.296  0.00  0.00    +0.000 C 
ATOM      5  C   UNL     1      -2.912   1.048  -0.168  0.00  0.00    +0.000 C 
ATOM      6  C   UNL     1      -2.912  -1.040   0.071  0.00  0.00    +0.000 C 
ATOM      7  C   UNL     1      -0.559  -0.002  -0.100  0.00  0.00    +0.000 A 
ATOM      8  C   UNL     1       0.081  -1.231  -0.103  0.00  0.00    +0.000 A 
ATOM      9  C   UNL     1       1.470  -1.241  -0.048  0.00  0.00    +0.000 A 
ATOM     10  C   UNL     1       2.167  -0.039   0.008  0.00  0.00    +0.000 A 
ATOM     11  C   UNL     1       1.433   1.137   0.006  0.00  0.00    +0.000 A 
ENDROOT
BRANCH  10  14
ATOM     12  O   UNL     1       4.284  -1.068   0.081  0.00  0.00    +0.000 OA
ATOM     13  N   UNL     1       4.247   1.225   0.120  0.00  0.00    +0.000 N 
ATOM     14  C   UNL     1       3.618  -0.017   0.064  0.00  0.00    +0.000 C 
ATOM     15  H   UNL     1       3.779   2.122   0.116  0.00  0.00    +0.000 HD
ATOM     16  H   UNL     1       5.260   1.269   0.166  0.00  0.00    +0.000 HD
ENDBRANCH  10  14
TORSDOF 1
