REMARK  Name = 170943887
REMARK  5 active torsions:
REMARK  status: ('A' for Active; 'I' for Inactive)
REMARK    1  A    between atoms: N_2  and  N_4
REMARK    2  A    between atoms: N_2  and  C_9
REMARK    3  A    between atoms: N_4  and  N_5
REMARK    4  A    between atoms: N_5  and  N_7
REMARK    5  A    between atoms: C_8  and  C_12
REMARK                            x       y       z     vdW  Elec       q    Type
REMARK                         _______ _______ _______ _____ _____    ______ ____
ROOT
ATOM      1  N   UNL     1       0.113  -1.822  -0.159  0.00  0.00    +0.000 NA
ATOM      2  C   UNL     1       1.255   0.300   0.036  0.00  0.00    +0.000 A 
ATOM      3  C   UNL     1       0.116  -0.470  -0.135  0.00  0.00    +0.000 A 
ATOM      4  C   UNL     1       2.469  -0.359   0.194  0.00  0.00    +0.000 A 
ATOM      5  C   UNL     1       2.507  -1.749   0.174  0.00  0.00    +0.000 A 
ATOM      6  C   UNL     1       1.312  -2.428  -0.004  0.00  0.00    +0.000 A 
ENDROOT
BRANCH   2   9
ATOM      7  O   UNL     1       1.048   2.380   1.121  0.00  0.00    +0.000 OA
ATOM      8  N   UNL     1       1.383   2.426  -1.146  0.00  0.00    +0.000 N 
ATOM      9  C   UNL     1       1.225   1.756   0.062  0.00  0.00    +0.000 C 
ATOM     10  H   UNL     1       1.521   1.933  -2.023  0.00  0.00    +0.000 HD
ATOM     11  H   UNL     1       1.364   3.440  -1.188  0.00  0.00    +0.000 HD
ENDBRANCH   2   9
BRANCH   3  12
ATOM     12  N   UNL     1      -1.126   0.194  -0.292  0.00  0.00    +0.000 N 
ATOM     13  H   UNL     1      -1.129   1.064  -0.814  0.00  0.00    +0.000 HD
BRANCH  12  14
ATOM     14  N   UNL     1      -2.319  -0.468  -0.146  0.00  0.00    +0.000 NA
ATOM     15  H   UNL     1      -2.515  -0.980  -1.006  0.00  0.00    +0.000 HD
BRANCH  14  16
ATOM     16  N   UNL     1      -3.371   0.459   0.084  0.00  0.00    +0.000 NA
ATOM     17  H   UNL     1      -3.180   0.966   0.947  0.00  0.00    +0.000 HD
BRANCH  16  18
ATOM     18  N   UNL     1      -4.612  -0.221   0.211  0.00  0.00    +0.000 NA
ATOM     19  H   UNL     1      -4.796  -0.739  -0.647  0.00  0.00    +0.000 HD
ATOM     20  H   UNL     1      -4.535  -0.917   0.951  0.00  0.00    +0.000 HD
ENDBRANCH  16  18
ENDBRANCH  14  16
ENDBRANCH  12  14
ENDBRANCH   3  12
TORSDOF 5
