REMARK  Name = 171037196
REMARK  1 active torsions:
REMARK  status: ('A' for Active; 'I' for Inactive)
REMARK    1  A    between atoms: C_12  and  C_13
REMARK                            x       y       z     vdW  Elec       q    Type
REMARK                         _______ _______ _______ _____ _____    ______ ____
ROOT
ATOM      1  F   UNL     1      -3.966  -0.784  -1.179  0.00  0.00    +0.000 F 
ATOM      2  F   UNL     1      -4.286  -1.417   0.877  0.00  0.00    +0.000 F 
ATOM      3  O   UNL     1       0.242   2.541   0.558  0.00  0.00    +0.000 OA
ATOM      4  N   UNL     1      -0.982   0.722  -0.257  0.00  0.00    +0.000 N 
ATOM      5  C   UNL     1      -3.428  -0.749   0.068  0.00  0.00    +0.000 C 
ATOM      6  C   UNL     1      -2.083  -1.460   0.050  0.00  0.00    +0.000 C 
ATOM      7  C   UNL     1      -3.316   0.697   0.523  0.00  0.00    +0.000 C 
ATOM      8  C   UNL     1      -1.051  -0.664  -0.742  0.00  0.00    +0.000 C 
ATOM      9  C   UNL     1      -2.253   1.448  -0.274  0.00  0.00    +0.000 C 
ATOM     10  C   UNL     1       0.180   1.381   0.152  0.00  0.00    +0.000 C 
ENDROOT
BRANCH  10  13
ATOM     11  N   UNL     1       3.425  -0.006  -1.118  0.00  0.00    +0.000 NA
ATOM     12  N   UNL     1       5.040  -1.418  -0.081  0.00  0.00    +0.000 N 
ATOM     13  C   UNL     1       1.447   0.640   0.113  0.00  0.00    +0.000 A 
ATOM     14  C   UNL     1       1.882  -0.092   1.212  0.00  0.00    +0.000 A 
ATOM     15  C   UNL     1       2.248   0.651  -1.018  0.00  0.00    +0.000 A 
ATOM     16  C   UNL     1       3.087  -0.783   1.147  0.00  0.00    +0.000 A 
ATOM     17  C   UNL     1       3.815  -0.708  -0.030  0.00  0.00    +0.000 A 
ATOM     18  H   UNL     1       5.544  -1.572   0.783  0.00  0.00    +0.000 HD
ATOM     19  H   UNL     1       5.571  -1.355  -0.941  0.00  0.00    +0.000 HD
ENDBRANCH  10  13
TORSDOF 1
