REMARK  Name = 171037193
REMARK  2 active torsions:
REMARK  status: ('A' for Active; 'I' for Inactive)
REMARK    1  A    between atoms: N_4  and  C_7
REMARK    2  A    between atoms: C_11  and  C_12
REMARK                            x       y       z     vdW  Elec       q    Type
REMARK                         _______ _______ _______ _____ _____    ______ ____
ROOT
ATOM      1  O   UNL     1       0.098  -1.983  -0.402  0.00  0.00    +0.000 OA
ATOM      2  N   UNL     1       0.781   0.045   0.490  0.00  0.00    +0.000 N 
ATOM      3  C   UNL     1      -0.172  -0.854  -0.002  0.00  0.00    +0.000 C 
ATOM      4  H   UNL     1       0.460   0.937   0.856  0.00  0.00    +0.000 HD
ENDROOT
BRANCH   3   7
ATOM      5  N   UNL     1      -3.162   1.433  -0.110  0.00  0.00    +0.000 NA
ATOM      6  N   UNL     1      -5.498   0.971  -0.045  0.00  0.00    +0.000 N 
ATOM      7  C   UNL     1      -1.585  -0.396  -0.010  0.00  0.00    +0.000 A 
ATOM      8  C   UNL     1      -2.633  -1.306   0.065  0.00  0.00    +0.000 A 
ATOM      9  C   UNL     1      -1.899   0.951  -0.096  0.00  0.00    +0.000 A 
ATOM     10  C   UNL     1      -3.946  -0.848   0.053  0.00  0.00    +0.000 A 
ATOM     11  C   UNL     1      -4.155   0.519  -0.035  0.00  0.00    +0.000 A 
ATOM     12  H   UNL     1      -6.211   0.354  -0.412  0.00  0.00    +0.000 HD
ATOM     13  H   UNL     1      -5.646   1.970  -0.115  0.00  0.00    +0.000 HD
ENDBRANCH   3   7
BRANCH   2  16
ATOM     14  F   UNL     1       5.070  -0.454   0.398  0.00  0.00    +0.000 F 
ATOM     15  F   UNL     1       4.755   1.269  -0.887  0.00  0.00    +0.000 F 
ATOM     16  C   UNL     1       2.197  -0.273   0.577  0.00  0.00    +0.000 C 
ATOM     17  C   UNL     1       3.108   0.928   0.904  0.00  0.00    +0.000 C 
ATOM     18  C   UNL     1       2.922  -0.363  -0.781  0.00  0.00    +0.000 C 
ATOM     19  C   UNL     1       4.119   0.358  -0.119  0.00  0.00    +0.000 C 
ENDBRANCH   2  16
TORSDOF 2
