REMARK  Name = 171037195
REMARK  1 active torsions:
REMARK  status: ('A' for Active; 'I' for Inactive)
REMARK    1  A    between atoms: C_12  and  C_13
REMARK                            x       y       z     vdW  Elec       q    Type
REMARK                         _______ _______ _______ _____ _____    ______ ____
ROOT
ATOM      1  F   UNL     1      -1.916   1.548  -1.170  0.00  0.00    +0.000 F 
ATOM      2  F   UNL     1      -2.471   2.542   0.684  0.00  0.00    +0.000 F 
ATOM      3  O   UNL     1      -0.006  -2.689  -0.457  0.00  0.00    +0.000 OA
ATOM      4  N   UNL     1      -1.232  -0.859   0.331  0.00  0.00    +0.000 N 
ATOM      5  C   UNL     1      -3.696   0.635   0.066  0.00  0.00    +0.000 C 
ATOM      6  C   UNL     1      -2.341   1.324   0.101  0.00  0.00    +0.000 C 
ATOM      7  C   UNL     1      -3.571  -0.798  -0.447  0.00  0.00    +0.000 C 
ATOM      8  C   UNL     1      -1.290   0.517   0.843  0.00  0.00    +0.000 C 
ATOM      9  C   UNL     1      -2.509  -1.575   0.327  0.00  0.00    +0.000 C 
ATOM     10  C   UNL     1      -0.072  -1.521  -0.078  0.00  0.00    +0.000 C 
ENDROOT
BRANCH  10  13
ATOM     11  N   UNL     1       3.177  -0.086   1.121  0.00  0.00    +0.000 NA
ATOM     12  N   UNL     1       4.771   1.313   0.035  0.00  0.00    +0.000 N 
ATOM     13  C   UNL     1       1.189  -0.772  -0.071  0.00  0.00    +0.000 A 
ATOM     14  C   UNL     1       1.606  -0.060  -1.191  0.00  0.00    +0.000 A 
ATOM     15  C   UNL     1       2.004  -0.753   1.050  0.00  0.00    +0.000 A 
ATOM     16  C   UNL     1       2.807   0.639  -1.156  0.00  0.00    +0.000 A 
ATOM     17  C   UNL     1       3.550   0.595   0.014  0.00  0.00    +0.000 A 
ATOM     18  H   UNL     1       5.263   1.452  -0.839  0.00  0.00    +0.000 HD
ATOM     19  H   UNL     1       5.312   1.274   0.889  0.00  0.00    +0.000 HD
ENDBRANCH  10  13
TORSDOF 1
