REMARK  Name = 171501818
REMARK  2 active torsions:
REMARK  status: ('A' for Active; 'I' for Inactive)
REMARK    1  A    between atoms: C_6  and  C_10
REMARK    2  A    between atoms: C_15  and  C_16
REMARK                            x       y       z     vdW  Elec       q    Type
REMARK                         _______ _______ _______ _____ _____    ______ ____
ROOT
ATOM      1  F   UNL     1       3.836   0.252  -1.425  0.00  0.00    +0.000 F 
ATOM      2  N   UNL     1       1.390  -0.229   0.132  0.00  0.00    +0.000 N 
ATOM      3  N   UNL     1      -0.550   1.095   0.121  0.00  0.00    +0.000 NA
ATOM      4  C   UNL     1       3.667   0.318  -0.072  0.00  0.00    +0.000 C 
ATOM      5  C   UNL     1       3.554  -1.101   0.466  0.00  0.00    +0.000 C 
ATOM      6  C   UNL     1       2.291   0.921   0.209  0.00  0.00    +0.000 C 
ATOM      7  C   UNL     1       2.122  -1.493   0.103  0.00  0.00    +0.000 C 
ATOM      8  C   UNL     1       4.819   1.109   0.511  0.00  0.00    +0.000 C 
ATOM      9  C   UNL     1       0.015  -0.133   0.088  0.00  0.00    +0.000 A 
ATOM     10  C   UNL     1      -0.702  -1.315   0.013  0.00  0.00    +0.000 A 
ATOM     11  C   UNL     1      -2.089  -1.234  -0.033  0.00  0.00    +0.000 A 
ATOM     12  C   UNL     1      -1.901   1.135   0.075  0.00  0.00    +0.000 A 
ATOM     13  C   UNL     1      -2.708   0.011  -0.002  0.00  0.00    +0.000 A 
ENDROOT
BRANCH  13  16
ATOM     14  O   UNL     1      -4.887  -0.874  -0.129  0.00  0.00    +0.000 OA
ATOM     15  N   UNL     1      -4.704   1.409  -0.011  0.00  0.00    +0.000 N 
ATOM     16  C   UNL     1      -4.155   0.129  -0.046  0.00  0.00    +0.000 C 
ATOM     17  H   UNL     1      -4.179   2.272   0.050  0.00  0.00    +0.000 HD
ATOM     18  H   UNL     1      -5.712   1.520  -0.048  0.00  0.00    +0.000 HD
ENDBRANCH  13  16
TORSDOF 1
