REMARK  Name = 171638145
REMARK  7 active torsions:
REMARK  status: ('A' for Active; 'I' for Inactive)
REMARK    1  A    between atoms: N_2  and  C_10
REMARK    2  A    between atoms: N_4  and  C_17
REMARK    3  A    between atoms: C_5  and  C_8
REMARK    4  A    between atoms: C_5  and  C_9
REMARK    5  A    between atoms: C_5  and  C_14
REMARK    6  A    between atoms: C_7  and  C_15
REMARK    7  A    between atoms: C_10  and  C_16
REMARK                            x       y       z     vdW  Elec       q    Type
REMARK                         _______ _______ _______ _____ _____    ______ ____
ROOT
ATOM      1  N   UNL     1       1.194   0.223   0.022  0.00  0.00    +0.000 N 
ATOM      2  N   UNL     1      -0.823   1.403  -0.276  0.00  0.00    +0.000 NA
ATOM      3  C   UNL     1      -0.193   0.244   0.019  0.00  0.00    +0.000 A 
ATOM      4  C   UNL     1      -2.921   0.240   0.023  0.00  0.00    +0.000 A 
ATOM      5  C   UNL     1      -0.846  -0.939   0.323  0.00  0.00    +0.000 A 
ATOM      6  C   UNL     1      -2.237  -0.933   0.323  0.00  0.00    +0.000 A 
ATOM      7  C   UNL     1      -2.175   1.371  -0.267  0.00  0.00    +0.000 A 
ATOM      8  H   UNL     1       1.660   1.095  -0.203  0.00  0.00    +0.000 HD
ENDROOT
BRANCH   4  11
ATOM      9  O   UNL     1      -4.979   1.345   0.231  0.00  0.00    +0.000 OA
ATOM     10  N   UNL     1      -5.040  -0.921  -0.260  0.00  0.00    +0.000 N 
ATOM     11  C   UNL     1      -4.373   0.279   0.017  0.00  0.00    +0.000 C 
ATOM     12  C   UNL     1      -6.479  -1.040  -0.325  0.00  0.00    +0.000 C 
ATOM     13  H   UNL     1      -4.510  -1.749  -0.510  0.00  0.00    +0.000 HD
ENDBRANCH   4  11
BRANCH   1  14
ATOM     14  C   UNL     1       1.977  -0.951   0.321  0.00  0.00    +0.000 C 
BRANCH  14  16
ATOM     15  C   UNL     1       4.579  -0.381   0.233  0.00  0.00    +0.000 C 
ATOM     16  C   UNL     1       3.406  -0.636   0.273  0.00  0.00    +0.000 C 
BRANCH  15  17
ATOM     17  C   UNL     1       6.019  -0.068   0.187  0.00  0.00    +0.000 C 
ATOM     18  C   UNL     1       6.657  -0.681  -1.057  0.00  0.00    +0.000 C 
ATOM     19  C   UNL     1       6.235   1.444   0.213  0.00  0.00    +0.000 C 
ENDBRANCH  15  17
ENDBRANCH  14  16
ENDBRANCH   1  14
TORSDOF 4
