REMARK  Name = 171795649
REMARK  0 active torsions:
REMARK  status: ('A' for Active; 'I' for Inactive)
REMARK                            x       y       z     vdW  Elec       q    Type
REMARK                         _______ _______ _______ _____ _____    ______ ____
ROOT
ATOM      1  O   UNL     1      -2.158  -2.012   0.001  0.00  0.00    +0.000 OA
ATOM      2  N   UNL     1      -2.650   0.242   0.000  0.00  0.00    +0.000 N 
ATOM      3  N   UNL     1       1.961  -1.237  -0.000  0.00  0.00    +0.000 NA
ATOM      4  N   UNL     1       3.703   0.388   0.001  0.00  0.00    +0.000 N 
ATOM      5  C   UNL     1       0.065   0.832  -0.000  0.00  0.00    +0.000 A 
ATOM      6  C   UNL     1      -0.339  -0.508  -0.001  0.00  0.00    +0.000 A 
ATOM      7  C   UNL     1       1.427   1.127  -0.000  0.00  0.00    +0.000 A 
ATOM      8  C   UNL     1      -0.944   1.891   0.000  0.00  0.00    +0.000 A 
ATOM      9  C   UNL     1      -1.784  -0.844  -0.000  0.00  0.00    +0.000 A 
ATOM     10  C   UNL     1       0.635  -1.497  -0.000  0.00  0.00    +0.000 A 
ATOM     11  C   UNL     1       2.322   0.067  -0.000  0.00  0.00    +0.000 A 
ATOM     12  C   UNL     1      -2.238   1.551   0.000  0.00  0.00    +0.000 A 
ATOM     13  H   UNL     1      -3.651   0.067   0.000  0.00  0.00    +0.000 HD
ATOM     14  H   UNL     1       3.994   1.262  -0.420  0.00  0.00    +0.000 HD
ATOM     15  H   UNL     1       4.354  -0.387  -0.005  0.00  0.00    +0.000 HD
ENDROOT
TORSDOF 0
