REMARK  Name = 172272034
REMARK  1 active torsions:
REMARK  status: ('A' for Active; 'I' for Inactive)
REMARK    1  A    between atoms: C_13  and  C_15
REMARK                            x       y       z     vdW  Elec       q    Type
REMARK                         _______ _______ _______ _____ _____    ______ ____
ROOT
ATOM      1  F   UNL     1      -4.352  -0.114   1.203  0.00  0.00    +0.000 F 
ATOM      2  F   UNL     1      -4.658   0.106  -0.936  0.00  0.00    +0.000 F 
ATOM      3  N   UNL     1      -1.657   0.011  -0.024  0.00  0.00    +0.000 N 
ATOM      4  N   UNL     1       0.396   1.195  -0.008  0.00  0.00    +0.000 NA
ATOM      5  C   UNL     1      -3.708   0.008   0.020  0.00  0.00    +0.000 C 
ATOM      6  C   UNL     1      -2.602   1.071  -0.026  0.00  0.00    +0.000 C 
ATOM      7  C   UNL     1      -2.603  -1.025  -0.241  0.00  0.00    +0.000 C 
ATOM      8  C   UNL     1      -0.255   0.010  -0.016  0.00  0.00    +0.000 A 
ATOM      9  C   UNL     1       0.378  -1.222  -0.016  0.00  0.00    +0.000 A 
ATOM     10  C   UNL     1       1.769  -1.240  -0.008  0.00  0.00    +0.000 A 
ATOM     11  C   UNL     1       2.473  -0.041   0.002  0.00  0.00    +0.000 A 
ATOM     12  C   UNL     1       1.746   1.139   0.001  0.00  0.00    +0.000 A 
ENDROOT
BRANCH  11  15
ATOM     13  O   UNL     1       4.586  -1.081   0.024  0.00  0.00    +0.000 OA
ATOM     14  N   UNL     1       4.563   1.212   0.018  0.00  0.00    +0.000 N 
ATOM     15  C   UNL     1       3.925  -0.027   0.009  0.00  0.00    +0.000 C 
ATOM     16  H   UNL     1       4.100   2.112   0.013  0.00  0.00    +0.000 HD
ATOM     17  H   UNL     1       5.577   1.251   0.030  0.00  0.00    +0.000 HD
ENDBRANCH  11  15
TORSDOF 1
