REMARK  Name = 17856504
REMARK  4 active torsions:
REMARK  status: ('A' for Active; 'I' for Inactive)
REMARK    1  A    between atoms: N_2  and  C_6
REMARK    2  A    between atoms: N_4  and  C_7
REMARK    3  A    between atoms: C_6  and  C_7
REMARK    4  A    between atoms: C_10  and  C_13
REMARK                            x       y       z     vdW  Elec       q    Type
REMARK                         _______ _______ _______ _____ _____    ______ ____
ROOT
ATOM      1  N   UNL     1       2.063   0.674  -0.010  0.00  0.00    +0.000 N 
ATOM      2  N   UNL     1      -0.123   1.502   0.000  0.00  0.00    +0.000 NA
ATOM      3  C   UNL     1       0.718   0.443  -0.007  0.00  0.00    +0.000 A 
ATOM      4  C   UNL     1       0.301  -0.879  -0.012  0.00  0.00    +0.000 A 
ATOM      5  C   UNL     1      -1.963  -0.067  -0.003  0.00  0.00    +0.000 A 
ATOM      6  C   UNL     1      -1.066  -1.130  -0.010  0.00  0.00    +0.000 A 
ATOM      7  C   UNL     1      -1.445   1.218   0.002  0.00  0.00    +0.000 A 
ATOM      8  H   UNL     1       2.358   1.644  -0.008  0.00  0.00    +0.000 HD
ENDROOT
BRANCH   5  11
ATOM      9  O   UNL     1      -3.871  -1.448   0.014  0.00  0.00    +0.000 OA
ATOM     10  N   UNL     1      -4.233   0.817   0.008  0.00  0.00    +0.000 N 
ATOM     11  C   UNL     1      -3.397  -0.297   0.001  0.00  0.00    +0.000 C 
ATOM     12  H   UNL     1      -3.929   1.782   0.003  0.00  0.00    +0.000 HD
ATOM     13  H   UNL     1      -5.240   0.684   0.018  0.00  0.00    +0.000 HD
ENDBRANCH   5  11
BRANCH   1  14
ATOM     14  C   UNL     1       3.072  -0.358  -0.018  0.00  0.00    +0.000 C 
BRANCH  14  15
ATOM     15  C   UNL     1       4.456   0.278   0.016  0.00  0.00    +0.000 C 
BRANCH  15  16
ATOM     16  N   UNL     1       5.487  -0.752   0.017  0.00  0.00    +0.000 NA
ATOM     17  H   UNL     1       5.386  -1.340   0.843  0.00  0.00    +0.000 HD
ATOM     18  H   UNL     1       6.404  -0.312   0.090  0.00  0.00    +0.000 HD
ENDBRANCH  15  16
ENDBRANCH  14  15
ENDBRANCH   1  14
TORSDOF 4
