REMARK  Name = 17860847
REMARK  6 active torsions:
REMARK  status: ('A' for Active; 'I' for Inactive)
REMARK    1  A    between atoms: N_2  and  C_7
REMARK    2  A    between atoms: N_3  and  C_6
REMARK    3  A    between atoms: C_6  and  C_7
REMARK    4  A    between atoms: C_6  and  C_8
REMARK    5  A    between atoms: C_6  and  C_9
REMARK    6  A    between atoms: C_13  and  C_15
REMARK                            x       y       z     vdW  Elec       q    Type
REMARK                         _______ _______ _______ _____ _____    ______ ____
ROOT
ATOM      1  N   UNL     1       1.456  -0.475  -0.027  0.00  0.00    +0.000 N 
ATOM      2  N   UNL     1      -0.682  -1.417  -0.013  0.00  0.00    +0.000 NA
ATOM      3  C   UNL     1       0.102  -0.316  -0.016  0.00  0.00    +0.000 A 
ATOM      4  C   UNL     1      -0.384   0.982  -0.011  0.00  0.00    +0.000 A 
ATOM      5  C   UNL     1      -1.762   1.161  -0.002  0.00  0.00    +0.000 A 
ATOM      6  C   UNL     1      -2.602   0.052   0.001  0.00  0.00    +0.000 A 
ATOM      7  C   UNL     1      -2.017  -1.204  -0.005  0.00  0.00    +0.000 A 
ATOM      8  H   UNL     1       1.797  -1.429  -0.042  0.00  0.00    +0.000 HD
ENDROOT
BRANCH   6  11
ATOM      9  O   UNL     1      -4.580   1.330   0.002  0.00  0.00    +0.000 OA
ATOM     10  N   UNL     1      -4.822  -0.950   0.015  0.00  0.00    +0.000 N 
ATOM     11  C   UNL     1      -4.046   0.206   0.012  0.00  0.00    +0.000 C 
ATOM     12  H   UNL     1      -4.467  -1.898   0.018  0.00  0.00    +0.000 HD
ATOM     13  H   UNL     1      -5.834  -0.872   0.016  0.00  0.00    +0.000 HD
ENDBRANCH   6  11
BRANCH   1  14
ATOM     14  C   UNL     1       2.401   0.618  -0.032  0.00  0.00    +0.000 C 
BRANCH  14  15
ATOM     15  C   UNL     1       3.859   0.118   0.011  0.00  0.00    +0.000 C 
ATOM     16  C   UNL     1       4.128  -0.731   1.262  0.00  0.00    +0.000 C 
ATOM     17  C   UNL     1       4.218  -0.678  -1.252  0.00  0.00    +0.000 C 
BRANCH  15  18
ATOM     18  N   UNL     1       4.730   1.303   0.054  0.00  0.00    +0.000 NA
ATOM     19  H   UNL     1       5.707   1.014   0.101  0.00  0.00    +0.000 HD
ATOM     20  H   UNL     1       4.552   1.833   0.907  0.00  0.00    +0.000 HD
ENDBRANCH  15  18
ENDBRANCH  14  15
ENDBRANCH   1  14
TORSDOF 4
