REMARK  Name = 17893016
REMARK  1 active torsions:
REMARK  status: ('A' for Active; 'I' for Inactive)
REMARK    1  A    between atoms: C_9  and  C_14
REMARK                            x       y       z     vdW  Elec       q    Type
REMARK                         _______ _______ _______ _____ _____    ______ ____
ROOT
ATOM      1  N   UNL     1      -2.040   0.005  -0.001  0.00  0.00    +0.000 N 
ATOM      2  N   UNL     1      -0.010   1.179  -0.002  0.00  0.00    +0.000 NA
ATOM      3  C   UNL     1      -0.654  -0.010   0.001  0.00  0.00    +0.000 A 
ATOM      4  C   UNL     1      -0.014  -1.239   0.004  0.00  0.00    +0.000 A 
ATOM      5  C   UNL     1      -2.842  -1.107   0.000  0.00  0.00    +0.000 A 
ATOM      6  C   UNL     1      -2.819   1.133  -0.001  0.00  0.00    +0.000 A 
ATOM      7  C   UNL     1       2.075  -0.045   0.003  0.00  0.00    +0.000 A 
ATOM      8  C   UNL     1       1.377  -1.248   0.005  0.00  0.00    +0.000 A 
ATOM      9  C   UNL     1      -4.152  -0.682  -0.001  0.00  0.00    +0.000 A 
ATOM     10  C   UNL     1      -4.137   0.735  -0.001  0.00  0.00    +0.000 A 
ATOM     11  C   UNL     1       1.341   1.130  -0.001  0.00  0.00    +0.000 A 
ENDROOT
BRANCH   7  14
ATOM     12  O   UNL     1       4.213  -1.053  -0.012  0.00  0.00    +0.000 OA
ATOM     13  N   UNL     1       4.137   1.225   0.002  0.00  0.00    +0.000 N 
ATOM     14  C   UNL     1       3.526  -0.022   0.005  0.00  0.00    +0.000 C 
ATOM     15  H   UNL     1       3.663   2.119   0.009  0.00  0.00    +0.000 HD
ATOM     16  H   UNL     1       5.150   1.282  -0.005  0.00  0.00    +0.000 HD
ENDBRANCH   7  14
TORSDOF 1
