REMARK  Name = 18404634
REMARK  1 active torsions:
REMARK  status: ('A' for Active; 'I' for Inactive)
REMARK    1  A    between atoms: C_4  and  C_9
REMARK                            x       y       z     vdW  Elec       q    Type
REMARK                         _______ _______ _______ _____ _____    ______ ____
ROOT
ATOM      1  N   UNL     1      -1.254  -1.177   0.000  0.00  0.00    +0.000 NA
ATOM      2  N   UNL     1      -3.152   0.264   0.000  0.00  0.00    +0.000 N 
ATOM      3  C   UNL     1       0.965  -0.219  -0.001  0.00  0.00    +0.000 A 
ATOM      4  C   UNL     1       0.421   1.060  -0.001  0.00  0.00    +0.000 A 
ATOM      5  C   UNL     1      -0.960   1.222   0.000  0.00  0.00    +0.000 A 
ATOM      6  C   UNL     1      -1.747   0.082   0.000  0.00  0.00    +0.000 A 
ATOM      7  C   UNL     1       0.092  -1.295  -0.000  0.00  0.00    +0.000 A 
ATOM      8  H   UNL     1      -3.529   1.105   0.418  0.00  0.00    +0.000 HD
ATOM      9  H   UNL     1      -3.723  -0.572   0.006  0.00  0.00    +0.000 HD
ENDROOT
BRANCH   3  11
ATOM     10  O   UNL     1       3.232   0.485   0.001  0.00  0.00    +0.000 OA
ATOM     11  C   UNL     1       2.403  -0.422   0.000  0.00  0.00    +0.000 C 
ENDBRANCH   3  11
TORSDOF 1
