REMARK  Name = 18416298
REMARK  2 active torsions:
REMARK  status: ('A' for Active; 'I' for Inactive)
REMARK    1  A    between atoms: N_2  and  C_9
REMARK    2  A    between atoms: C_6  and  C_10
REMARK                            x       y       z     vdW  Elec       q    Type
REMARK                         _______ _______ _______ _____ _____    ______ ____
ROOT
ATOM      1  N   UNL     1       2.712   0.547  -0.001  0.00  0.00    +0.000 N 
ATOM      2  N   UNL     1       0.926  -1.029  -0.000  0.00  0.00    +0.000 NA
ATOM      3  C   UNL     1       1.324   0.263  -0.000  0.00  0.00    +0.000 A 
ATOM      4  C   UNL     1       0.456   1.343   0.000  0.00  0.00    +0.000 A 
ATOM      5  C   UNL     1      -1.358  -0.237   0.000  0.00  0.00    +0.000 A 
ATOM      6  C   UNL     1      -0.910   1.079   0.000  0.00  0.00    +0.000 A 
ATOM      7  C   UNL     1      -0.409  -1.246  -0.000  0.00  0.00    +0.000 A 
ATOM      8  C   UNL     1       3.708  -0.474   0.001  0.00  0.00    +0.000 C 
ATOM      9  H   UNL     1       2.990   1.496   0.228  0.00  0.00    +0.000 HD
ENDROOT
BRANCH   5  11
ATOM     10  O   UNL     1      -3.671   0.298   0.000  0.00  0.00    +0.000 OA
ATOM     11  C   UNL     1      -2.778  -0.545  -0.000  0.00  0.00    +0.000 C 
ENDBRANCH   5  11
TORSDOF 1
