REMARK  Name = 18422431
REMARK  0 active torsions:
REMARK  status: ('A' for Active; 'I' for Inactive)
REMARK                            x       y       z     vdW  Elec       q    Type
REMARK                         _______ _______ _______ _____ _____    ______ ____
ROOT
ATOM      1  O   UNL     1      -0.984  -2.440   0.510  0.00  0.00    +0.000 OA
ATOM      2  N   UNL     1      -0.563   1.812   0.306  0.00  0.00    +0.000 N 
ATOM      3  N   UNL     1      -2.211  -0.709  -0.287  0.00  0.00    +0.000 N 
ATOM      4  N   UNL     1       1.682   1.420   0.073  0.00  0.00    +0.000 NA
ATOM      5  C   UNL     1      -1.988   1.606   0.354  0.00  0.00    +0.000 C 
ATOM      6  C   UNL     1      -2.428   0.648  -0.729  0.00  0.00    +0.000 C 
ATOM      7  C   UNL     1       0.256  -0.508   0.022  0.00  0.00    +0.000 A 
ATOM      8  C   UNL     1       0.429   0.879   0.135  0.00  0.00    +0.000 A 
ATOM      9  C   UNL     1      -1.019  -1.276   0.104  0.00  0.00    +0.000 C 
ATOM     10  C   UNL     1       1.404  -1.307  -0.159  0.00  0.00    +0.000 A 
ATOM     11  C   UNL     1       2.669  -0.745  -0.226  0.00  0.00    +0.000 A 
ATOM     12  C   UNL     1       2.754   0.619  -0.102  0.00  0.00    +0.000 A 
ATOM     13  H   UNL     1      -0.241   2.771   0.385  0.00  0.00    +0.000 HD
ATOM     14  H   UNL     1      -3.030  -1.308  -0.243  0.00  0.00    +0.000 HD
ENDROOT
TORSDOF 0
