REMARK  Name = 18715057
REMARK  3 active torsions:
REMARK  status: ('A' for Active; 'I' for Inactive)
REMARK    1  A    between atoms: N_2  and  C_11
REMARK    2  A    between atoms: C_4  and  C_9
REMARK    3  A    between atoms: C_9  and  C_10
REMARK                            x       y       z     vdW  Elec       q    Type
REMARK                         _______ _______ _______ _____ _____    ______ ____
ROOT
ATOM      1  N   UNL     1      -3.061  -0.423  -0.040  0.00  0.00    +0.000 N 
ATOM      2  N   UNL     1      -1.148   0.985   0.145  0.00  0.00    +0.000 NA
ATOM      3  C   UNL     1       1.061   0.016  -0.020  0.00  0.00    +0.000 A 
ATOM      4  C   UNL     1      -1.654  -0.256  -0.031  0.00  0.00    +0.000 A 
ATOM      5  C   UNL     1       0.503  -1.245  -0.199  0.00  0.00    +0.000 A 
ATOM      6  C   UNL     1      -0.880  -1.392  -0.205  0.00  0.00    +0.000 A 
ATOM      7  C   UNL     1       0.200   1.089   0.145  0.00  0.00    +0.000 A 
ATOM      8  C   UNL     1      -3.967   0.666   0.131  0.00  0.00    +0.000 C 
ATOM      9  H   UNL     1      -3.421  -1.301  -0.398  0.00  0.00    +0.000 HD
ENDROOT
BRANCH   3  11
ATOM     10  O   UNL     1       3.025   1.268  -0.398  0.00  0.00    +0.000 OA
ATOM     11  C   UNL     1       2.501   0.203  -0.009  0.00  0.00    +0.000 C 
ATOM     12  C   UNL     1       3.420  -0.912   0.482  0.00  0.00    +0.000 C 
ENDBRANCH   3  11
TORSDOF 1
