REMARK  Name = 18986587
REMARK  3 active torsions:
REMARK  status: ('A' for Active; 'I' for Inactive)
REMARK    1  A    between atoms: S_1  and  N_5
REMARK    2  A    between atoms: S_1  and  C_10
REMARK    3  A    between atoms: C_11  and  C_14
REMARK                            x       y       z     vdW  Elec       q    Type
REMARK                         _______ _______ _______ _____ _____    ______ ____
ROOT
ATOM      1  N   UNL     1      -2.035   0.803  -0.643  0.00  0.00    +0.000 N 
ATOM      2  N   UNL     1      -0.233  -0.713  -0.489  0.00  0.00    +0.000 NA
ATOM      3  C   UNL     1      -0.641   0.575  -0.435  0.00  0.00    +0.000 A 
ATOM      4  C   UNL     1       0.203   1.646  -0.193  0.00  0.00    +0.000 A 
ATOM      5  C   UNL     1       2.011   0.066  -0.043  0.00  0.00    +0.000 A 
ATOM      6  C   UNL     1       1.554   1.378   0.005  0.00  0.00    +0.000 A 
ATOM      7  C   UNL     1       1.086  -0.934  -0.292  0.00  0.00    +0.000 A 
ATOM      8  H   UNL     1      -2.319   1.790  -0.690  0.00  0.00    +0.000 HD
ENDROOT
BRANCH   5  11
ATOM      9  O   UNL     1       4.251   0.647   0.399  0.00  0.00    +0.000 OA
ATOM     10  N   UNL     1       3.800  -1.581   0.096  0.00  0.00    +0.000 N 
ATOM     11  C   UNL     1       3.415  -0.244   0.159  0.00  0.00    +0.000 C 
ATOM     12  H   UNL     1       3.184  -2.363  -0.088  0.00  0.00    +0.000 HD
ATOM     13  H   UNL     1       4.775  -1.828   0.241  0.00  0.00    +0.000 HD
ENDBRANCH   5  11
BRANCH   1  14
ATOM     14  S   UNL     1      -3.155  -0.292   0.074  0.00  0.00    +0.000 S 
ATOM     15  O   UNL     1      -4.471  -0.026  -0.476  0.00  0.00    +0.000 OA
ATOM     16  O   UNL     1      -2.623  -1.639   0.092  0.00  0.00    +0.000 OA
ATOM     17  C   UNL     1      -3.162   0.316   1.746  0.00  0.00    +0.000 C 
ENDBRANCH   1  14
TORSDOF 2
