REMARK  Name = 19699139
REMARK  1 active torsions:
REMARK  status: ('A' for Active; 'I' for Inactive)
REMARK    1  A    between atoms: C_5  and  C_10
REMARK                            x       y       z     vdW  Elec       q    Type
REMARK                         _______ _______ _______ _____ _____    ______ ____
ROOT
ATOM      1  N   UNL     1       1.367  -1.233   0.001  0.00  0.00    +0.000 NA
ATOM      2  N   UNL     1       3.483  -0.137  -0.001  0.00  0.00    +0.000 N 
ATOM      3  C   UNL     1      -0.656   0.090  -0.001  0.00  0.00    +0.000 A 
ATOM      4  C   UNL     1       0.098   1.258  -0.001  0.00  0.00    +0.000 A 
ATOM      5  C   UNL     1       1.487   1.182  -0.000  0.00  0.00    +0.000 A 
ATOM      6  C   UNL     1       2.067  -0.076   0.001  0.00  0.00    +0.000 A 
ATOM      7  C   UNL     1       0.020  -1.119   0.000  0.00  0.00    +0.000 A 
ATOM      8  H   UNL     1       3.998   0.627  -0.419  0.00  0.00    +0.000 HD
ATOM      9  H   UNL     1       3.903  -1.058  -0.006  0.00  0.00    +0.000 HD
ENDROOT
BRANCH   3  12
ATOM     10 CL   UNL     1      -3.078  -1.349  -0.001  0.00  0.00    +0.000 Cl
ATOM     11  O   UNL     1      -2.681   1.247   0.001  0.00  0.00    +0.000 OA
ATOM     12  C   UNL     1      -2.108   0.136   0.001  0.00  0.00    +0.000 C 
ENDBRANCH   3  12
TORSDOF 1
