REMARK  Name = 20207489
REMARK  5 active torsions:
REMARK  status: ('A' for Active; 'I' for Inactive)
REMARK    1  A    between atoms: N_2  and  C_5
REMARK    2  A    between atoms: N_2  and  C_6
REMARK    3  A    between atoms: C_5  and  C_9
REMARK    4  A    between atoms: C_6  and  C_10
REMARK    5  A    between atoms: C_7  and  C_8
REMARK                            x       y       z     vdW  Elec       q    Type
REMARK                         _______ _______ _______ _____ _____    ______ ____
ROOT
ATOM      1  N   UNL     1      -2.346   0.751  -1.091  0.00  0.00    +0.000 NA
ATOM      2  N   UNL     1      -4.410  -0.248  -0.445  0.00  0.00    +0.000 N 
ATOM      3  C   UNL     1      -0.385   0.424   0.285  0.00  0.00    +0.000 A 
ATOM      4  C   UNL     1      -1.125  -0.353   1.168  0.00  0.00    +0.000 A 
ATOM      5  C   UNL     1      -1.036   0.949  -0.820  0.00  0.00    +0.000 A 
ATOM      6  C   UNL     1      -2.475  -0.579   0.924  0.00  0.00    +0.000 A 
ATOM      7  C   UNL     1      -3.033  -0.009  -0.210  0.00  0.00    +0.000 A 
ATOM      8  H   UNL     1      -4.818  -1.103  -0.089  0.00  0.00    +0.000 HD
ATOM      9  H   UNL     1      -4.812   0.165  -1.277  0.00  0.00    +0.000 HD
ENDROOT
BRANCH   3  12
ATOM     10  O   UNL     1       1.321   1.685   1.170  0.00  0.00    +0.000 OA
ATOM     11  N   UNL     1       1.976  -0.212  -0.028  0.00  0.00    +0.000 N 
ATOM     12  C   UNL     1       1.046   0.680   0.515  0.00  0.00    +0.000 C 
BRANCH  11  13
ATOM     13  C   UNL     1       3.398   0.029   0.172  0.00  0.00    +0.000 C 
ATOM     14  C   UNL     1       3.946   0.885  -0.954  0.00  0.00    +0.000 C 
ENDBRANCH  11  13
BRANCH  11  15
ATOM     15  C   UNL     1       1.639  -1.404  -0.804  0.00  0.00    +0.000 C 
ATOM     16  C   UNL     1       1.482  -2.599   0.117  0.00  0.00    +0.000 C 
ENDBRANCH  11  15
ENDBRANCH   3  12
TORSDOF 3
