REMARK  Name = 20207438
REMARK  4 active torsions:
REMARK  status: ('A' for Active; 'I' for Inactive)
REMARK    1  A    between atoms: N_2  and  C_13
REMARK    2  A    between atoms: C_7  and  C_12
REMARK    3  A    between atoms: C_14  and  C_15
REMARK    4  A    between atoms: C_14  and  C_16
REMARK                            x       y       z     vdW  Elec       q    Type
REMARK                         _______ _______ _______ _____ _____    ______ ____
ROOT
ATOM      1  N   UNL     1      -1.109  -0.594   0.002  0.00  0.00    +0.000 N 
ATOM      2  N   UNL     1       0.748   0.900   0.003  0.00  0.00    +0.000 NA
ATOM      3  C   UNL     1       2.993   0.004   0.002  0.00  0.00    +0.000 A 
ATOM      4  C   UNL     1       0.290  -0.373   0.003  0.00  0.00    +0.000 A 
ATOM      5  C   UNL     1       2.485  -1.291   0.002  0.00  0.00    +0.000 A 
ATOM      6  C   UNL     1       1.109  -1.491   0.002  0.00  0.00    +0.000 A 
ATOM      7  C   UNL     1       2.091   1.055   0.002  0.00  0.00    +0.000 A 
ATOM      8  H   UNL     1      -1.399  -1.565   0.003  0.00  0.00    +0.000 HD
ENDROOT
BRANCH   3  11
ATOM      9  O   UNL     1       5.243  -0.692  -0.013  0.00  0.00    +0.000 OA
ATOM     10  N   UNL     1       4.860   1.569   0.002  0.00  0.00    +0.000 N 
ATOM     11  C   UNL     1       4.425   0.246   0.003  0.00  0.00    +0.000 C 
ATOM     12  H   UNL     1       4.262   2.385   0.009  0.00  0.00    +0.000 HD
ATOM     13  H   UNL     1       5.856   1.767  -0.004  0.00  0.00    +0.000 HD
ENDBRANCH   3  11
BRANCH   1  14
ATOM     14  C   UNL     1      -2.080   0.332   0.001  0.00  0.00    +0.000 C 
ATOM     15  C   UNL     1      -3.414   0.173  -0.001  0.00  0.00    +0.000 C 
BRANCH  15  17
ATOM     16  N   UNL     1      -4.995   2.221  -0.003  0.00  0.00    +0.000 NA
ATOM     17  C   UNL     1      -4.285   1.303  -0.002  0.00  0.00    +0.000 C 
ENDBRANCH  15  17
BRANCH  15  19
ATOM     18  N   UNL     1      -4.402  -2.218  -0.000  0.00  0.00    +0.000 NA
ATOM     19  C   UNL     1      -3.958  -1.145  -0.001  0.00  0.00    +0.000 C 
ENDBRANCH  15  19
ENDBRANCH   1  14
TORSDOF 4
