REMARK  Name = 20215042
REMARK  5 active torsions:
REMARK  status: ('A' for Active; 'I' for Inactive)
REMARK    1  A    between atoms: N_2  and  C_6
REMARK    2  A    between atoms: C_5  and  C_6
REMARK    3  A    between atoms: C_5  and  C_7
REMARK    4  A    between atoms: C_7  and  C_8
REMARK    5  A    between atoms: C_9  and  C_10
REMARK                            x       y       z     vdW  Elec       q    Type
REMARK                         _______ _______ _______ _____ _____    ______ ____
ROOT
ATOM      1  N   UNL     1       2.598   0.835  -1.048  0.00  0.00    +0.000 NA
ATOM      2  N   UNL     1       4.666   1.168   0.087  0.00  0.00    +0.000 N 
ATOM      3  C   UNL     1       0.875  -0.507  -0.009  0.00  0.00    +0.000 A 
ATOM      4  C   UNL     1       1.696  -0.723   1.092  0.00  0.00    +0.000 A 
ATOM      5  C   UNL     1       1.368   0.273  -1.044  0.00  0.00    +0.000 A 
ATOM      6  C   UNL     1       2.968  -0.161   1.124  0.00  0.00    +0.000 A 
ATOM      7  C   UNL     1       3.368   0.603   0.039  0.00  0.00    +0.000 A 
ATOM      8  H   UNL     1       4.952   1.730  -0.705  0.00  0.00    +0.000 HD
ATOM      9  H   UNL     1       5.067   1.377   0.993  0.00  0.00    +0.000 HD
ENDROOT
BRANCH   3  12
ATOM     10  O   UNL     1      -0.733  -2.115   0.560  0.00  0.00    +0.000 OA
ATOM     11  N   UNL     1      -1.415  -0.404  -0.850  0.00  0.00    +0.000 N 
ATOM     12  C   UNL     1      -0.489  -1.092  -0.074  0.00  0.00    +0.000 C 
ATOM     13  H   UNL     1      -1.160   0.467  -1.302  0.00  0.00    +0.000 HD
BRANCH  11  14
ATOM     14  C   UNL     1      -2.779  -0.831  -0.991  0.00  0.00    +0.000 C 
BRANCH  14  15
ATOM     15  C   UNL     1      -3.691  -0.225   0.071  0.00  0.00    +0.000 C 
BRANCH  15  16
ATOM     16  C   UNL     1      -3.735   1.303   0.006  0.00  0.00    +0.000 C 
ATOM     17  C   UNL     1      -4.697   1.875   1.036  0.00  0.00    +0.000 C 
ENDBRANCH  15  16
ENDBRANCH  14  15
ENDBRANCH  11  14
ENDBRANCH   3  12
TORSDOF 4
