REMARK  Name = 20215012
REMARK  2 active torsions:
REMARK  status: ('A' for Active; 'I' for Inactive)
REMARK    1  A    between atoms: N_2  and  C_11
REMARK    2  A    between atoms: C_5  and  C_7
REMARK                            x       y       z     vdW  Elec       q    Type
REMARK                         _______ _______ _______ _____ _____    ______ ____
ROOT
ATOM      1  N   UNL     1      -1.917   1.111   0.233  0.00  0.00    +0.000 NA
ATOM      2  N   UNL     1      -3.836  -0.292   0.081  0.00  0.00    +0.000 N 
ATOM      3  C   UNL     1       0.283   0.151  -0.057  0.00  0.00    +0.000 A 
ATOM      4  C   UNL     1      -0.282  -1.103  -0.255  0.00  0.00    +0.000 A 
ATOM      5  C   UNL     1      -0.570   1.217   0.181  0.00  0.00    +0.000 A 
ATOM      6  C   UNL     1      -1.664  -1.252  -0.208  0.00  0.00    +0.000 A 
ATOM      7  C   UNL     1      -2.430  -0.124   0.037  0.00  0.00    +0.000 A 
ATOM      8  H   UNL     1      -4.249  -1.042  -0.458  0.00  0.00    +0.000 HD
ATOM      9  H   UNL     1      -4.392   0.536   0.255  0.00  0.00    +0.000 HD
ENDROOT
BRANCH   3  12
ATOM     10  O   UNL     1       2.208   1.444  -0.404  0.00  0.00    +0.000 OA
ATOM     11  N   UNL     1       2.520  -0.763   0.233  0.00  0.00    +0.000 N 
ATOM     12  C   UNL     1       1.723   0.339  -0.101  0.00  0.00    +0.000 C 
ATOM     13  C   UNL     1       3.964  -0.728   0.259  0.00  0.00    +0.000 C 
ATOM     14  H   UNL     1       2.086  -1.622   0.554  0.00  0.00    +0.000 HD
ENDBRANCH   3  12
TORSDOF 1
