REMARK  Name = 20215035
REMARK  1 active torsions:
REMARK  status: ('A' for Active; 'I' for Inactive)
REMARK    1  A    between atoms: C_10  and  C_11
REMARK                            x       y       z     vdW  Elec       q    Type
REMARK                         _______ _______ _______ _____ _____    ______ ____
ROOT
ATOM      1  N   UNL     1      -2.846   0.178  -1.109  0.00  0.00    +0.000 NA
ATOM      2  N   UNL     1      -4.592  -1.046  -0.045  0.00  0.00    +0.000 N 
ATOM      3  C   UNL     1      -0.804   0.631   0.103  0.00  0.00    +0.000 A 
ATOM      4  C   UNL     1      -1.305  -0.040   1.213  0.00  0.00    +0.000 A 
ATOM      5  C   UNL     1      -1.607   0.711  -1.023  0.00  0.00    +0.000 A 
ATOM      6  C   UNL     1      -2.575  -0.602   1.164  0.00  0.00    +0.000 A 
ATOM      7  C   UNL     1      -3.299  -0.467  -0.010  0.00  0.00    +0.000 A 
ATOM      8  H   UNL     1      -4.774  -1.853   0.539  0.00  0.00    +0.000 HD
ATOM      9  H   UNL     1      -5.114  -0.951  -0.907  0.00  0.00    +0.000 HD
ENDROOT
BRANCH   3  17
ATOM     10  O   UNL     1       0.593   2.408   0.498  0.00  0.00    +0.000 OA
ATOM     11  N   UNL     1       1.617   0.456  -0.284  0.00  0.00    +0.000 N 
ATOM     12  C   UNL     1       3.723  -1.499  -0.008  0.00  0.00    +0.000 C 
ATOM     13  C   UNL     1       3.909  -0.054   0.455  0.00  0.00    +0.000 C 
ATOM     14  C   UNL     1       2.248  -1.901   0.020  0.00  0.00    +0.000 C 
ATOM     15  C   UNL     1       3.017   0.897  -0.339  0.00  0.00    +0.000 C 
ATOM     16  C   UNL     1       1.387  -0.909  -0.758  0.00  0.00    +0.000 C 
ATOM     17  C   UNL     1       0.533   1.237   0.124  0.00  0.00    +0.000 C 
ENDBRANCH   3  17
TORSDOF 1
