REMARK  Name = 20215021
REMARK  7 active torsions:
REMARK  status: ('A' for Active; 'I' for Inactive)
REMARK    1  A    between atoms: N_2  and  C_5
REMARK    2  A    between atoms: N_2  and  C_6
REMARK    3  A    between atoms: C_5  and  C_7
REMARK    4  A    between atoms: C_5  and  C_8
REMARK    5  A    between atoms: C_6  and  C_9
REMARK    6  A    between atoms: C_6  and  C_10
REMARK    7  A    between atoms: C_11  and  C_12
REMARK                            x       y       z     vdW  Elec       q    Type
REMARK                         _______ _______ _______ _____ _____    ______ ____
ROOT
ATOM      1  O   UNL     1      -0.901  -2.109   0.023  0.00  0.00    +0.000 OA
ATOM      2  N   UNL     1      -1.585   0.127   0.002  0.00  0.00    +0.000 N 
ATOM      3  C   UNL     1      -0.637  -0.907   0.024  0.00  0.00    +0.000 C 
ENDROOT
BRANCH   3   6
ATOM      4  N   UNL     1       2.809  -0.079  -1.211  0.00  0.00    +0.000 NA
ATOM      5  N   UNL     1       4.817   0.434  -0.035  0.00  0.00    +0.000 N 
ATOM      6  C   UNL     1       0.792  -0.555   0.034  0.00  0.00    +0.000 A 
ATOM      7  C   UNL     1       1.476  -0.368   1.230  0.00  0.00    +0.000 A 
ATOM      8  C   UNL     1       1.498  -0.400  -1.149  0.00  0.00    +0.000 A 
ATOM      9  C   UNL     1       2.827  -0.036   1.207  0.00  0.00    +0.000 A 
ATOM     10  C   UNL     1       3.442   0.095  -0.028  0.00  0.00    +0.000 A 
ATOM     11  H   UNL     1       5.186   0.968   0.743  0.00  0.00    +0.000 HD
ATOM     12  H   UNL     1       5.261   0.536  -0.939  0.00  0.00    +0.000 HD
ENDBRANCH   3   6
BRANCH   2  13
ATOM     13  C   UNL     1      -2.995  -0.195  -0.026  0.00  0.00    +0.000 C 
ATOM     14  C   UNL     1      -3.356  -0.980   1.228  0.00  0.00    +0.000 C 
ATOM     15  C   UNL     1      -3.312  -0.988  -1.288  0.00  0.00    +0.000 C 
ENDBRANCH   2  13
BRANCH   2  16
ATOM     16  C   UNL     1      -1.251   1.554   0.005  0.00  0.00    +0.000 C 
ATOM     17  C   UNL     1      -1.840   2.204   1.250  0.00  0.00    +0.000 C 
ATOM     18  C   UNL     1      -1.784   2.204  -1.265  0.00  0.00    +0.000 C 
ENDBRANCH   2  16
TORSDOF 3
