REMARK  Name = 20215045
REMARK  2 active torsions:
REMARK  status: ('A' for Active; 'I' for Inactive)
REMARK    1  A    between atoms: N_2  and  C_5
REMARK    2  A    between atoms: C_6  and  C_7
REMARK                            x       y       z     vdW  Elec       q    Type
REMARK                         _______ _______ _______ _____ _____    ______ ____
ROOT
ATOM      1  O   UNL     1      -0.181  -1.880   0.282  0.00  0.00    +0.000 OA
ATOM      2  N   UNL     1      -0.837   0.349  -0.075  0.00  0.00    +0.000 N 
ATOM      3  C   UNL     1       0.080  -0.698   0.091  0.00  0.00    +0.000 C 
ATOM      4  H   UNL     1      -0.470   1.279  -0.261  0.00  0.00    +0.000 HD
ENDROOT
BRANCH   3   7
ATOM      5  N   UNL     1       3.809  -0.905  -0.405  0.00  0.00    +0.000 NA
ATOM      6  N   UNL     1       5.530   0.711  -0.084  0.00  0.00    +0.000 N 
ATOM      7  C   UNL     1       1.512  -0.303   0.052  0.00  0.00    +0.000 A 
ATOM      8  C   UNL     1       1.913   0.978   0.418  0.00  0.00    +0.000 A 
ATOM      9  C   UNL     1       2.490  -1.199  -0.348  0.00  0.00    +0.000 A 
ATOM     10  C   UNL     1       3.261   1.317   0.372  0.00  0.00    +0.000 A 
ATOM     11  C   UNL     1       4.161   0.348  -0.042  0.00  0.00    +0.000 A 
ATOM     12  H   UNL     1       5.767   1.682  -0.241  0.00  0.00    +0.000 HD
ATOM     13  H   UNL     1       6.183   0.002  -0.394  0.00  0.00    +0.000 HD
ENDBRANCH   3   7
BRANCH   2  14
ATOM     14  C   UNL     1      -2.230   0.281  -0.060  0.00  0.00    +0.000 A 
ATOM     15  C   UNL     1      -2.866  -0.944   0.140  0.00  0.00    +0.000 A 
ATOM     16  C   UNL     1      -2.987   1.439  -0.243  0.00  0.00    +0.000 A 
ATOM     17  C   UNL     1      -4.260  -1.012   0.155  0.00  0.00    +0.000 A 
ATOM     18  C   UNL     1      -4.380   1.371  -0.227  0.00  0.00    +0.000 A 
ATOM     19  C   UNL     1      -5.016   0.146  -0.028  0.00  0.00    +0.000 A 
ENDBRANCH   2  14
TORSDOF 2
