REMARK  Name = 20321197
REMARK  3 active torsions:
REMARK  status: ('A' for Active; 'I' for Inactive)
REMARK    1  A    between atoms: N_4  and  C_13
REMARK    2  A    between atoms: N_6  and  C_8
REMARK    3  A    between atoms: C_7  and  C_10
REMARK                            x       y       z     vdW  Elec       q    Type
REMARK                         _______ _______ _______ _____ _____    ______ ____
ROOT
ATOM      1  N   UNL     1       2.273  -0.247  -0.228  0.00  0.00    +0.000 NA
ATOM      2  C   UNL     1       0.025   0.553   0.159  0.00  0.00    +0.000 A 
ATOM      3  C   UNL     1       0.947  -0.456  -0.070  0.00  0.00    +0.000 A 
ATOM      4  C   UNL     1       0.494   1.860   0.228  0.00  0.00    +0.000 A 
ATOM      5  C   UNL     1       1.852   2.114   0.070  0.00  0.00    +0.000 A 
ATOM      6  C   UNL     1       2.692   1.036  -0.154  0.00  0.00    +0.000 A 
ENDROOT
BRANCH   2   9
ATOM      7  O   UNL     1      -1.812  -0.398   1.263  0.00  0.00    +0.000 OA
ATOM      8  N   UNL     1      -2.261   0.924  -0.588  0.00  0.00    +0.000 N 
ATOM      9  C   UNL     1      -1.402   0.309   0.328  0.00  0.00    +0.000 C 
ATOM     10  C   UNL     1      -3.700   0.799  -0.538  0.00  0.00    +0.000 C 
ATOM     11  H   UNL     1      -1.863   1.470  -1.347  0.00  0.00    +0.000 HD
ENDBRANCH   2   9
BRANCH   3  14
ATOM     12  O   UNL     1       0.373  -2.460   0.916  0.00  0.00    +0.000 OA
ATOM     13  O   UNL     1       0.081  -2.239  -1.248  0.00  0.00    +0.000 OA
ATOM     14  N   UNL     1       0.438  -1.794  -0.138  0.00  0.00    +0.000 N 
ENDBRANCH   3  14
TORSDOF 2
