REMARK  Name = 20321194
REMARK  1 active torsions:
REMARK  status: ('A' for Active; 'I' for Inactive)
REMARK    1  A    between atoms: C_7  and  C_12
REMARK                            x       y       z     vdW  Elec       q    Type
REMARK                         _______ _______ _______ _____ _____    ______ ____
ROOT
ATOM      1  O   UNL     1      -3.374  -1.095  -0.000  0.00  0.00    +0.000 OA
ATOM      2  O   UNL     1      -3.413   1.100  -0.004  0.00  0.00    +0.000 OA
ATOM      3  N   UNL     1      -0.704   1.216  -0.001  0.00  0.00    +0.000 NA
ATOM      4  N   UNL     1      -2.796   0.013  -0.001  0.00  0.00    +0.000 N 
ATOM      5  C   UNL     1       1.362  -0.040   0.003  0.00  0.00    +0.000 A 
ATOM      6  C   UNL     1       0.646  -1.232   0.005  0.00  0.00    +0.000 A 
ATOM      7  C   UNL     1      -0.745  -1.201   0.003  0.00  0.00    +0.000 A 
ATOM      8  C   UNL     1      -1.366   0.038   0.001  0.00  0.00    +0.000 A 
ATOM      9  C   UNL     1       0.646   1.147   0.000  0.00  0.00    +0.000 A 
ENDROOT
BRANCH   5  12
ATOM     10  O   UNL     1       3.465  -1.099  -0.011  0.00  0.00    +0.000 OA
ATOM     11  N   UNL     1       3.463   1.194   0.002  0.00  0.00    +0.000 N 
ATOM     12  C   UNL     1       2.814  -0.039   0.004  0.00  0.00    +0.000 C 
ATOM     13  H   UNL     1       3.008   2.098   0.009  0.00  0.00    +0.000 HD
ATOM     14  H   UNL     1       4.478   1.224  -0.005  0.00  0.00    +0.000 HD
ENDBRANCH   5  12
TORSDOF 1
