REMARK  Name = 20321081
REMARK  2 active torsions:
REMARK  status: ('A' for Active; 'I' for Inactive)
REMARK    1  A    between atoms: N_4  and  C_13
REMARK    2  A    between atoms: C_7  and  C_9
REMARK                            x       y       z     vdW  Elec       q    Type
REMARK                         _______ _______ _______ _____ _____    ______ ____
ROOT
ATOM      1  O   UNL     1      -3.650  -1.290  -0.105  0.00  0.00    +0.000 OA
ATOM      2  O   UNL     1      -3.877   0.870   0.219  0.00  0.00    +0.000 OA
ATOM      3  N   UNL     1      -1.190   1.231   0.165  0.00  0.00    +0.000 NA
ATOM      4  N   UNL     1      -3.169  -0.145   0.043  0.00  0.00    +0.000 N 
ATOM      5  C   UNL     1       0.974   0.180  -0.072  0.00  0.00    +0.000 A 
ATOM      6  C   UNL     1       0.364  -1.059  -0.229  0.00  0.00    +0.000 A 
ATOM      7  C   UNL     1      -1.023  -1.155  -0.189  0.00  0.00    +0.000 A 
ATOM      8  C   UNL     1       0.160   1.285   0.120  0.00  0.00    +0.000 A 
ATOM      9  C   UNL     1      -1.748   0.009   0.009  0.00  0.00    +0.000 A 
ENDROOT
BRANCH   5  12
ATOM     10  O   UNL     1       2.949   1.389  -0.442  0.00  0.00    +0.000 OA
ATOM     11  N   UNL     1       3.172  -0.805   0.273  0.00  0.00    +0.000 N 
ATOM     12  C   UNL     1       2.420   0.314  -0.107  0.00  0.00    +0.000 C 
ATOM     13  C   UNL     1       4.617  -0.822   0.314  0.00  0.00    +0.000 C 
ATOM     14  H   UNL     1       2.704  -1.636   0.618  0.00  0.00    +0.000 HD
ENDBRANCH   5  12
TORSDOF 1
