REMARK  Name = 20321104
REMARK  2 active torsions:
REMARK  status: ('A' for Active; 'I' for Inactive)
REMARK    1  A    between atoms: O_2  and  N_7
REMARK    2  A    between atoms: C_8  and  C_13
REMARK                            x       y       z     vdW  Elec       q    Type
REMARK                         _______ _______ _______ _____ _____    ______ ____
ROOT
ATOM      1  O   UNL     1      -3.659  -1.265   0.104  0.00  0.00    +0.000 OA
ATOM      2  O   UNL     1      -3.865   0.900  -0.198  0.00  0.00    +0.000 OA
ATOM      3  N   UNL     1      -1.174   1.231  -0.157  0.00  0.00    +0.000 NA
ATOM      4  N   UNL     1      -3.167  -0.125  -0.036  0.00  0.00    +0.000 N 
ATOM      5  C   UNL     1       0.980   0.155   0.060  0.00  0.00    +0.000 A 
ATOM      6  C   UNL     1       0.357  -1.079   0.209  0.00  0.00    +0.000 A 
ATOM      7  C   UNL     1      -1.031  -1.160   0.175  0.00  0.00    +0.000 A 
ATOM      8  C   UNL     1      -1.744   0.014  -0.009  0.00  0.00    +0.000 A 
ATOM      9  C   UNL     1       0.177   1.270  -0.119  0.00  0.00    +0.000 A 
ENDROOT
BRANCH   5  12
ATOM     10  O   UNL     1       2.973   1.335   0.449  0.00  0.00    +0.000 OA
ATOM     11  N   UNL     1       3.164  -0.838  -0.297  0.00  0.00    +0.000 N 
ATOM     12  C   UNL     1       2.428   0.273   0.094  0.00  0.00    +0.000 C 
ATOM     13  H   UNL     1       2.795  -1.698  -0.685  0.00  0.00    +0.000 HD
BRANCH  11  14
ATOM     14  O   UNL     1       4.561  -0.712  -0.275  0.00  0.00    +0.000 OA
ATOM     15  H   UNL     1       4.794  -1.218  -1.071  0.00  0.00    +0.000 HD
ENDBRANCH  11  14
ENDBRANCH   5  12
TORSDOF 2
