REMARK  Name = 20339465
REMARK  6 active torsions:
REMARK  status: ('A' for Active; 'I' for Inactive)
REMARK    1  A    between atoms: N_2  and  C_6
REMARK    2  A    between atoms: N_2  and  C_9
REMARK    3  A    between atoms: N_2  and  C_10
REMARK    4  A    between atoms: N_3  and  C_7
REMARK    5  A    between atoms: C_6  and  C_7
REMARK    6  A    between atoms: C_13  and  C_15
REMARK                            x       y       z     vdW  Elec       q    Type
REMARK                         _______ _______ _______ _____ _____    ______ ____
ROOT
ATOM      1  N   UNL     1       1.210   0.860  -0.036  0.00  0.00    +0.000 N 
ATOM      2  N   UNL     1      -1.035   1.558  -0.185  0.00  0.00    +0.000 NA
ATOM      3  C   UNL     1      -0.142   0.556  -0.022  0.00  0.00    +0.000 A 
ATOM      4  C   UNL     1      -0.491  -0.773   0.159  0.00  0.00    +0.000 A 
ATOM      5  C   UNL     1      -1.844  -1.094   0.175  0.00  0.00    +0.000 A 
ATOM      6  C   UNL     1      -2.793  -0.090   0.011  0.00  0.00    +0.000 A 
ATOM      7  C   UNL     1      -2.340   1.207  -0.164  0.00  0.00    +0.000 A 
ATOM      8  H   UNL     1       1.456   1.834  -0.169  0.00  0.00    +0.000 HD
ENDROOT
BRANCH   6  11
ATOM      9  O   UNL     1      -4.628  -1.554   0.198  0.00  0.00    +0.000 OA
ATOM     10  N   UNL     1      -5.104   0.662  -0.147  0.00  0.00    +0.000 N 
ATOM     11  C   UNL     1      -4.213  -0.394   0.024  0.00  0.00    +0.000 C 
ATOM     12  H   UNL     1      -6.103   0.479  -0.135  0.00  0.00    +0.000 HD
ATOM     13  H   UNL     1      -4.849   1.631  -0.289  0.00  0.00    +0.000 HD
ENDBRANCH   6  11
BRANCH   1  14
ATOM     14  C   UNL     1       2.255  -0.123   0.127  0.00  0.00    +0.000 C 
BRANCH  14  15
ATOM     15  C   UNL     1       3.615   0.554   0.026  0.00  0.00    +0.000 C 
BRANCH  15  16
ATOM     16  N   UNL     1       4.686  -0.424   0.217  0.00  0.00    +0.000 NA
ATOM     17  C   UNL     1       5.920   0.244   0.629  0.00  0.00    +0.000 C 
ATOM     18  C   UNL     1       4.904  -1.188  -1.011  0.00  0.00    +0.000 C 
ENDBRANCH  15  16
ENDBRANCH  14  15
ENDBRANCH   1  14
TORSDOF 4
