REMARK  Name = 20357813
REMARK  2 active torsions:
REMARK  status: ('A' for Active; 'I' for Inactive)
REMARK    1  A    between atoms: N_3  and  C_6
REMARK    2  A    between atoms: C_5  and  C_10
REMARK                            x       y       z     vdW  Elec       q    Type
REMARK                         _______ _______ _______ _____ _____    ______ ____
ROOT
ATOM      1  N   UNL     1      -1.785   0.943   0.000  0.00  0.00    +0.000 N 
ATOM      2  C   UNL     1       0.275  -0.216  -0.002  0.00  0.00    +0.000 A 
ATOM      3  C   UNL     1      -0.445   0.970  -0.002  0.00  0.00    +0.000 A 
ATOM      4  C   UNL     1      -0.419  -1.422   0.000  0.00  0.00    +0.000 A 
ATOM      5  C   UNL     1      -1.811  -1.421   0.002  0.00  0.00    +0.000 A 
ATOM      6  C   UNL     1      -2.479  -0.204   0.002  0.00  0.00    +0.000 A 
ATOM      7  H   UNL     1      -2.294   1.826  -0.000  0.00  0.00    +0.000 HD
ENDROOT
BRANCH   2  10
ATOM      8  O   UNL     1       2.388   0.824   0.011  0.00  0.00    +0.000 OA
ATOM      9  N   UNL     1       2.364  -1.469  -0.004  0.00  0.00    +0.000 N 
ATOM     10  C   UNL     1       1.731  -0.231  -0.004  0.00  0.00    +0.000 C 
ATOM     11  H   UNL     1       1.911  -2.373  -0.011  0.00  0.00    +0.000 HD
ATOM     12  H   UNL     1       3.379  -1.505   0.002  0.00  0.00    +0.000 HD
ENDBRANCH   2  10
BRANCH   3  13
ATOM     13  N   UNL     1       0.181   2.225  -0.004  0.00  0.00    +0.000 N 
ATOM     14  H   UNL     1       1.094   2.312  -0.432  0.00  0.00    +0.000 HD
ATOM     15  H   UNL     1      -0.405   3.050   0.007  0.00  0.00    +0.000 HD
ENDBRANCH   3  13
TORSDOF 2
