REMARK  Name = 20474887
REMARK  2 active torsions:
REMARK  status: ('A' for Active; 'I' for Inactive)
REMARK    1  A    between atoms: N_3  and  C_7
REMARK    2  A    between atoms: C_6  and  C_11
REMARK                            x       y       z     vdW  Elec       q    Type
REMARK                         _______ _______ _______ _____ _____    ______ ____
ROOT
ATOM      1  N   UNL     1       1.431  -1.052  -0.007  0.00  0.00    +0.000 NA
ATOM      2  N   UNL     1       3.527   0.080  -0.027  0.00  0.00    +0.000 N 
ATOM      3  C   UNL     1      -0.615   0.235   0.024  0.00  0.00    +0.000 A 
ATOM      4  C   UNL     1       0.082  -0.962   0.010  0.00  0.00    +0.000 A 
ATOM      5  C   UNL     1       0.119   1.416   0.021  0.00  0.00    +0.000 A 
ATOM      6  C   UNL     1       1.508   1.364   0.004  0.00  0.00    +0.000 A 
ATOM      7  C   UNL     1       2.111   0.116  -0.009  0.00  0.00    +0.000 A 
ATOM      8  H   UNL     1       4.024   0.855  -0.448  0.00  0.00    +0.000 HD
ATOM      9  H   UNL     1       3.963  -0.834  -0.042  0.00  0.00    +0.000 HD
ENDROOT
BRANCH   3  12
ATOM     10  O   UNL     1      -2.702   0.341   1.111  0.00  0.00    +0.000 OA
ATOM     11  N   UNL     1      -2.730   0.334  -1.182  0.00  0.00    +0.000 N 
ATOM     12  C   UNL     1      -2.070   0.300   0.042  0.00  0.00    +0.000 C 
ATOM     13  H   UNL     1      -2.230   0.309  -2.065  0.00  0.00    +0.000 HD
ATOM     14  H   UNL     1      -3.742   0.386  -1.228  0.00  0.00    +0.000 HD
ENDBRANCH   3  12
BRANCH   4  15
ATOM     15  N   UNL     1      -0.660  -2.170   0.014  0.00  0.00    +0.000 N 
ATOM     16  H   UNL     1      -1.569  -2.182  -0.432  0.00  0.00    +0.000 HD
ATOM     17  H   UNL     1      -0.124  -3.030   0.007  0.00  0.00    +0.000 HD
ENDBRANCH   4  15
TORSDOF 2
