REMARK  Name = 20499060
REMARK  9 active torsions:
REMARK  status: ('A' for Active; 'I' for Inactive)
REMARK    1  A    between atoms: SI_1  and  N_4
REMARK    2  A    between atoms: SI_1  and  C_7
REMARK    3  A    between atoms: SI_1  and  C_8
REMARK    4  A    between atoms: SI_1  and  C_9
REMARK    5  A    between atoms: SI_2  and  N_4
REMARK    6  A    between atoms: SI_2  and  C_10
REMARK    7  A    between atoms: SI_2  and  C_11
REMARK    8  A    between atoms: SI_2  and  C_12
REMARK    9  A    between atoms: C_13  and  C_14
REMARK                            x       y       z     vdW  Elec       q    Type
REMARK                         _______ _______ _______ _____ _____    ______ ____
ROOT
ATOM      1  O   UNL     1      -0.455  -2.169  -0.946  0.00  0.00    +0.000 OA
ATOM      2  N   UNL     1      -1.323  -0.140  -0.137  0.00  0.00    +0.000 N 
ATOM      3  C   UNL     1      -0.302  -1.067  -0.412  0.00  0.00    +0.000 C 
ENDROOT
BRANCH   3   6
ATOM      4  N   UNL     1       3.345  -0.368  -0.995  0.00  0.00    +0.000 NA
ATOM      5  N   UNL     1       5.075   0.299   0.502  0.00  0.00    +0.000 N 
ATOM      6  C   UNL     1       1.106  -0.704  -0.148  0.00  0.00    +0.000 A 
ATOM      7  C   UNL     1       1.531  -0.368   1.133  0.00  0.00    +0.000 A 
ATOM      8  C   UNL     1       2.043  -0.689  -1.168  0.00  0.00    +0.000 A 
ATOM      9  C   UNL     1       2.863  -0.032   1.351  0.00  0.00    +0.000 A 
ATOM     10  C   UNL     1       3.722  -0.047   0.264  0.00  0.00    +0.000 A 
ATOM     11  H   UNL     1       5.285   0.926   1.268  0.00  0.00    +0.000 HD
ATOM     12  H   UNL     1       5.698   0.293  -0.297  0.00  0.00    +0.000 HD
ENDBRANCH   3   6
BRANCH   2  13
ATOM     13 SI   UNL     1      -2.976  -0.688   0.337  0.00  0.00    +0.000 Si
ATOM     14  C   UNL     1      -3.045  -2.558   0.384  0.00  0.00    +0.000 C 
ATOM     15  C   UNL     1      -4.234  -0.084  -0.949  0.00  0.00    +0.000 C 
ATOM     16  C   UNL     1      -3.564   0.034   1.968  0.00  0.00    +0.000 C 
ENDBRANCH   2  13
BRANCH   2  17
ATOM     17 SI   UNL     1      -1.025   1.626  -0.247  0.00  0.00    +0.000 Si
ATOM     18  C   UNL     1       0.292   2.053  -1.533  0.00  0.00    +0.000 C 
ATOM     19  C   UNL     1      -0.506   2.312   1.420  0.00  0.00    +0.000 C 
ATOM     20  C   UNL     1      -2.546   2.590  -0.822  0.00  0.00    +0.000 C 
ENDBRANCH   2  17
TORSDOF 3
