REMARK  Name = 20499059
REMARK  15 active torsions:
REMARK  status: ('A' for Active; 'I' for Inactive)
REMARK    1  A    between atoms: SI_1  and  N_4
REMARK    2  A    between atoms: SI_1  and  C_7
REMARK    3  A    between atoms: SI_1  and  C_8
REMARK    4  A    between atoms: SI_1  and  C_9
REMARK    5  A    between atoms: SI_2  and  N_4
REMARK    6  A    between atoms: SI_2  and  C_10
REMARK    7  A    between atoms: SI_2  and  C_11
REMARK    8  A    between atoms: SI_2  and  C_12
REMARK    9  A    between atoms: C_7  and  C_14
REMARK   10  A    between atoms: C_8  and  C_15
REMARK   11  A    between atoms: C_9  and  C_16
REMARK   12  A    between atoms: C_10  and  C_17
REMARK   13  A    between atoms: C_11  and  C_18
REMARK   14  A    between atoms: C_12  and  C_19
REMARK   15  A    between atoms: C_13  and  C_20
REMARK                            x       y       z     vdW  Elec       q    Type
REMARK                         _______ _______ _______ _____ _____    ______ ____
ROOT
ATOM      1  O   UNL     1       0.189  -2.186   1.316  0.00  0.00    +0.000 OA
ATOM      2  N   UNL     1       0.796  -0.227   0.168  0.00  0.00    +0.000 N 
ATOM      3  C   UNL     1      -0.102  -1.212   0.617  0.00  0.00    +0.000 C 
ENDROOT
BRANCH   3   6
ATOM      4  N   UNL     1      -3.323  -0.871  -1.292  0.00  0.00    +0.000 NA
ATOM      5  N   UNL     1      -5.577  -0.669  -0.545  0.00  0.00    +0.000 N 
ATOM      6  C   UNL     1      -1.546  -1.069   0.335  0.00  0.00    +0.000 A 
ATOM      7  C   UNL     1      -2.474  -0.998   1.369  0.00  0.00    +0.000 A 
ATOM      8  C   UNL     1      -2.018  -1.001  -0.966  0.00  0.00    +0.000 A 
ATOM      9  C   UNL     1      -3.826  -0.865   1.073  0.00  0.00    +0.000 A 
ATOM     10  C   UNL     1      -4.196  -0.806  -0.261  0.00  0.00    +0.000 A 
ATOM     11  H   UNL     1      -5.843  -0.633  -1.522  0.00  0.00    +0.000 HD
ATOM     12  H   UNL     1      -6.245  -1.038   0.120  0.00  0.00    +0.000 HD
ENDBRANCH   3   6
BRANCH   2  13
ATOM     13 SI   UNL     1       0.284   1.484   0.000  0.00  0.00    +0.000 Si
BRANCH  13  14
ATOM     14  C   UNL     1       1.680   2.704   0.371  0.00  0.00    +0.000 C 
ATOM     15  C   UNL     1       1.328   4.177   0.206  0.00  0.00    +0.000 C 
ENDBRANCH  13  14
BRANCH  13  16
ATOM     16  C   UNL     1      -0.327   1.822  -1.741  0.00  0.00    +0.000 C 
ATOM     17  C   UNL     1      -0.699   3.269  -2.039  0.00  0.00    +0.000 C 
ENDBRANCH  13  16
BRANCH  13  18
ATOM     18  C   UNL     1      -1.066   1.955   1.236  0.00  0.00    +0.000 C 
ATOM     19  C   UNL     1      -0.720   1.738   2.703  0.00  0.00    +0.000 C 
ENDBRANCH  13  18
ENDBRANCH   2  13
BRANCH   2  20
ATOM     20 SI   UNL     1       2.500  -0.643  -0.257  0.00  0.00    +0.000 Si
BRANCH  20  21
ATOM     21  C   UNL     1       3.769   0.167   0.864  0.00  0.00    +0.000 C 
ATOM     22  C   UNL     1       3.601  -0.104   2.353  0.00  0.00    +0.000 C 
ENDBRANCH  20  21
BRANCH  20  23
ATOM     23  C   UNL     1       2.767  -2.508  -0.033  0.00  0.00    +0.000 C 
ATOM     24  C   UNL     1       4.166  -3.016  -0.359  0.00  0.00    +0.000 C 
ENDBRANCH  20  23
BRANCH  20  25
ATOM     25  C   UNL     1       2.838  -0.218  -2.048  0.00  0.00    +0.000 C 
ATOM     26  C   UNL     1       1.955  -0.923  -3.070  0.00  0.00    +0.000 C 
ENDBRANCH  20  25
ENDBRANCH   2  20
TORSDOF 9
