REMARK  Name = 20517064
REMARK  4 active torsions:
REMARK  status: ('A' for Active; 'I' for Inactive)
REMARK    1  A    between atoms: O_1  and  C_13
REMARK    2  A    between atoms: N_4  and  C_8
REMARK    3  A    between atoms: C_8  and  C_13
REMARK    4  A    between atoms: C_10  and  C_14
REMARK                            x       y       z     vdW  Elec       q    Type
REMARK                         _______ _______ _______ _____ _____    ______ ____
ROOT
ATOM      1  N   UNL     1       0.702   0.214  -0.488  0.00  0.00    +0.000 N 
ATOM      2  N   UNL     1       1.819   2.330  -0.198  0.00  0.00    +0.000 N 
ATOM      3  C   UNL     1       0.646   1.550  -0.142  0.00  0.00    +0.000 A 
ATOM      4  C   UNL     1      -0.453  -0.542  -0.430  0.00  0.00    +0.000 A 
ATOM      5  C   UNL     1      -1.661   0.022  -0.031  0.00  0.00    +0.000 A 
ATOM      6  C   UNL     1      -0.549   2.138   0.261  0.00  0.00    +0.000 A 
ATOM      7  C   UNL     1      -1.706   1.368   0.316  0.00  0.00    +0.000 A 
ATOM      8  H   UNL     1       1.721   3.334  -0.281  0.00  0.00    +0.000 HD
ATOM      9  H   UNL     1       2.713   1.928  -0.436  0.00  0.00    +0.000 HD
ENDROOT
BRANCH   5  12
ATOM     10  O   UNL     1      -3.960  -0.309   0.358  0.00  0.00    +0.000 OA
ATOM     11  N   UNL     1      -2.756  -2.132  -0.337  0.00  0.00    +0.000 N 
ATOM     12  C   UNL     1      -2.864  -0.791   0.021  0.00  0.00    +0.000 C 
ATOM     13  H   UNL     1      -1.906  -2.600  -0.627  0.00  0.00    +0.000 HD
ATOM     14  H   UNL     1      -3.582  -2.722  -0.316  0.00  0.00    +0.000 HD
ENDBRANCH   5  12
BRANCH   1  15
ATOM     15  C   UNL     1       1.949  -0.411  -0.911  0.00  0.00    +0.000 C 
BRANCH  15  17
ATOM     16  O   UNL     1       2.306  -0.930   1.435  0.00  0.00    +0.000 OA
ATOM     17  C   UNL     1       2.680  -0.968   0.273  0.00  0.00    +0.000 C 
BRANCH  17  18
ATOM     18  O   UNL     1       3.845  -1.538  -0.127  0.00  0.00    +0.000 OA
ATOM     19  H   UNL     1       4.347  -1.913   0.628  0.00  0.00    +0.000 HD
ENDBRANCH  17  18
ENDBRANCH  15  17
ENDBRANCH   1  15
TORSDOF 4
