REMARK  Name = 20517052
REMARK  3 active torsions:
REMARK  status: ('A' for Active; 'I' for Inactive)
REMARK    1  A    between atoms: N_2  and  C_5
REMARK    2  A    between atoms: C_5  and  C_6
REMARK    3  A    between atoms: C_9  and  C_16
REMARK                            x       y       z     vdW  Elec       q    Type
REMARK                         _______ _______ _______ _____ _____    ______ ____
ROOT
ATOM      1  N   UNL     1      -0.281  -0.684  -0.716  0.00  0.00    +0.000 N 
ATOM      2  N   UNL     1       0.424  -2.917  -0.143  0.00  0.00    +0.000 N 
ATOM      3  C   UNL     1      -0.527  -1.879  -0.067  0.00  0.00    +0.000 A 
ATOM      4  C   UNL     1      -1.218   0.327  -0.635  0.00  0.00    +0.000 A 
ATOM      5  C   UNL     1      -2.396   0.159   0.085  0.00  0.00    +0.000 A 
ATOM      6  C   UNL     1      -1.697  -2.073   0.659  0.00  0.00    +0.000 A 
ATOM      7  C   UNL     1      -2.634  -1.048   0.734  0.00  0.00    +0.000 A 
ATOM      8  H   UNL     1       0.416  -3.622   0.584  0.00  0.00    +0.000 HD
ATOM      9  H   UNL     1       1.247  -2.853  -0.719  0.00  0.00    +0.000 HD
ENDROOT
BRANCH   5  12
ATOM     10  O   UNL     1      -4.421   1.119   0.808  0.00  0.00    +0.000 OA
ATOM     11  N   UNL     1      -3.074   2.421  -0.514  0.00  0.00    +0.000 N 
ATOM     12  C   UNL     1      -3.368   1.237   0.157  0.00  0.00    +0.000 C 
ATOM     13  H   UNL     1      -2.240   2.599  -1.060  0.00  0.00    +0.000 HD
ATOM     14  H   UNL     1      -3.732   3.193  -0.474  0.00  0.00    +0.000 HD
ENDBRANCH   5  12
BRANCH   1  15
ATOM     15  C   UNL     1       0.942  -0.471  -1.480  0.00  0.00    +0.000 C 
BRANCH  15  16
ATOM     16  C   UNL     1       2.031   0.103  -0.616  0.00  0.00    +0.000 A 
ATOM     17  C   UNL     1       2.904  -0.748   0.063  0.00  0.00    +0.000 A 
ATOM     18  C   UNL     1       2.169   1.485  -0.493  0.00  0.00    +0.000 A 
ATOM     19  C   UNL     1       3.914  -0.216   0.864  0.00  0.00    +0.000 A 
ATOM     20  C   UNL     1       3.179   2.017   0.308  0.00  0.00    +0.000 A 
ATOM     21  C   UNL     1       4.052   1.167   0.987  0.00  0.00    +0.000 A 
ENDBRANCH  15  16
ENDBRANCH   1  15
TORSDOF 3
