REMARK  Name = 20517057
REMARK  3 active torsions:
REMARK  status: ('A' for Active; 'I' for Inactive)
REMARK    1  A    between atoms: N_2  and  C_9
REMARK    2  A    between atoms: C_8  and  C_12
REMARK    3  A    between atoms: C_9  and  C_13
REMARK                            x       y       z     vdW  Elec       q    Type
REMARK                         _______ _______ _______ _____ _____    ______ ____
ROOT
ATOM      1  N   UNL     1       0.926   0.061  -0.478  0.00  0.00    +0.000 N 
ATOM      2  N   UNL     1       2.239   2.055  -0.152  0.00  0.00    +0.000 N 
ATOM      3  C   UNL     1       0.998   1.388  -0.102  0.00  0.00    +0.000 A 
ATOM      4  C   UNL     1      -0.294  -0.585  -0.425  0.00  0.00    +0.000 A 
ATOM      5  C   UNL     1      -1.440   0.080  -0.001  0.00  0.00    +0.000 A 
ATOM      6  C   UNL     1      -0.133   2.075   0.326  0.00  0.00    +0.000 A 
ATOM      7  C   UNL     1      -1.356   1.416   0.376  0.00  0.00    +0.000 A 
ATOM      8  H   UNL     1       2.234   3.066  -0.213  0.00  0.00    +0.000 HD
ATOM      9  H   UNL     1       3.088   1.576  -0.413  0.00  0.00    +0.000 HD
ENDROOT
BRANCH   5  12
ATOM     10  O   UNL     1      -3.770  -0.097   0.433  0.00  0.00    +0.000 OA
ATOM     11  N   UNL     1      -2.721  -1.953  -0.344  0.00  0.00    +0.000 N 
ATOM     12  C   UNL     1      -2.713  -0.619   0.047  0.00  0.00    +0.000 C 
ATOM     13  H   UNL     1      -1.923  -2.482  -0.671  0.00  0.00    +0.000 HD
ATOM     14  H   UNL     1      -3.592  -2.474  -0.315  0.00  0.00    +0.000 HD
ENDBRANCH   5  12
BRANCH   1  15
ATOM     15  C   UNL     1       2.106  -0.668  -0.928  0.00  0.00    +0.000 C 
BRANCH  15  17
ATOM     16  N   UNL     1       3.356  -1.835   1.065  0.00  0.00    +0.000 NA
ATOM     17  C   UNL     1       2.804  -1.319   0.184  0.00  0.00    +0.000 C 
ENDBRANCH  15  17
ENDBRANCH   1  15
TORSDOF 3
