REMARK  Name = 20517055
REMARK  3 active torsions:
REMARK  status: ('A' for Active; 'I' for Inactive)
REMARK    1  A    between atoms: N_3  and  C_7
REMARK    2  A    between atoms: C_7  and  C_13
REMARK    3  A    between atoms: C_10  and  C_14
REMARK                            x       y       z     vdW  Elec       q    Type
REMARK                         _______ _______ _______ _____ _____    ______ ____
ROOT
ATOM      1  N   UNL     1       0.698   0.218  -0.489  0.00  0.00    +0.000 N 
ATOM      2  N   UNL     1       1.808   2.338  -0.199  0.00  0.00    +0.000 N 
ATOM      3  C   UNL     1       0.638   1.554  -0.142  0.00  0.00    +0.000 A 
ATOM      4  C   UNL     1      -0.454  -0.541  -0.430  0.00  0.00    +0.000 A 
ATOM      5  C   UNL     1      -1.663   0.018  -0.031  0.00  0.00    +0.000 A 
ATOM      6  C   UNL     1      -0.559   2.138   0.261  0.00  0.00    +0.000 A 
ATOM      7  C   UNL     1      -1.713   1.364   0.316  0.00  0.00    +0.000 A 
ATOM      8  H   UNL     1       1.706   3.342  -0.284  0.00  0.00    +0.000 HD
ATOM      9  H   UNL     1       2.702   1.938  -0.440  0.00  0.00    +0.000 HD
ENDROOT
BRANCH   5  12
ATOM     10  O   UNL     1      -3.961  -0.321   0.359  0.00  0.00    +0.000 OA
ATOM     11  N   UNL     1      -2.751  -2.140  -0.337  0.00  0.00    +0.000 N 
ATOM     12  C   UNL     1      -2.864  -0.799   0.022  0.00  0.00    +0.000 C 
ATOM     13  H   UNL     1      -1.900  -2.605  -0.627  0.00  0.00    +0.000 HD
ATOM     14  H   UNL     1      -3.576  -2.732  -0.315  0.00  0.00    +0.000 HD
ENDBRANCH   5  12
BRANCH   1  15
ATOM     15  C   UNL     1       1.947  -0.402  -0.913  0.00  0.00    +0.000 C 
BRANCH  15  18
ATOM     16  O   UNL     1       2.295  -0.907   1.424  0.00  0.00    +0.000 OA
ATOM     17  N   UNL     1       3.885  -1.554  -0.106  0.00  0.00    +0.000 N 
ATOM     18  C   UNL     1       2.696  -0.965   0.265  0.00  0.00    +0.000 C 
ATOM     19  H   UNL     1       4.195  -1.590  -1.072  0.00  0.00    +0.000 HD
ATOM     20  H   UNL     1       4.495  -1.977   0.585  0.00  0.00    +0.000 HD
ENDBRANCH  15  18
ENDBRANCH   1  15
TORSDOF 3
