REMARK  Name = 20517072
REMARK  2 active torsions:
REMARK  status: ('A' for Active; 'I' for Inactive)
REMARK    1  A    between atoms: N_2  and  C_5
REMARK    2  A    between atoms: C_8  and  C_15
REMARK                            x       y       z     vdW  Elec       q    Type
REMARK                         _______ _______ _______ _____ _____    ______ ____
ROOT
ATOM      1  N   UNL     1       0.153   0.381  -0.036  0.00  0.00    +0.000 N 
ATOM      2  N   UNL     1       0.908   2.667  -0.269  0.00  0.00    +0.000 N 
ATOM      3  C   UNL     1      -0.139   1.725  -0.167  0.00  0.00    +0.000 A 
ATOM      4  C   UNL     1      -0.887  -0.523   0.060  0.00  0.00    +0.000 A 
ATOM      5  C   UNL     1      -2.212  -0.101   0.026  0.00  0.00    +0.000 A 
ATOM      6  C   UNL     1      -1.456   2.174  -0.203  0.00  0.00    +0.000 A 
ATOM      7  C   UNL     1      -2.494   1.255  -0.106  0.00  0.00    +0.000 A 
ATOM      8  H   UNL     1       0.690   3.579  -0.652  0.00  0.00    +0.000 HD
ATOM      9  H   UNL     1       1.874   2.375  -0.296  0.00  0.00    +0.000 HD
ENDROOT
BRANCH   1  10
ATOM     10  C   UNL     1       1.492  -0.092  -0.002  0.00  0.00    +0.000 A 
ATOM     11  C   UNL     1       1.940  -0.991  -0.970  0.00  0.00    +0.000 A 
ATOM     12  C   UNL     1       2.360   0.343   1.000  0.00  0.00    +0.000 A 
ATOM     13  C   UNL     1       3.254  -1.456  -0.936  0.00  0.00    +0.000 A 
ATOM     14  C   UNL     1       3.675  -0.122   1.034  0.00  0.00    +0.000 A 
ATOM     15  C   UNL     1       4.122  -1.021   0.066  0.00  0.00    +0.000 A 
ENDBRANCH   1  10
BRANCH   5  18
ATOM     16  O   UNL     1      -4.492  -0.763   0.122  0.00  0.00    +0.000 OA
ATOM     17  N   UNL     1      -2.933  -2.407   0.257  0.00  0.00    +0.000 N 
ATOM     18  C   UNL     1      -3.290  -1.070   0.127  0.00  0.00    +0.000 C 
ATOM     19  H   UNL     1      -1.990  -2.772   0.276  0.00  0.00    +0.000 HD
ATOM     20  H   UNL     1      -3.662  -3.109   0.338  0.00  0.00    +0.000 HD
ENDBRANCH   5  18
TORSDOF 2
