REMARK  Name = 20585326
REMARK  3 active torsions:
REMARK  status: ('A' for Active; 'I' for Inactive)
REMARK    1  A    between atoms: N_2  and  C_11
REMARK    2  A    between atoms: N_4  and  C_6
REMARK    3  A    between atoms: C_5  and  C_8
REMARK                            x       y       z     vdW  Elec       q    Type
REMARK                         _______ _______ _______ _____ _____    ______ ____
ROOT
ATOM      1  N   UNL     1       2.269  -0.771   0.300  0.00  0.00    +0.000 NA
ATOM      2  C   UNL     1       0.069   0.126  -0.144  0.00  0.00    +0.000 A 
ATOM      3  C   UNL     1       0.933  -0.915   0.153  0.00  0.00    +0.000 A 
ATOM      4  C   UNL     1       0.611   1.397  -0.300  0.00  0.00    +0.000 A 
ATOM      5  C   UNL     1       1.981   1.586  -0.156  0.00  0.00    +0.000 A 
ATOM      6  C   UNL     1       2.760   0.479   0.141  0.00  0.00    +0.000 A 
ENDROOT
BRANCH   2   9
ATOM      7  O   UNL     1      -1.814  -0.841  -1.154  0.00  0.00    +0.000 OA
ATOM      8  N   UNL     1      -2.195   0.655   0.577  0.00  0.00    +0.000 N 
ATOM      9  C   UNL     1      -1.367  -0.060  -0.296  0.00  0.00    +0.000 C 
ATOM     10  C   UNL     1      -3.636   0.558   0.567  0.00  0.00    +0.000 C 
ATOM     11  H   UNL     1      -1.771   1.287   1.250  0.00  0.00    +0.000 HD
ENDBRANCH   2   9
BRANCH   3  12
ATOM     12  N   UNL     1       0.389  -2.214   0.313  0.00  0.00    +0.000 N 
ATOM     13  H   UNL     1      -0.553  -2.304   0.673  0.00  0.00    +0.000 HD
ATOM     14  H   UNL     1       1.045  -2.956   0.525  0.00  0.00    +0.000 HD
ENDBRANCH   3  12
TORSDOF 2
