REMARK  Name = 20678894
REMARK  2 active torsions:
REMARK  status: ('A' for Active; 'I' for Inactive)
REMARK    1  A    between atoms: N_2  and  C_9
REMARK    2  A    between atoms: C_6  and  C_11
REMARK                            x       y       z     vdW  Elec       q    Type
REMARK                         _______ _______ _______ _____ _____    ______ ____
ROOT
ATOM      1  O   UNL     1      -0.683  -2.478  -0.002  0.00  0.00    +0.000 OA
ATOM      2  N   UNL     1      -1.764  -0.398   0.001  0.00  0.00    +0.000 N 
ATOM      3  N   UNL     1      -0.469   1.597  -0.000  0.00  0.00    +0.000 NA
ATOM      4  N   UNL     1       1.857   1.517   0.001  0.00  0.00    +0.000 NA
ATOM      5  C   UNL     1       0.657  -0.567   0.000  0.00  0.00    +0.000 A 
ATOM      6  C   UNL     1      -1.613   0.988  -0.000  0.00  0.00    +0.000 A 
ATOM      7  C   UNL     1      -0.649  -1.251   0.000  0.00  0.00    +0.000 A 
ATOM      8  C   UNL     1       0.696   0.821   0.001  0.00  0.00    +0.000 A 
ATOM      9  C   UNL     1      -3.091  -1.010   0.003  0.00  0.00    +0.000 C 
ATOM     10  C   UNL     1       1.856  -1.278  -0.001  0.00  0.00    +0.000 A 
ATOM     11  C   UNL     1      -2.862   1.838  -0.002  0.00  0.00    +0.000 C 
ATOM     12  C   UNL     1       3.058  -0.582  -0.000  0.00  0.00    +0.000 A 
ATOM     13  C   UNL     1       3.005   0.802   0.001  0.00  0.00    +0.000 A 
ENDROOT
TORSDOF 0
