REMARK  Name = 20795367
REMARK  5 active torsions:
REMARK  status: ('A' for Active; 'I' for Inactive)
REMARK    1  A    between atoms: N_2  and  C_10
REMARK    2  A    between atoms: C_10  and  C_11
REMARK    3  A    between atoms: C_11  and  C_13
REMARK    4  A    between atoms: C_12  and  C_14
REMARK    5  A    between atoms: C_13  and  C_15
REMARK                            x       y       z     vdW  Elec       q    Type
REMARK                         _______ _______ _______ _____ _____    ______ ____
ROOT
ATOM      1  O   UNL     1       1.812  -2.686   0.371  0.00  0.00    +0.000 OA
ATOM      2  N   UNL     1      -2.662  -0.543  -0.106  0.00  0.00    +0.000 NA
ATOM      3  N   UNL     1       0.116  -1.217  -0.284  0.00  0.00    +0.000 N 
ATOM      4  C   UNL     1      -2.177  -1.841   0.384  0.00  0.00    +0.000 C 
ATOM      5  C   UNL     1      -1.634   0.492   0.076  0.00  0.00    +0.000 C 
ATOM      6  C   UNL     1      -0.908  -2.257  -0.358  0.00  0.00    +0.000 C 
ATOM      7  C   UNL     1      -0.344   0.124  -0.661  0.00  0.00    +0.000 C 
ATOM      8  C   UNL     1       1.427  -1.562   0.055  0.00  0.00    +0.000 C 
ENDROOT
BRANCH   8  11
ATOM      9  N   UNL     1       3.647   1.237   1.199  0.00  0.00    +0.000 NA
ATOM     10  N   UNL     1       5.319   2.484   0.049  0.00  0.00    +0.000 N 
ATOM     11  C   UNL     1       2.449  -0.507   0.029  0.00  0.00    +0.000 A 
ATOM     12  C   UNL     1       3.178  -0.243  -1.125  0.00  0.00    +0.000 A 
ATOM     13  C   UNL     1       2.720   0.254   1.155  0.00  0.00    +0.000 A 
ATOM     14  C   UNL     1       4.140   0.760  -1.119  0.00  0.00    +0.000 A 
ATOM     15  C   UNL     1       4.335   1.465   0.058  0.00  0.00    +0.000 A 
ATOM     16  H   UNL     1       6.100   2.394  -0.590  0.00  0.00    +0.000 HD
ATOM     17  H   UNL     1       5.462   2.993   0.912  0.00  0.00    +0.000 HD
ENDBRANCH   8  11
BRANCH   2  18
ATOM     18  C   UNL     1      -3.898  -0.165   0.578  0.00  0.00    +0.000 C 
BRANCH  18  19
ATOM     19  C   UNL     1      -4.704   0.808  -0.281  0.00  0.00    +0.000 C 
BRANCH  19  20
ATOM     20  C   UNL     1      -6.012   1.200   0.407  0.00  0.00    +0.000 C 
ATOM     21  C   UNL     1      -6.803   2.196  -0.426  0.00  0.00    +0.000 C 
ENDBRANCH  19  20
ENDBRANCH  18  19
ENDBRANCH   2  18
TORSDOF 4
