REMARK  Name = 21029971
REMARK  3 active torsions:
REMARK  status: ('A' for Active; 'I' for Inactive)
REMARK    1  A    between atoms: N_2  and  C_10
REMARK    2  A    between atoms: N_3  and  C_12
REMARK    3  A    between atoms: C_11  and  C_14
REMARK                            x       y       z     vdW  Elec       q    Type
REMARK                         _______ _______ _______ _____ _____    ______ ____
ROOT
ATOM      1  N   UNL     1      -1.434  -1.858  -0.090  0.00  0.00    +0.000 NA
ATOM      2  C   UNL     1      -0.909  -0.613  -0.030  0.00  0.00    +0.000 A 
ATOM      3  C   UNL     1      -1.666   0.546   0.018  0.00  0.00    +0.000 A 
ATOM      4  C   UNL     1      -3.050   0.420   0.006  0.00  0.00    +0.000 A 
ATOM      5  C   UNL     1      -2.783  -1.940  -0.101  0.00  0.00    +0.000 A 
ATOM      6  C   UNL     1      -3.627  -0.843  -0.055  0.00  0.00    +0.000 A 
ENDROOT
BRANCH   2   7
ATOM      7  N   UNL     1       0.485  -0.495  -0.017  0.00  0.00    +0.000 N 
ATOM      8  N   UNL     1       3.335  -0.453  -0.101  0.00  0.00    +0.000 NA
ATOM      9  C   UNL     1       1.258  -1.118   1.062  0.00  0.00    +0.000 C 
ATOM     10  C   UNL     1       1.179  -0.374  -1.305  0.00  0.00    +0.000 C 
ATOM     11  C   UNL     1       2.635  -0.460   1.186  0.00  0.00    +0.000 C 
ATOM     12  C   UNL     1       2.557   0.265  -1.114  0.00  0.00    +0.000 C 
ATOM     13  C   UNL     1       4.676   0.120   0.035  0.00  0.00    +0.000 C 
ENDBRANCH   2   7
BRANCH   3  16
ATOM     14  O   UNL     1      -0.768   2.537  -0.920  0.00  0.00    +0.000 OA
ATOM     15  N   UNL     1      -0.818   2.394   1.345  0.00  0.00    +0.000 N 
ATOM     16  C   UNL     1      -1.070   1.874   0.082  0.00  0.00    +0.000 C 
ATOM     17  H   UNL     1      -1.040   1.883   2.193  0.00  0.00    +0.000 HD
ATOM     18  H   UNL     1      -0.398   3.311   1.457  0.00  0.00    +0.000 HD
ENDBRANCH   3  16
TORSDOF 2
