REMARK  Name = 21113396
REMARK  2 active torsions:
REMARK  status: ('A' for Active; 'I' for Inactive)
REMARK    1  A    between atoms: C_4  and  C_6
REMARK    2  A    between atoms: C_6  and  C_10
REMARK                            x       y       z     vdW  Elec       q    Type
REMARK                         _______ _______ _______ _____ _____    ______ ____
ROOT
ATOM      1  N   UNL     1       1.389  -1.200  -0.198  0.00  0.00    +0.000 NA
ATOM      2  N   UNL     1       3.475  -0.068   0.013  0.00  0.00    +0.000 N 
ATOM      3  C   UNL     1      -0.669   0.055  -0.011  0.00  0.00    +0.000 A 
ATOM      4  C   UNL     1       0.054   1.225   0.192  0.00  0.00    +0.000 A 
ATOM      5  C   UNL     1       1.444   1.184   0.200  0.00  0.00    +0.000 A 
ATOM      6  C   UNL     1       0.039  -1.121  -0.199  0.00  0.00    +0.000 A 
ATOM      7  C   UNL     1       2.058  -0.043   0.003  0.00  0.00    +0.000 A 
ATOM      8  H   UNL     1       3.974   0.767  -0.266  0.00  0.00    +0.000 HD
ATOM      9  H   UNL     1       3.919  -0.965  -0.138  0.00  0.00    +0.000 HD
ENDROOT
BRANCH   3  11
ATOM     10  O   UNL     1      -2.764   1.066  -0.404  0.00  0.00    +0.000 OA
ATOM     11  C   UNL     1      -2.121   0.065  -0.025  0.00  0.00    +0.000 C 
ATOM     12  C   UNL     1      -2.905  -1.163   0.429  0.00  0.00    +0.000 C 
ENDBRANCH   3  11
TORSDOF 1
