REMARK  Name = 21221050
REMARK  4 active torsions:
REMARK  status: ('A' for Active; 'I' for Inactive)
REMARK    1  A    between atoms: N_3  and  C_11
REMARK    2  A    between atoms: N_5  and  C_14
REMARK    3  A    between atoms: C_6  and  C_11
REMARK    4  A    between atoms: C_12  and  C_13
REMARK                            x       y       z     vdW  Elec       q    Type
REMARK                         _______ _______ _______ _____ _____    ______ ____
ROOT
ATOM      1  O   UNL     1       0.639   1.191  -1.680  0.00  0.00    +0.000 OA
ATOM      2  N   UNL     1      -0.129   1.047   0.504  0.00  0.00    +0.000 N 
ATOM      3  C   UNL     1       0.825   0.904  -0.501  0.00  0.00    +0.000 C 
ATOM      4  H   UNL     1       0.107   0.771   1.453  0.00  0.00    +0.000 HD
ENDROOT
BRANCH   3   6
ATOM      5  N   UNL     1       3.837  -1.369  -0.265  0.00  0.00    +0.000 NA
ATOM      6  C   UNL     1       2.136   0.339  -0.089  0.00  0.00    +0.000 A 
ATOM      7  C   UNL     1       2.648  -0.833  -0.621  0.00  0.00    +0.000 A 
ATOM      8  C   UNL     1       2.892   1.004   0.869  0.00  0.00    +0.000 A 
ATOM      9  C   UNL     1       4.121   0.484   1.261  0.00  0.00    +0.000 A 
ATOM     10  C   UNL     1       4.544  -0.695   0.669  0.00  0.00    +0.000 A 
BRANCH   7  11
ATOM     11  N   UNL     1       1.882  -1.517  -1.599  0.00  0.00    +0.000 N 
ATOM     12  H   UNL     1       2.283  -2.369  -1.972  0.00  0.00    +0.000 HD
ATOM     13  H   UNL     1       0.873  -1.453  -1.555  0.00  0.00    +0.000 HD
ENDBRANCH   7  11
ENDBRANCH   3   6
BRANCH   2  14
ATOM     14  C   UNL     1      -1.446   1.553   0.260  0.00  0.00    +0.000 C 
BRANCH  14  16
ATOM     15  N   UNL     1      -4.867  -1.081   0.497  0.00  0.00    +0.000 NA
ATOM     16  C   UNL     1      -2.413   0.423  -0.084  0.00  0.00    +0.000 C 
ATOM     17  C   UNL     1      -3.809   0.971  -0.407  0.00  0.00    +0.000 C 
ATOM     18  C   UNL     1      -2.502  -0.594   1.061  0.00  0.00    +0.000 C 
ATOM     19  C   UNL     1      -4.807  -0.162  -0.642  0.00  0.00    +0.000 C 
ATOM     20  C   UNL     1      -3.551  -1.666   0.767  0.00  0.00    +0.000 C 
ATOM     21  H   UNL     1      -5.530  -1.828   0.292  0.00  0.00    +0.000 HD
ENDBRANCH  14  16
ENDBRANCH   2  14
TORSDOF 4
