REMARK  Name = 21281446
REMARK  3 active torsions:
REMARK  status: ('A' for Active; 'I' for Inactive)
REMARK    1  A    between atoms: N_3  and  C_9
REMARK    2  A    between atoms: N_5  and  C_9
REMARK    3  A    between atoms: C_6  and  C_7
REMARK                            x       y       z     vdW  Elec       q    Type
REMARK                         _______ _______ _______ _____ _____    ______ ____
ROOT
ATOM      1  O   UNL     1       0.035   2.047  -0.417  0.00  0.00    +0.000 OA
ATOM      2  N   UNL     1       0.956  -0.028   0.044  0.00  0.00    +0.000 N 
ATOM      3  C   UNL     1      -0.124   0.841  -0.151  0.00  0.00    +0.000 C 
ATOM      4  H   UNL     1       0.795  -0.993   0.310  0.00  0.00    +0.000 HD
ENDROOT
BRANCH   3   6
ATOM      5  N   UNL     1      -2.901  -1.655  -0.257  0.00  0.00    +0.000 NA
ATOM      6  C   UNL     1      -1.457   0.274  -0.052  0.00  0.00    +0.000 A 
ATOM      7  C   UNL     1      -2.543   1.056   0.323  0.00  0.00    +0.000 A 
ATOM      8  C   UNL     1      -1.687  -1.064  -0.328  0.00  0.00    +0.000 A 
ATOM      9  C   UNL     1      -3.808   0.485   0.408  0.00  0.00    +0.000 A 
ATOM     10  C   UNL     1      -3.933  -0.862   0.111  0.00  0.00    +0.000 A 
ENDBRANCH   3   6
BRANCH   2  11
ATOM     11  C   UNL     1       2.341   0.392  -0.045  0.00  0.00    +0.000 C 
BRANCH  11  13
ATOM     12  O   UNL     1       5.520  -0.239   0.077  0.00  0.00    +0.000 OA
ATOM     13  N   UNL     1       3.228  -0.753   0.167  0.00  0.00    +0.000 NA
ATOM     14  C   UNL     1       4.372  -0.494   0.121  0.00  0.00    +0.000 C 
ENDBRANCH  11  13
ENDBRANCH   2  11
TORSDOF 3
