REMARK  Name = 21330884
REMARK  1 active torsions:
REMARK  status: ('A' for Active; 'I' for Inactive)
REMARK    1  A    between atoms: C_6  and  C_11
REMARK                            x       y       z     vdW  Elec       q    Type
REMARK                         _______ _______ _______ _____ _____    ______ ____
ROOT
ATOM      1  O   UNL     1       3.665  -1.335  -0.003  0.00  0.00    +0.000 OA
ATOM      2  N   UNL     1       0.869  -0.757   0.000  0.00  0.00    +0.000 NA
ATOM      3  N   UNL     1       2.649   0.801  -0.000  0.00  0.00    +0.000 N 
ATOM      4  C   UNL     1      -1.411   0.048   0.003  0.00  0.00    +0.000 A 
ATOM      5  C   UNL     1       1.275   0.533   0.001  0.00  0.00    +0.000 A 
ATOM      6  C   UNL     1      -0.955   1.362   0.003  0.00  0.00    +0.000 A 
ATOM      7  C   UNL     1       0.412   1.617   0.003  0.00  0.00    +0.000 A 
ATOM      8  C   UNL     1      -0.467  -0.966   0.001  0.00  0.00    +0.000 A 
ATOM      9  C   UNL     1       3.695  -0.113  -0.002  0.00  0.00    +0.000 C 
ATOM     10  H   UNL     1       2.912   1.784   0.000  0.00  0.00    +0.000 HD
ENDROOT
BRANCH   4  13
ATOM     11  O   UNL     1      -3.687   0.653  -0.011  0.00  0.00    +0.000 OA
ATOM     12  N   UNL     1      -3.213  -1.591   0.003  0.00  0.00    +0.000 N 
ATOM     13  C   UNL     1      -2.832  -0.252   0.003  0.00  0.00    +0.000 C 
ATOM     14  H   UNL     1      -2.583  -2.383   0.009  0.00  0.00    +0.000 HD
ATOM     15  H   UNL     1      -4.200  -1.829  -0.004  0.00  0.00    +0.000 HD
ENDBRANCH   4  13
TORSDOF 1
