REMARK  Name = 21344160
REMARK  4 active torsions:
REMARK  status: ('A' for Active; 'I' for Inactive)
REMARK    1  A    between atoms: N_2  and  C_11
REMARK    2  A    between atoms: N_2  and  C_12
REMARK    3  A    between atoms: N_4  and  N_5
REMARK    4  A    between atoms: C_6  and  C_7
REMARK                            x       y       z     vdW  Elec       q    Type
REMARK                         _______ _______ _______ _____ _____    ______ ____
ROOT
ATOM      1  N   UNL     1      -1.613  -1.219  -0.746  0.00  0.00    +0.000 NA
ATOM      2  N   UNL     1      -3.648  -0.102  -0.213  0.00  0.00    +0.000 N 
ATOM      3  C   UNL     1       0.473  -0.377   0.141  0.00  0.00    +0.000 A 
ATOM      4  C   UNL     1      -0.208   0.648   0.789  0.00  0.00    +0.000 A 
ATOM      5  C   UNL     1      -0.269  -1.277  -0.607  0.00  0.00    +0.000 A 
ATOM      6  C   UNL     1      -1.590   0.740   0.670  0.00  0.00    +0.000 A 
ATOM      7  C   UNL     1      -2.240  -0.209  -0.102  0.00  0.00    +0.000 A 
ATOM      8  H   UNL     1      -4.119  -0.775  -0.805  0.00  0.00    +0.000 HD
ENDROOT
BRANCH   3  11
ATOM      9  O   UNL     1       2.357  -1.547   0.745  0.00  0.00    +0.000 OA
ATOM     10  N   UNL     1       2.727   0.557  -0.204  0.00  0.00    +0.000 N 
ATOM     11  C   UNL     1       1.935  -0.504   0.247  0.00  0.00    +0.000 C 
ATOM     12  C   UNL     1       4.176   0.463  -0.094  0.00  0.00    +0.000 C 
ATOM     13  C   UNL     1       2.216   1.792  -0.795  0.00  0.00    +0.000 C 
ENDBRANCH   3  11
BRANCH   2  14
ATOM     14  N   UNL     1      -4.314   1.035   0.170  0.00  0.00    +0.000 NA
ATOM     15  H   UNL     1      -5.272   0.786   0.410  0.00  0.00    +0.000 HD
ATOM     16  H   UNL     1      -4.378   1.662  -0.631  0.00  0.00    +0.000 HD
ENDBRANCH   2  14
TORSDOF 2
