REMARK  Name = 21452449
REMARK  0 active torsions:
REMARK  status: ('A' for Active; 'I' for Inactive)
REMARK                            x       y       z     vdW  Elec       q    Type
REMARK                         _______ _______ _______ _____ _____    ______ ____
ROOT
ATOM      1  O   UNL     1      -1.665  -2.116   0.135  0.00  0.00    +0.000 OA
ATOM      2  N   UNL     1      -0.681   1.817   0.171  0.00  0.00    +0.000 N 
ATOM      3  N   UNL     1      -2.321   0.087   0.016  0.00  0.00    +0.000 N 
ATOM      4  N   UNL     1       1.627   1.306   0.096  0.00  0.00    +0.000 NA
ATOM      5  C   UNL     1       0.031  -0.482  -0.017  0.00  0.00    +0.000 A 
ATOM      6  C   UNL     1      -1.994   1.460  -0.306  0.00  0.00    +0.000 C 
ATOM      7  C   UNL     1       0.340   0.879   0.075  0.00  0.00    +0.000 A 
ATOM      8  C   UNL     1      -1.382  -0.927   0.041  0.00  0.00    +0.000 C 
ATOM      9  C   UNL     1       1.061  -1.419  -0.108  0.00  0.00    +0.000 A 
ATOM     10  C   UNL     1       2.378  -0.983  -0.104  0.00  0.00    +0.000 A 
ATOM     11  C   UNL     1       2.606   0.377   0.002  0.00  0.00    +0.000 A 
ATOM     12  H   UNL     1      -0.419   2.794   0.231  0.00  0.00    +0.000 HD
ATOM     13  H   UNL     1      -3.301  -0.171   0.068  0.00  0.00    +0.000 HD
ENDROOT
TORSDOF 0
