REMARK  Name = 21472602
REMARK  7 active torsions:
REMARK  status: ('A' for Active; 'I' for Inactive)
REMARK    1  A    between atoms: N_2  and  C_6
REMARK    2  A    between atoms: C_5  and  C_9
REMARK    3  A    between atoms: C_5  and  C_13
REMARK    4  A    between atoms: C_6  and  C_10
REMARK    5  A    between atoms: C_7  and  C_8
REMARK    6  A    between atoms: C_7  and  C_14
REMARK    7  A    between atoms: C_11  and  C_12
REMARK                            x       y       z     vdW  Elec       q    Type
REMARK                         _______ _______ _______ _____ _____    ______ ____
ROOT
ATOM      1  O   UNL     1      -0.635   0.267   1.821  0.00  0.00    +0.000 OA
ATOM      2  N   UNL     1      -0.553   1.576  -0.094  0.00  0.00    +0.000 N 
ATOM      3  C   UNL     1      -1.145   0.667   0.777  0.00  0.00    +0.000 C 
ATOM      4  H   UNL     1      -1.003   1.810  -0.973  0.00  0.00    +0.000 HD
ENDROOT
BRANCH   3   7
ATOM      5  N   UNL     1      -4.541   0.470  -0.841  0.00  0.00    +0.000 NA
ATOM      6  N   UNL     1      -6.204  -1.236  -0.802  0.00  0.00    +0.000 N 
ATOM      7  C   UNL     1      -2.476   0.144   0.374  0.00  0.00    +0.000 A 
ATOM      8  C   UNL     1      -2.914  -1.105   0.798  0.00  0.00    +0.000 A 
ATOM      9  C   UNL     1      -3.320   0.886  -0.437  0.00  0.00    +0.000 A 
ATOM     10  C   UNL     1      -4.164  -1.569   0.404  0.00  0.00    +0.000 A 
ATOM     11  C   UNL     1      -4.932  -0.750  -0.409  0.00  0.00    +0.000 A 
ATOM     12  H   UNL     1      -6.759  -0.637  -1.400  0.00  0.00    +0.000 HD
ATOM     13  H   UNL     1      -6.338  -2.237  -0.869  0.00  0.00    +0.000 HD
ENDBRANCH   3   7
BRANCH   2  14
ATOM     14  C   UNL     1       0.741   2.150   0.145  0.00  0.00    +0.000 C 
BRANCH  14  16
ATOM     15  C   UNL     1       2.786   0.716   0.218  0.00  0.00    +0.000 C 
ATOM     16  C   UNL     1       1.784   1.278  -0.477  0.00  0.00    +0.000 C 
BRANCH  15  17
ATOM     17  C   UNL     1       3.847  -0.143  -0.311  0.00  0.00    +0.000 C 
ATOM     18  C   UNL     1       4.778  -0.621   0.541  0.00  0.00    +0.000 C 
ATOM     19  C   UNL     1       3.846  -0.429  -1.790  0.00  0.00    +0.000 C 
BRANCH  18  20
ATOM     20  C   UNL     1       5.927  -1.540   0.234  0.00  0.00    +0.000 C 
ATOM     21  C   UNL     1       7.174  -0.760  -0.150  0.00  0.00    +0.000 C 
ENDBRANCH  18  20
ENDBRANCH  15  17
ENDBRANCH  14  16
ENDBRANCH   2  14
TORSDOF 5
