REMARK  Name = 21521575
REMARK  5 active torsions:
REMARK  status: ('A' for Active; 'I' for Inactive)
REMARK    1  A    between atoms: N_2  and  C_11
REMARK    2  A    between atoms: N_3  and  C_10
REMARK    3  A    between atoms: C_6  and  C_10
REMARK    4  A    between atoms: C_11  and  C_12
REMARK    5  A    between atoms: C_13  and  C_14
REMARK                            x       y       z     vdW  Elec       q    Type
REMARK                         _______ _______ _______ _____ _____    ______ ____
ROOT
ATOM      1  O   UNL     1       0.903  -2.211   0.896  0.00  0.00    +0.000 OA
ATOM      2  N   UNL     1       0.037  -0.900  -0.812  0.00  0.00    +0.000 N 
ATOM      3  C   UNL     1       1.020  -1.287   0.095  0.00  0.00    +0.000 C 
ATOM      4  H   UNL     1       0.178  -0.090  -1.405  0.00  0.00    +0.000 HD
ENDROOT
BRANCH   3   7
ATOM      5  N   UNL     1       3.823   0.905  -1.141  0.00  0.00    +0.000 NA
ATOM      6  N   UNL     1       5.758   1.752  -0.040  0.00  0.00    +0.000 N 
ATOM      7  C   UNL     1       2.274  -0.491   0.083  0.00  0.00    +0.000 A 
ATOM      8  C   UNL     1       3.064  -0.381   1.222  0.00  0.00    +0.000 A 
ATOM      9  C   UNL     1       2.694   0.165  -1.063  0.00  0.00    +0.000 A 
ATOM     10  C   UNL     1       4.232   0.372   1.181  0.00  0.00    +0.000 A 
ATOM     11  C   UNL     1       4.564   0.989  -0.014  0.00  0.00    +0.000 A 
ATOM     12  H   UNL     1       6.078   2.176   0.823  0.00  0.00    +0.000 HD
ATOM     13  H   UNL     1       5.994   2.207  -0.913  0.00  0.00    +0.000 HD
ENDBRANCH   3   7
BRANCH   2  14
ATOM     14  C   UNL     1      -1.236  -1.554  -0.904  0.00  0.00    +0.000 C 
BRANCH  14  16
ATOM     15  N   UNL     1      -3.825   0.761   0.331  0.00  0.00    +0.000 NA
ATOM     16  C   UNL     1      -2.256  -0.908   0.019  0.00  0.00    +0.000 C 
ATOM     17  C   UNL     1      -3.637  -1.565  -0.042  0.00  0.00    +0.000 C 
ATOM     18  C   UNL     1      -2.531   0.553  -0.319  0.00  0.00    +0.000 C 
ATOM     19  C   UNL     1      -4.632  -0.406  -0.030  0.00  0.00    +0.000 C 
BRANCH  15  20
ATOM     20  C   UNL     1      -4.451   2.015  -0.063  0.00  0.00    +0.000 C 
ATOM     21  C   UNL     1      -5.801   2.193   0.600  0.00  0.00    +0.000 C 
ENDBRANCH  15  20
ENDBRANCH  14  16
ENDBRANCH   2  14
TORSDOF 4
