REMARK  Name = 21521592
REMARK  9 active torsions:
REMARK  status: ('A' for Active; 'I' for Inactive)
REMARK    1  A    between atoms: N_2  and  C_6
REMARK    2  A    between atoms: N_2  and  C_8
REMARK    3  A    between atoms: N_2  and  C_9
REMARK    4  A    between atoms: N_3  and  C_7
REMARK    5  A    between atoms: C_6  and  C_7
REMARK    6  A    between atoms: C_6  and  C_10
REMARK    7  A    between atoms: C_8  and  C_11
REMARK    8  A    between atoms: C_9  and  C_12
REMARK    9  A    between atoms: C_13  and  C_14
REMARK                            x       y       z     vdW  Elec       q    Type
REMARK                         _______ _______ _______ _____ _____    ______ ____
ROOT
ATOM      1  O   UNL     1      -0.349  -0.829   1.673  0.00  0.00    +0.000 OA
ATOM      2  N   UNL     1       0.085   0.874   0.159  0.00  0.00    +0.000 N 
ATOM      3  C   UNL     1      -0.733  -0.037   0.817  0.00  0.00    +0.000 C 
ATOM      4  H   UNL     1      -0.287   1.457  -0.583  0.00  0.00    +0.000 HD
ENDROOT
BRANCH   3   7
ATOM      5  N   UNL     1      -4.058   1.159  -0.489  0.00  0.00    +0.000 NA
ATOM      6  N   UNL     1      -6.144   0.035  -0.741  0.00  0.00    +0.000 N 
ATOM      7  C   UNL     1      -2.163  -0.041   0.413  0.00  0.00    +0.000 A 
ATOM      8  C   UNL     1      -2.939  -1.188   0.540  0.00  0.00    +0.000 A 
ATOM      9  C   UNL     1      -2.764   1.096  -0.102  0.00  0.00    +0.000 A 
ATOM     10  C   UNL     1      -4.275  -1.162   0.153  0.00  0.00    +0.000 A 
ATOM     11  C   UNL     1      -4.781   0.025  -0.351  0.00  0.00    +0.000 A 
ATOM     12  H   UNL     1      -6.563  -0.833  -1.050  0.00  0.00    +0.000 HD
ATOM     13  H   UNL     1      -6.508   0.903  -1.114  0.00  0.00    +0.000 HD
ENDBRANCH   3   7
BRANCH   2  14
ATOM     14  C   UNL     1       1.495   0.981   0.421  0.00  0.00    +0.000 C 
BRANCH  14  15
ATOM     15  C   UNL     1       2.323   0.062  -0.480  0.00  0.00    +0.000 C 
ATOM     16  C   UNL     1       2.512   0.646  -1.880  0.00  0.00    +0.000 C 
BRANCH  15  17
ATOM     17  N   UNL     1       3.639  -0.143   0.129  0.00  0.00    +0.000 NA
BRANCH  17  18
ATOM     18  C   UNL     1       4.358   1.126   0.227  0.00  0.00    +0.000 C 
ATOM     19  C   UNL     1       5.702   0.944   0.911  0.00  0.00    +0.000 C 
ENDBRANCH  17  18
BRANCH  17  20
ATOM     20  C   UNL     1       4.413  -1.112  -0.645  0.00  0.00    +0.000 C 
ATOM     21  C   UNL     1       3.679  -2.437  -0.756  0.00  0.00    +0.000 C 
ENDBRANCH  17  20
ENDBRANCH  15  17
ENDBRANCH  14  15
ENDBRANCH   2  14
TORSDOF 6
