REMARK  Name = 21521594
REMARK  9 active torsions:
REMARK  status: ('A' for Active; 'I' for Inactive)
REMARK    1  A    between atoms: N_2  and  C_6
REMARK    2  A    between atoms: N_2  and  C_8
REMARK    3  A    between atoms: N_2  and  C_9
REMARK    4  A    between atoms: N_3  and  C_10
REMARK    5  A    between atoms: C_6  and  C_7
REMARK    6  A    between atoms: C_7  and  C_10
REMARK    7  A    between atoms: C_8  and  C_11
REMARK    8  A    between atoms: C_9  and  C_12
REMARK    9  A    between atoms: C_13  and  C_14
REMARK                            x       y       z     vdW  Elec       q    Type
REMARK                         _______ _______ _______ _____ _____    ______ ____
ROOT
ATOM      1  O   UNL     1       0.103  -0.432  -1.726  0.00  0.00    +0.000 OA
ATOM      2  N   UNL     1       0.179  -1.585   0.285  0.00  0.00    +0.000 N 
ATOM      3  C   UNL     1      -0.431  -0.794  -0.681  0.00  0.00    +0.000 C 
ATOM      4  H   UNL     1      -0.346  -1.909   1.091  0.00  0.00    +0.000 HD
ENDROOT
BRANCH   3   7
ATOM      5  N   UNL     1      -3.479   0.171   1.250  0.00  0.00    +0.000 NA
ATOM      6  N   UNL     1      -5.641   0.862   0.524  0.00  0.00    +0.000 N 
ATOM      7  C   UNL     1      -1.819  -0.354  -0.386  0.00  0.00    +0.000 A 
ATOM      8  C   UNL     1      -2.682  -0.075  -1.418  0.00  0.00    +0.000 A 
ATOM      9  C   UNL     1      -2.232  -0.226   0.913  0.00  0.00    +0.000 A 
ATOM     10  C   UNL     1      -3.974   0.336  -1.111  0.00  0.00    +0.000 A 
ATOM     11  C   UNL     1      -4.320   0.443   0.227  0.00  0.00    +0.000 A 
ATOM     12  H   UNL     1      -6.119   1.456  -0.143  0.00  0.00    +0.000 HD
ATOM     13  H   UNL     1      -5.887   0.945   1.502  0.00  0.00    +0.000 HD
ENDBRANCH   3   7
BRANCH   2  14
ATOM     14  C   UNL     1       1.526  -2.069   0.156  0.00  0.00    +0.000 C 
BRANCH  14  15
ATOM     15  C   UNL     1       2.433  -1.587   1.286  0.00  0.00    +0.000 C 
BRANCH  15  16
ATOM     16  C   UNL     1       2.588  -0.065   1.367  0.00  0.00    +0.000 C 
BRANCH  16  17
ATOM     17  N   UNL     1       3.146   0.492   0.141  0.00  0.00    +0.000 NA
BRANCH  17  18
ATOM     18  C   UNL     1       3.227   1.951   0.227  0.00  0.00    +0.000 C 
ATOM     19  C   UNL     1       1.871   2.566   0.505  0.00  0.00    +0.000 C 
ENDBRANCH  17  18
BRANCH  17  20
ATOM     20  C   UNL     1       4.469  -0.075  -0.128  0.00  0.00    +0.000 C 
ATOM     21  C   UNL     1       5.038   0.441  -1.433  0.00  0.00    +0.000 C 
ENDBRANCH  17  20
ENDBRANCH  16  17
ENDBRANCH  15  16
ENDBRANCH  14  15
ENDBRANCH   2  14
TORSDOF 7
