REMARK  Name = 21551407
REMARK  5 active torsions:
REMARK  status: ('A' for Active; 'I' for Inactive)
REMARK    1  A    between atoms: N_2  and  C_5
REMARK    2  A    between atoms: N_4  and  C_10
REMARK    3  A    between atoms: C_5  and  C_6
REMARK    4  A    between atoms: C_5  and  C_7
REMARK    5  A    between atoms: C_8  and  C_9
REMARK                            x       y       z     vdW  Elec       q    Type
REMARK                         _______ _______ _______ _____ _____    ______ ____
ROOT
ATOM      1  N   UNL     1      -2.942  -0.614  -0.490  0.00  0.00    +0.000 NA
ATOM      2  C   UNL     1      -0.746   0.088   0.239  0.00  0.00    +0.000 A 
ATOM      3  C   UNL     1      -1.652  -0.874  -0.177  0.00  0.00    +0.000 A 
ATOM      4  C   UNL     1      -1.192   1.401   0.340  0.00  0.00    +0.000 A 
ATOM      5  C   UNL     1      -2.511   1.708   0.026  0.00  0.00    +0.000 A 
ATOM      6  C   UNL     1      -3.338   0.673  -0.380  0.00  0.00    +0.000 A 
ENDROOT
BRANCH   2   9
ATOM      7  O   UNL     1       0.901  -1.040   1.469  0.00  0.00    +0.000 OA
ATOM      8  N   UNL     1       1.631   0.418  -0.181  0.00  0.00    +0.000 N 
ATOM      9  C   UNL     1       0.665  -0.229   0.576  0.00  0.00    +0.000 C 
ATOM     10  H   UNL     1       1.337   1.027  -0.941  0.00  0.00    +0.000 HD
BRANCH   8  11
ATOM     11  C   UNL     1       3.043   0.196   0.010  0.00  0.00    +0.000 C 
ATOM     12  C   UNL     1       3.826   1.463  -0.308  0.00  0.00    +0.000 C 
ATOM     13  C   UNL     1       3.520  -0.976  -0.840  0.00  0.00    +0.000 C 
ENDBRANCH   8  11
ENDBRANCH   2   9
BRANCH   3  14
ATOM     14  N   UNL     1      -1.206  -2.215  -0.282  0.00  0.00    +0.000 N 
ATOM     15  H   UNL     1      -0.236  -2.386  -0.519  0.00  0.00    +0.000 HD
ATOM     16  H   UNL     1      -1.891  -2.897  -0.584  0.00  0.00    +0.000 HD
ENDBRANCH   3  14
TORSDOF 3
