REMARK  Name = 21568271
REMARK  1 active torsions:
REMARK  status: ('A' for Active; 'I' for Inactive)
REMARK    1  A    between atoms: N_2  and  N_5
REMARK                            x       y       z     vdW  Elec       q    Type
REMARK                         _______ _______ _______ _____ _____    ______ ____
ROOT
ATOM      1  O   UNL     1       1.104  -2.624  -0.000  0.00  0.00    +0.000 OA
ATOM      2  N   UNL     1       0.971   1.377  -0.001  0.00  0.00    +0.000 N 
ATOM      3  N   UNL     1      -1.451   1.376  -0.001  0.00  0.00    +0.000 NA
ATOM      4  N   UNL     1       2.250  -0.639   0.001  0.00  0.00    +0.000 NA
ATOM      5  C   UNL     1      -0.272   0.704  -0.001  0.00  0.00    +0.000 A 
ATOM      6  C   UNL     1      -0.228  -0.698  -0.000  0.00  0.00    +0.000 A 
ATOM      7  C   UNL     1      -1.422  -1.420   0.000  0.00  0.00    +0.000 A 
ATOM      8  C   UNL     1       1.091  -1.397  -0.000  0.00  0.00    +0.000 A 
ATOM      9  C   UNL     1       2.130   0.651   0.001  0.00  0.00    +0.000 A 
ATOM     10  C   UNL     1      -2.630  -0.735   0.001  0.00  0.00    +0.000 A 
ATOM     11  C   UNL     1      -2.591   0.647   0.000  0.00  0.00    +0.000 A 
ENDROOT
BRANCH   2  12
ATOM     12  N   UNL     1       1.047   2.757   0.000  0.00  0.00    +0.000 N 
ATOM     13  H   UNL     1       0.550   3.117  -0.813  0.00  0.00    +0.000 HD
ATOM     14  H   UNL     1       0.556   3.116   0.819  0.00  0.00    +0.000 HD
ENDBRANCH   2  12
TORSDOF 1
