REMARK  Name = 21568270
REMARK  4 active torsions:
REMARK  status: ('A' for Active; 'I' for Inactive)
REMARK    1  A    between atoms: N_2  and  C_7
REMARK    2  A    between atoms: N_3  and  C_13
REMARK    3  A    between atoms: N_3  and  C_14
REMARK    4  A    between atoms: C_7  and  C_11
REMARK                            x       y       z     vdW  Elec       q    Type
REMARK                         _______ _______ _______ _____ _____    ______ ____
ROOT
ATOM      1  O   UNL     1       0.999  -2.999  -0.036  0.00  0.00    +0.000 OA
ATOM      2  N   UNL     1      -0.558   0.693   0.248  0.00  0.00    +0.000 N 
ATOM      3  N   UNL     1      -2.699  -0.275   0.039  0.00  0.00    +0.000 N 
ATOM      4  N   UNL     1      -0.859  -1.668  -0.038  0.00  0.00    +0.000 NA
ATOM      5  N   UNL     1       1.662   1.674   0.150  0.00  0.00    +0.000 NA
ATOM      6  C   UNL     1      -1.335  -0.452   0.084  0.00  0.00    +0.000 A 
ATOM      7  C   UNL     1       0.852   0.582   0.132  0.00  0.00    +0.000 A 
ATOM      8  C   UNL     1       1.397  -0.699   0.000  0.00  0.00    +0.000 A 
ATOM      9  C   UNL     1       0.501  -1.877  -0.021  0.00  0.00    +0.000 A 
ATOM     10  C   UNL     1       2.781  -0.860  -0.106  0.00  0.00    +0.000 A 
ATOM     11  C   UNL     1      -3.465  -0.663  -1.131  0.00  0.00    +0.000 C 
ATOM     12  C   UNL     1      -3.449   0.069   1.233  0.00  0.00    +0.000 C 
ATOM     13  C   UNL     1       3.602   0.257  -0.085  0.00  0.00    +0.000 A 
ATOM     14  C   UNL     1       2.998   1.492   0.043  0.00  0.00    +0.000 A 
ENDROOT
BRANCH   2  15
ATOM     15  C   UNL     1      -1.069   2.051   0.420  0.00  0.00    +0.000 C 
ATOM     16  C   UNL     1      -1.357   2.676  -0.931  0.00  0.00    +0.000 C 
ENDBRANCH   2  15
TORSDOF 1
