REMARK  Name = 21568183
REMARK  3 active torsions:
REMARK  status: ('A' for Active; 'I' for Inactive)
REMARK    1  A    between atoms: N_2  and  C_6
REMARK    2  A    between atoms: N_4  and  C_15
REMARK    3  A    between atoms: C_6  and  C_10
REMARK                            x       y       z     vdW  Elec       q    Type
REMARK                         _______ _______ _______ _____ _____    ______ ____
ROOT
ATOM      1  O   UNL     1       0.434  -3.016  -0.093  0.00  0.00    +0.000 OA
ATOM      2  N   UNL     1      -0.685   0.823   0.290  0.00  0.00    +0.000 N 
ATOM      3  N   UNL     1      -1.259  -1.481  -0.038  0.00  0.00    +0.000 NA
ATOM      4  N   UNL     1      -2.925   0.112   0.095  0.00  0.00    +0.000 N 
ATOM      5  N   UNL     1       1.631   1.545   0.179  0.00  0.00    +0.000 NA
ATOM      6  C   UNL     1       0.702   0.553   0.151  0.00  0.00    +0.000 A 
ATOM      7  C   UNL     1      -1.590  -0.222   0.116  0.00  0.00    +0.000 A 
ATOM      8  C   UNL     1       1.094  -0.778  -0.015  0.00  0.00    +0.000 A 
ATOM      9  C   UNL     1       0.068  -1.845  -0.047  0.00  0.00    +0.000 A 
ATOM     10  C   UNL     1       2.449  -1.095  -0.146  0.00  0.00    +0.000 A 
ATOM     11  C   UNL     1       3.393  -0.080  -0.115  0.00  0.00    +0.000 A 
ATOM     12  C   UNL     1       2.936   1.213   0.047  0.00  0.00    +0.000 A 
ATOM     13  C   UNL     1      -3.948  -0.867  -0.087  0.00  0.00    +0.000 C 
ATOM     14  H   UNL     1      -3.227   1.077   0.160  0.00  0.00    +0.000 HD
ENDROOT
BRANCH   2  15
ATOM     15  C   UNL     1      -1.034   2.226   0.499  0.00  0.00    +0.000 C 
ATOM     16  C   UNL     1      -1.266   2.910  -0.835  0.00  0.00    +0.000 C 
ENDBRANCH   2  15
TORSDOF 1
