REMARK  Name = 21673434
REMARK  6 active torsions:
REMARK  status: ('A' for Active; 'I' for Inactive)
REMARK    1  A    between atoms: N_2  and  C_5
REMARK    2  A    between atoms: N_2  and  C_6
REMARK    3  A    between atoms: N_4  and  C_11
REMARK    4  A    between atoms: C_5  and  C_9
REMARK    5  A    between atoms: C_6  and  C_10
REMARK    6  A    between atoms: C_7  and  C_8
REMARK                            x       y       z     vdW  Elec       q    Type
REMARK                         _______ _______ _______ _____ _____    ______ ____
ROOT
ATOM      1  N   UNL     1      -2.674  -0.772  -0.820  0.00  0.00    +0.000 NA
ATOM      2  C   UNL     1      -0.693  -0.137   0.412  0.00  0.00    +0.000 A 
ATOM      3  C   UNL     1      -1.377  -0.947  -0.479  0.00  0.00    +0.000 A 
ATOM      4  C   UNL     1      -1.383   0.922   0.992  0.00  0.00    +0.000 A 
ATOM      5  C   UNL     1      -2.719   1.135   0.667  0.00  0.00    +0.000 A 
ATOM      6  C   UNL     1      -3.312   0.267  -0.236  0.00  0.00    +0.000 A 
ENDROOT
BRANCH   2   9
ATOM      7  O   UNL     1       0.935  -1.079   1.733  0.00  0.00    +0.000 OA
ATOM      8  N   UNL     1       1.700   0.281  -0.008  0.00  0.00    +0.000 N 
ATOM      9  C   UNL     1       0.720  -0.353   0.763  0.00  0.00    +0.000 C 
BRANCH   8  10
ATOM     10  C   UNL     1       3.104   0.096   0.330  0.00  0.00    +0.000 C 
ATOM     11  C   UNL     1       3.665  -1.104  -0.410  0.00  0.00    +0.000 C 
ENDBRANCH   8  10
BRANCH   8  12
ATOM     12  C   UNL     1       1.434   1.140  -1.159  0.00  0.00    +0.000 C 
ATOM     13  C   UNL     1       1.280   2.581  -0.711  0.00  0.00    +0.000 C 
ENDBRANCH   8  12
ENDBRANCH   2   9
BRANCH   3  14
ATOM     14  N   UNL     1      -0.680  -2.028  -1.074  0.00  0.00    +0.000 N 
ATOM     15  H   UNL     1       0.316  -1.933  -1.234  0.00  0.00    +0.000 HD
ATOM     16  H   UNL     1      -1.206  -2.606  -1.719  0.00  0.00    +0.000 HD
ENDBRANCH   3  14
TORSDOF 4
