REMARK  Name = 21793036
REMARK  0 active torsions:
REMARK  status: ('A' for Active; 'I' for Inactive)
REMARK                            x       y       z     vdW  Elec       q    Type
REMARK                         _______ _______ _______ _____ _____    ______ ____
ROOT
ATOM      1  O   UNL     1       1.361  -2.841   0.000  0.00  0.00    +0.000 OA
ATOM      2  N   UNL     1      -0.828   0.538   0.000  0.00  0.00    +0.000 N 
ATOM      3  N   UNL     1      -0.702  -1.860   0.000  0.00  0.00    +0.000 NA
ATOM      4  N   UNL     1       1.197   1.885   0.001  0.00  0.00    +0.000 NA
ATOM      5  N   UNL     1      -2.757  -0.931  -0.000  0.00  0.00    +0.000 NA
ATOM      6  C   UNL     1       0.593   0.667   0.000  0.00  0.00    +0.000 A 
ATOM      7  C   UNL     1       1.353  -0.507  -0.000  0.00  0.00    +0.000 A 
ATOM      8  C   UNL     1      -1.379  -0.748   0.000  0.00  0.00    +0.000 A 
ATOM      9  C   UNL     1      -1.672   1.635   0.000  0.00  0.00    +0.000 A 
ATOM     10  C   UNL     1       0.674  -1.825  -0.000  0.00  0.00    +0.000 A 
ATOM     11  C   UNL     1       2.748  -0.429  -0.001  0.00  0.00    +0.000 A 
ATOM     12  C   UNL     1      -3.004   1.532  -0.000  0.00  0.00    +0.000 A 
ATOM     13  C   UNL     1       3.362   0.815  -0.000  0.00  0.00    +0.000 A 
ATOM     14  C   UNL     1       2.549   1.931   0.000  0.00  0.00    +0.000 A 
ATOM     15  C   UNL     1      -3.493   0.137  -0.000  0.00  0.00    +0.000 A 
ENDROOT
TORSDOF 0
