REMARK  Name = 21850029
REMARK  2 active torsions:
REMARK  status: ('A' for Active; 'I' for Inactive)
REMARK    1  A    between atoms: N_3  and  C_6
REMARK    2  A    between atoms: C_5  and  C_10
REMARK                            x       y       z     vdW  Elec       q    Type
REMARK                         _______ _______ _______ _____ _____    ______ ____
ROOT
ATOM      1  N   UNL     1      -2.030   0.415   0.066  0.00  0.00    +0.000 NA
ATOM      2  N   UNL     1      -0.765   2.415  -0.044  0.00  0.00    +0.000 N 
ATOM      3  C   UNL     1       0.380   0.297  -0.080  0.00  0.00    +0.000 A 
ATOM      4  C   UNL     1       0.321  -1.092  -0.054  0.00  0.00    +0.000 A 
ATOM      5  C   UNL     1      -0.814   0.998  -0.018  0.00  0.00    +0.000 A 
ATOM      6  C   UNL     1      -0.912  -1.728   0.031  0.00  0.00    +0.000 A 
ATOM      7  C   UNL     1      -2.048  -0.937   0.088  0.00  0.00    +0.000 A 
ATOM      8  H   UNL     1       0.008   2.877   0.419  0.00  0.00    +0.000 HD
ATOM      9  H   UNL     1      -1.660   2.888  -0.018  0.00  0.00    +0.000 HD
ENDROOT
BRANCH   4  10
ATOM     10  N   UNL     1       1.496  -1.873  -0.114  0.00  0.00    +0.000 N 
ATOM     11  H   UNL     1       1.427  -2.883  -0.096  0.00  0.00    +0.000 HD
ATOM     12  H   UNL     1       2.405  -1.441  -0.194  0.00  0.00    +0.000 HD
ENDBRANCH   4  10
BRANCH   3  14
ATOM     13  O   UNL     1       2.706   0.520   0.293  0.00  0.00    +0.000 OA
ATOM     14  C   UNL     1       1.665   0.986  -0.169  0.00  0.00    +0.000 C 
ENDBRANCH   3  14
TORSDOF 2
