REMARK  Name = 22028988
REMARK  1 active torsions:
REMARK  status: ('A' for Active; 'I' for Inactive)
REMARK    1  A    between atoms: C_13  and  C_15
REMARK                            x       y       z     vdW  Elec       q    Type
REMARK                         _______ _______ _______ _____ _____    ______ ____
ROOT
ATOM      1  N   UNL     1      -1.728  -0.028   0.034  0.00  0.00    +0.000 N 
ATOM      2  N   UNL     1      -4.574   0.107  -0.152  0.00  0.00    +0.000 NA
ATOM      3  N   UNL     1       0.310   1.122  -0.322  0.00  0.00    +0.000 NA
ATOM      4  C   UNL     1      -2.427   1.230   0.332  0.00  0.00    +0.000 C 
ATOM      5  C   UNL     1      -2.454  -0.970  -0.825  0.00  0.00    +0.000 C 
ATOM      6  C   UNL     1      -3.854   0.951   0.801  0.00  0.00    +0.000 C 
ATOM      7  C   UNL     1      -3.881  -1.170  -0.316  0.00  0.00    +0.000 C 
ATOM      8  C   UNL     1      -0.329  -0.018   0.025  0.00  0.00    +0.000 A 
ATOM      9  C   UNL     1       0.316  -1.192   0.380  0.00  0.00    +0.000 A 
ATOM     10  C   UNL     1       1.707  -1.197   0.376  0.00  0.00    +0.000 A 
ATOM     11  C   UNL     1       2.400  -0.044   0.024  0.00  0.00    +0.000 A 
ATOM     12  C   UNL     1       1.662   1.079  -0.314  0.00  0.00    +0.000 A 
ATOM     13  H   UNL     1      -5.517  -0.064   0.195  0.00  0.00    +0.000 HD
ENDROOT
BRANCH  11  16
ATOM     14  O   UNL     1       4.523  -1.026   0.297  0.00  0.00    +0.000 OA
ATOM     15  N   UNL     1       4.477   1.173  -0.352  0.00  0.00    +0.000 N 
ATOM     16  C   UNL     1       3.852  -0.018   0.011  0.00  0.00    +0.000 C 
ATOM     17  H   UNL     1       4.005   2.033  -0.602  0.00  0.00    +0.000 HD
ATOM     18  H   UNL     1       5.491   1.217  -0.376  0.00  0.00    +0.000 HD
ENDBRANCH  11  16
TORSDOF 1
