REMARK  Name = 220484
REMARK  3 active torsions:
REMARK  status: ('A' for Active; 'I' for Inactive)
REMARK    1  A    between atoms: N_3  and  N_5
REMARK    2  A    between atoms: N_4  and  C_7
REMARK    3  A    between atoms: C_6  and  C_9
REMARK                            x       y       z     vdW  Elec       q    Type
REMARK                         _______ _______ _______ _____ _____    ______ ____
ROOT
ATOM      1  N   UNL     1       2.322  -0.691   0.174  0.00  0.00    +0.000 NA
ATOM      2  C   UNL     1       0.050   0.097  -0.079  0.00  0.00    +0.000 A 
ATOM      3  C   UNL     1       0.989  -0.906   0.104  0.00  0.00    +0.000 A 
ATOM      4  C   UNL     1       0.509   1.404  -0.198  0.00  0.00    +0.000 A 
ATOM      5  C   UNL     1       1.873   1.665  -0.131  0.00  0.00    +0.000 A 
ATOM      6  C   UNL     1       2.731   0.592   0.055  0.00  0.00    +0.000 A 
ENDROOT
BRANCH   2   9
ATOM      7  O   UNL     1      -1.798  -1.256  -0.580  0.00  0.00    +0.000 OA
ATOM      8  N   UNL     1      -2.229   0.847   0.301  0.00  0.00    +0.000 N 
ATOM      9  C   UNL     1      -1.380  -0.167  -0.150  0.00  0.00    +0.000 C 
ATOM     10  H   UNL     1      -1.891   1.714   0.704  0.00  0.00    +0.000 HD
BRANCH   8  11
ATOM     11  N   UNL     1      -3.597   0.658   0.280  0.00  0.00    +0.000 NA
ATOM     12  H   UNL     1      -3.925   0.769   1.238  0.00  0.00    +0.000 HD
ATOM     13  H   UNL     1      -3.994   1.436  -0.245  0.00  0.00    +0.000 HD
ENDBRANCH   8  11
ENDBRANCH   2   9
BRANCH   3  14
ATOM     14  N   UNL     1       0.529  -2.242   0.226  0.00  0.00    +0.000 N 
ATOM     15  H   UNL     1      -0.376  -2.405   0.648  0.00  0.00    +0.000 HD
ATOM     16  H   UNL     1       1.240  -2.953   0.352  0.00  0.00    +0.000 HD
ENDBRANCH   3  14
TORSDOF 3
