REMARK  Name = 22271454
REMARK  2 active torsions:
REMARK  status: ('A' for Active; 'I' for Inactive)
REMARK    1  A    between atoms: O_2  and  C_13
REMARK    2  A    between atoms: C_7  and  C_10
REMARK                            x       y       z     vdW  Elec       q    Type
REMARK                         _______ _______ _______ _____ _____    ______ ____
ROOT
ATOM      1  N   UNL     1      -2.706   0.996   0.347  0.00  0.00    +0.000 NA
ATOM      2  N   UNL     1      -4.492  -0.560   0.088  0.00  0.00    +0.000 N 
ATOM      3  C   UNL     1      -0.434   0.276  -0.061  0.00  0.00    +0.000 A 
ATOM      4  C   UNL     1      -0.886  -1.003  -0.367  0.00  0.00    +0.000 A 
ATOM      5  C   UNL     1      -1.376   1.231   0.287  0.00  0.00    +0.000 A 
ATOM      6  C   UNL     1      -2.247  -1.284  -0.318  0.00  0.00    +0.000 A 
ATOM      7  C   UNL     1      -3.108  -0.259   0.042  0.00  0.00    +0.000 A 
ATOM      8  H   UNL     1      -4.846  -1.293  -0.514  0.00  0.00    +0.000 HD
ATOM      9  H   UNL     1      -5.117   0.193   0.346  0.00  0.00    +0.000 HD
ENDROOT
BRANCH   3  13
ATOM     10  O   UNL     1       1.356   1.760  -0.351  0.00  0.00    +0.000 OA
ATOM     11  O   UNL     1       3.934   0.639  -0.124  0.00  0.00    +0.000 OA
ATOM     12  N   UNL     1       1.884  -0.457   0.118  0.00  0.00    +0.000 N 
ATOM     13  C   UNL     1       0.981   0.600  -0.103  0.00  0.00    +0.000 C 
ATOM     14  C   UNL     1       3.266  -0.364   0.092  0.00  0.00    +0.000 C 
ATOM     15  H   UNL     1       1.518  -1.377   0.345  0.00  0.00    +0.000 HD
BRANCH  14  16
ATOM     16  O   UNL     1       3.828  -1.575   0.350  0.00  0.00    +0.000 OA
ATOM     17  H   UNL     1       4.808  -1.532   0.337  0.00  0.00    +0.000 HD
ENDBRANCH  14  16
ENDBRANCH   3  13
TORSDOF 2
