REMARK  Name = 22624267
REMARK  7 active torsions:
REMARK  status: ('A' for Active; 'I' for Inactive)
REMARK    1  A    between atoms: N_2  and  C_14
REMARK    2  A    between atoms: N_2  and  C_15
REMARK    3  A    between atoms: N_3  and  C_17
REMARK    4  A    between atoms: N_3  and  C_18
REMARK    5  A    between atoms: N_5  and  C_8
REMARK    6  A    between atoms: N_6  and  C_12
REMARK    7  A    between atoms: C_7  and  C_12
REMARK                            x       y       z     vdW  Elec       q    Type
REMARK                         _______ _______ _______ _____ _____    ______ ____
ROOT
ATOM      1  N   UNL     1      -1.169  -0.492  -0.564  0.00  0.00    +0.000 NA
ATOM      2  C   UNL     1       0.716   0.916  -0.006  0.00  0.00    +0.000 A 
ATOM      3  C   UNL     1      -1.968   0.581  -0.368  0.00  0.00    +0.000 A 
ATOM      4  C   UNL     1      -0.139   1.996   0.187  0.00  0.00    +0.000 A 
ATOM      5  C   UNL     1      -1.508   1.833   0.004  0.00  0.00    +0.000 A 
ATOM      6  C   UNL     1       0.156  -0.296  -0.377  0.00  0.00    +0.000 A 
ENDROOT
BRANCH   3   8
ATOM      7  N   UNL     1      -5.214  -0.937   0.215  0.00  0.00    +0.000 N 
ATOM      8  N   UNL     1      -3.336   0.368  -0.563  0.00  0.00    +0.000 NA
ATOM      9  C   UNL     1      -3.893  -0.529   0.194  0.00  0.00    +0.000 C 
ATOM     10  C   UNL     1      -5.669  -1.965   1.141  0.00  0.00    +0.000 C 
ATOM     11  C   UNL     1      -6.246  -0.190  -0.490  0.00  0.00    +0.000 C 
ENDBRANCH   3   8
BRANCH   2  13
ATOM     12  O   UNL     1       2.639   2.151   0.513  0.00  0.00    +0.000 OA
ATOM     13  C   UNL     1       2.189   1.058   0.184  0.00  0.00    +0.000 C 
BRANCH  13  15
ATOM     14  N   UNL     1       5.122  -1.058  -0.065  0.00  0.00    +0.000 N 
ATOM     15  N   UNL     1       2.920  -0.090  -0.039  0.00  0.00    +0.000 NA
ATOM     16  C   UNL     1       4.205  -0.036   0.108  0.00  0.00    +0.000 C 
ATOM     17  C   UNL     1       6.500  -0.917   0.385  0.00  0.00    +0.000 C 
ATOM     18  C   UNL     1       4.696  -2.394  -0.457  0.00  0.00    +0.000 C 
ENDBRANCH  13  15
ENDBRANCH   2  13
TORSDOF 3
