REMARK  Name = 22756795
REMARK  0 active torsions:
REMARK  status: ('A' for Active; 'I' for Inactive)
REMARK                            x       y       z     vdW  Elec       q    Type
REMARK                         _______ _______ _______ _____ _____    ______ ____
ROOT
ATOM      1  S   UNL     1      -2.127   0.518  -0.133  0.00  0.00    +0.000 S 
ATOM      2  O   UNL     1      -2.089   0.742  -1.567  0.00  0.00    +0.000 OA
ATOM      3  O   UNL     1      -3.318   0.840   0.629  0.00  0.00    +0.000 OA
ATOM      4  O   UNL     1      -0.112  -2.802   0.131  0.00  0.00    +0.000 OA
ATOM      5  N   UNL     1      -0.794   1.305   0.586  0.00  0.00    +0.000 N 
ATOM      6  N   UNL     1      -1.695  -1.101   0.171  0.00  0.00    +0.000 N 
ATOM      7  N   UNL     1       1.477   1.708   0.217  0.00  0.00    +0.000 NA
ATOM      8  C   UNL     1       0.715  -0.585   0.058  0.00  0.00    +0.000 A 
ATOM      9  C   UNL     1       0.492   0.781   0.224  0.00  0.00    +0.000 A 
ATOM     10  C   UNL     1      -0.360  -1.605   0.119  0.00  0.00    +0.000 C 
ATOM     11  C   UNL     1       2.027  -1.001  -0.183  0.00  0.00    +0.000 A 
ATOM     12  C   UNL     1       3.054  -0.064  -0.229  0.00  0.00    +0.000 A 
ATOM     13  C   UNL     1       2.730   1.265  -0.022  0.00  0.00    +0.000 A 
ATOM     14  H   UNL     1      -0.816   2.333   0.599  0.00  0.00    +0.000 HD
ATOM     15  H   UNL     1      -2.452  -1.796   0.154  0.00  0.00    +0.000 HD
ENDROOT
TORSDOF 0
