REMARK  Name = 23119574
REMARK  0 active torsions:
REMARK  status: ('A' for Active; 'I' for Inactive)
REMARK                            x       y       z     vdW  Elec       q    Type
REMARK                         _______ _______ _______ _____ _____    ______ ____
ROOT
ATOM      1  O   UNL     1       0.847  -2.459  -1.203  0.00  0.00    +0.000 OA
ATOM      2  N   UNL     1      -0.153   1.213  -0.677  0.00  0.00    +0.000 NA
ATOM      3  N   UNL     1      -0.573  -1.632   0.410  0.00  0.00    +0.000 NA
ATOM      4  N   UNL     1       1.941   1.819   0.093  0.00  0.00    +0.000 NA
ATOM      5  N   UNL     1      -2.403   1.179  -0.978  0.00  0.00    +0.000 NA
ATOM      6  C   UNL     1       1.492  -0.524  -0.093  0.00  0.00    +0.000 A 
ATOM      7  C   UNL     1       1.089   0.801  -0.181  0.00  0.00    +0.000 A 
ATOM      8  C   UNL     1      -1.405  -0.642   0.398  0.00  0.00    +0.000 A 
ATOM      9  C   UNL     1      -1.270   0.598  -0.452  0.00  0.00    +0.000 A 
ATOM     10  C   UNL     1       0.548  -1.608  -0.374  0.00  0.00    +0.000 A 
ATOM     11  C   UNL     1       2.801  -0.830   0.276  0.00  0.00    +0.000 A 
ATOM     12  C   UNL     1      -2.637  -0.679   1.217  0.00  0.00    +0.000 A 
ATOM     13  C   UNL     1       3.678   0.204   0.567  0.00  0.00    +0.000 A 
ATOM     14  C   UNL     1      -3.655   0.113   0.870  0.00  0.00    +0.000 A 
ATOM     15  C   UNL     1       3.203   1.500   0.466  0.00  0.00    +0.000 A 
ATOM     16  C   UNL     1      -3.503   0.948  -0.339  0.00  0.00    +0.000 A 
ENDROOT
TORSDOF 0
