REMARK  Name = 23372620
REMARK  0 active torsions:
REMARK  status: ('A' for Active; 'I' for Inactive)
REMARK                            x       y       z     vdW  Elec       q    Type
REMARK                         _______ _______ _______ _____ _____    ______ ____
ROOT
ATOM      1  O   UNL     1      -0.847   2.437   1.224  0.00  0.00    +0.000 OA
ATOM      2  N   UNL     1       0.116  -1.238   0.666  0.00  0.00    +0.000 NA
ATOM      3  N   UNL     1       0.569   1.616  -0.395  0.00  0.00    +0.000 NA
ATOM      4  N   UNL     1      -1.990  -1.814  -0.095  0.00  0.00    +0.000 NA
ATOM      5  C   UNL     1       1.237  -0.635   0.426  0.00  0.00    +0.000 A 
ATOM      6  C   UNL     1      -1.510   0.522   0.096  0.00  0.00    +0.000 A 
ATOM      7  C   UNL     1       1.400   0.623  -0.396  0.00  0.00    +0.000 A 
ATOM      8  C   UNL     1      -1.124  -0.808   0.180  0.00  0.00    +0.000 A 
ATOM      9  C   UNL     1       2.500  -1.231   0.934  0.00  0.00    +0.000 A 
ATOM     10  C   UNL     1      -0.555   1.592   0.386  0.00  0.00    +0.000 A 
ATOM     11  C   UNL     1       2.644   0.710  -1.200  0.00  0.00    +0.000 A 
ATOM     12  C   UNL     1      -2.815   0.846  -0.271  0.00  0.00    +0.000 A 
ATOM     13  C   UNL     1       3.641  -0.924   0.308  0.00  0.00    +0.000 A 
ATOM     14  C   UNL     1       3.687  -0.042  -0.832  0.00  0.00    +0.000 A 
ATOM     15  C   UNL     1      -3.706  -0.176  -0.564  0.00  0.00    +0.000 A 
ATOM     16  C   UNL     1      -3.247  -1.478  -0.466  0.00  0.00    +0.000 A 
ENDROOT
TORSDOF 0
