REMARK  Name = 23389054
REMARK  4 active torsions:
REMARK  status: ('A' for Active; 'I' for Inactive)
REMARK    1  A    between atoms: N_2  and  C_9
REMARK    2  A    between atoms: N_2  and  C_10
REMARK    3  A    between atoms: N_4  and  C_13
REMARK    4  A    between atoms: C_6  and  C_12
REMARK                            x       y       z     vdW  Elec       q    Type
REMARK                         _______ _______ _______ _____ _____    ______ ____
ROOT
ATOM      1  N   UNL     1      -3.142  -0.130  -0.045  0.00  0.00    +0.000 N 
ATOM      2  N   UNL     1      -1.181   1.218  -0.152  0.00  0.00    +0.000 NA
ATOM      3  C   UNL     1      -1.731  -0.009  -0.007  0.00  0.00    +0.000 A 
ATOM      4  C   UNL     1       0.990   0.177   0.075  0.00  0.00    +0.000 A 
ATOM      5  C   UNL     1      -0.999  -1.170   0.180  0.00  0.00    +0.000 A 
ATOM      6  C   UNL     1       0.387  -1.067   0.220  0.00  0.00    +0.000 A 
ATOM      7  C   UNL     1      -3.765  -1.426   0.107  0.00  0.00    +0.000 C 
ATOM      8  C   UNL     1      -3.969   1.043  -0.223  0.00  0.00    +0.000 C 
ATOM      9  C   UNL     1       0.169   1.279  -0.107  0.00  0.00    +0.000 A 
ENDROOT
BRANCH   4  12
ATOM     10  O   UNL     1       3.002   1.371   0.446  0.00  0.00    +0.000 OA
ATOM     11  N   UNL     1       3.180  -0.800  -0.281  0.00  0.00    +0.000 N 
ATOM     12  C   UNL     1       2.435   0.318   0.113  0.00  0.00    +0.000 C 
ATOM     13  C   UNL     1       4.624  -0.803  -0.325  0.00  0.00    +0.000 C 
ATOM     14  H   UNL     1       2.713  -1.628  -0.636  0.00  0.00    +0.000 HD
ENDBRANCH   4  12
TORSDOF 1
