REMARK  Name = 23389057
REMARK  4 active torsions:
REMARK  status: ('A' for Active; 'I' for Inactive)
REMARK    1  A    between atoms: N_2  and  C_11
REMARK    2  A    between atoms: N_2  and  C_12
REMARK    3  A    between atoms: N_4  and  C_13
REMARK    4  A    between atoms: C_5  and  C_6
REMARK                            x       y       z     vdW  Elec       q    Type
REMARK                         _______ _______ _______ _____ _____    ______ ____
ROOT
ATOM      1  N   UNL     1      -1.506   0.064   1.380  0.00  0.00    +0.000 NA
ATOM      2  N   UNL     1      -3.605   0.407   0.306  0.00  0.00    +0.000 N 
ATOM      3  C   UNL     1       0.464  -0.343   0.038  0.00  0.00    +0.000 A 
ATOM      4  C   UNL     1      -0.297  -0.245  -1.122  0.00  0.00    +0.000 A 
ATOM      5  C   UNL     1      -2.213   0.152   0.231  0.00  0.00    +0.000 A 
ATOM      6  C   UNL     1      -1.662   0.006  -1.032  0.00  0.00    +0.000 A 
ATOM      7  C   UNL     1      -0.182  -0.181   1.253  0.00  0.00    +0.000 A 
ATOM      8  C   UNL     1      -4.529  -0.069  -0.671  0.00  0.00    +0.000 C 
ATOM      9  H   UNL     1      -3.952   0.554   1.248  0.00  0.00    +0.000 HD
ENDROOT
BRANCH   3  12
ATOM     10  O   UNL     1       2.247  -1.792   0.007  0.00  0.00    +0.000 OA
ATOM     11  N   UNL     1       2.783   0.482  -0.095  0.00  0.00    +0.000 N 
ATOM     12  C   UNL     1       1.910  -0.609  -0.023  0.00  0.00    +0.000 C 
ATOM     13  C   UNL     1       4.219   0.245  -0.139  0.00  0.00    +0.000 C 
ATOM     14  C   UNL     1       2.371   1.883  -0.131  0.00  0.00    +0.000 C 
ENDBRANCH   3  12
TORSDOF 1
