REMARK  Name = 23389055
REMARK  5 active torsions:
REMARK  status: ('A' for Active; 'I' for Inactive)
REMARK    1  A    between atoms: N_2  and  C_11
REMARK    2  A    between atoms: N_2  and  C_12
REMARK    3  A    between atoms: N_3  and  C_13
REMARK    4  A    between atoms: N_3  and  C_14
REMARK    5  A    between atoms: C_5  and  C_8
REMARK                            x       y       z     vdW  Elec       q    Type
REMARK                         _______ _______ _______ _____ _____    ______ ____
ROOT
ATOM      1  N   UNL     1      -3.326   0.163  -0.069  0.00  0.00    +0.000 N 
ATOM      2  N   UNL     1      -1.196   0.974   0.626  0.00  0.00    +0.000 NA
ATOM      3  C   UNL     1       0.779  -0.350   0.191  0.00  0.00    +0.000 A 
ATOM      4  C   UNL     1      -1.922   0.003   0.027  0.00  0.00    +0.000 A 
ATOM      5  C   UNL     1      -0.001  -1.327  -0.418  0.00  0.00    +0.000 A 
ATOM      6  C   UNL     1      -1.378  -1.155  -0.506  0.00  0.00    +0.000 A 
ATOM      7  C   UNL     1       0.139   0.771   0.693  0.00  0.00    +0.000 A 
ATOM      8  C   UNL     1      -4.133  -0.856  -0.703  0.00  0.00    +0.000 C 
ATOM      9  C   UNL     1      -3.963   1.341   0.478  0.00  0.00    +0.000 C 
ENDROOT
BRANCH   3  12
ATOM     10  O   UNL     1       2.638  -1.477   0.936  0.00  0.00    +0.000 OA
ATOM     11  N   UNL     1       3.054   0.461  -0.303  0.00  0.00    +0.000 N 
ATOM     12  C   UNL     1       2.239  -0.503   0.300  0.00  0.00    +0.000 C 
ATOM     13  C   UNL     1       4.501   0.341  -0.195  0.00  0.00    +0.000 C 
ATOM     14  C   UNL     1       2.569   1.614  -1.058  0.00  0.00    +0.000 C 
ENDBRANCH   3  12
TORSDOF 1
