REMARK  Name = 23402635
REMARK  5 active torsions:
REMARK  status: ('A' for Active; 'I' for Inactive)
REMARK    1  A    between atoms: N_2  and  C_5
REMARK    2  A    between atoms: C_5  and  C_6
REMARK    3  A    between atoms: C_6  and  C_7
REMARK    4  A    between atoms: C_7  and  C_12
REMARK    5  A    between atoms: C_8  and  C_13
REMARK                            x       y       z     vdW  Elec       q    Type
REMARK                         _______ _______ _______ _____ _____    ______ ____
ROOT
ATOM      1  O   UNL     1      -0.251  -2.070   0.678  0.00  0.00    +0.000 OA
ATOM      2  N   UNL     1      -0.769   0.210   0.513  0.00  0.00    +0.000 N 
ATOM      3  N   UNL     1       0.936   1.762  -0.069  0.00  0.00    +0.000 NA
ATOM      4  N   UNL     1       3.116   1.053  -0.472  0.00  0.00    +0.000 NA
ATOM      5  C   UNL     1      -0.293   1.492   0.243  0.00  0.00    +0.000 A 
ATOM      6  C   UNL     1       0.078  -0.907   0.461  0.00  0.00    +0.000 A 
ATOM      7  C   UNL     1       1.478  -0.610   0.107  0.00  0.00    +0.000 A 
ATOM      8  C   UNL     1       1.850   0.704  -0.142  0.00  0.00    +0.000 A 
ATOM      9  C   UNL     1      -1.268   2.643   0.317  0.00  0.00    +0.000 C 
ATOM     10  C   UNL     1       2.440  -1.615   0.015  0.00  0.00    +0.000 A 
ATOM     11  C   UNL     1       3.744  -1.277  -0.322  0.00  0.00    +0.000 A 
ATOM     12  C   UNL     1       4.029   0.058  -0.553  0.00  0.00    +0.000 A 
ENDROOT
BRANCH   2  13
ATOM     13  C   UNL     1      -2.172  -0.013   0.860  0.00  0.00    +0.000 C 
BRANCH  13  14
ATOM     14  C   UNL     1      -3.040  -0.273  -0.367  0.00  0.00    +0.000 C 
BRANCH  14  15
ATOM     15  C   UNL     1      -4.514  -0.480  -0.011  0.00  0.00    +0.000 C 
ATOM     16  C   UNL     1      -5.364  -0.677  -1.257  0.00  0.00    +0.000 C 
ENDBRANCH  14  15
ENDBRANCH  13  14
ENDBRANCH   2  13
TORSDOF 3
