REMARK  Name = 23402638
REMARK  5 active torsions:
REMARK  status: ('A' for Active; 'I' for Inactive)
REMARK    1  A    between atoms: N_2  and  C_13
REMARK    2  A    between atoms: C_5  and  C_6
REMARK    3  A    between atoms: C_5  and  C_7
REMARK    4  A    between atoms: C_6  and  C_8
REMARK    5  A    between atoms: C_8  and  C_12
REMARK                            x       y       z     vdW  Elec       q    Type
REMARK                         _______ _______ _______ _____ _____    ______ ____
ROOT
ATOM      1  O   UNL     1       1.366  -2.661  -0.387  0.00  0.00    +0.000 OA
ATOM      2  N   UNL     1      -0.408  -1.279   0.272  0.00  0.00    +0.000 N 
ATOM      3  N   UNL     1      -0.035   1.053   0.561  0.00  0.00    +0.000 NA
ATOM      4  N   UNL     1       2.068   1.983   0.205  0.00  0.00    +0.000 NA
ATOM      5  C   UNL     1      -0.817   0.018   0.581  0.00  0.00    +0.000 A 
ATOM      6  C   UNL     1       0.917  -1.556  -0.096  0.00  0.00    +0.000 A 
ATOM      7  C   UNL     1       1.814  -0.386  -0.121  0.00  0.00    +0.000 A 
ATOM      8  C   UNL     1       1.306   0.864   0.206  0.00  0.00    +0.000 A 
ATOM      9  C   UNL     1      -1.351  -2.395   0.319  0.00  0.00    +0.000 C 
ATOM     10  C   UNL     1       3.159  -0.501  -0.466  0.00  0.00    +0.000 A 
ATOM     11  C   UNL     1       3.958   0.636  -0.473  0.00  0.00    +0.000 A 
ATOM     12  C   UNL     1       3.370   1.843  -0.133  0.00  0.00    +0.000 A 
ENDROOT
BRANCH   5  13
ATOM     13  C   UNL     1      -2.261   0.236   0.964  0.00  0.00    +0.000 C 
BRANCH  13  14
ATOM     14  C   UNL     1      -3.097   0.535  -0.269  0.00  0.00    +0.000 C 
BRANCH  14  15
ATOM     15  C   UNL     1      -4.585   0.696   0.051  0.00  0.00    +0.000 C 
ATOM     16  C   UNL     1      -5.404   0.914  -1.213  0.00  0.00    +0.000 C 
ENDBRANCH  14  15
ENDBRANCH  13  14
ENDBRANCH   5  13
TORSDOF 3
