REMARK  Name = 23470909
REMARK  2 active torsions:
REMARK  status: ('A' for Active; 'I' for Inactive)
REMARK    1  A    between atoms: P_1  and  N_5
REMARK    2  A    between atoms: C_7  and  C_12
REMARK                            x       y       z     vdW  Elec       q    Type
REMARK                         _______ _______ _______ _____ _____    ______ ____
ROOT
ATOM      1  N   UNL     1      -0.408  -1.397  -0.068  0.00  0.00    +0.000 NA
ATOM      2  N   UNL     1      -2.582  -0.423  -0.126  0.00  0.00    +0.000 N 
ATOM      3  C   UNL     1       1.536   0.039   0.001  0.00  0.00    +0.000 A 
ATOM      4  C   UNL     1       0.716   1.162  -0.016  0.00  0.00    +0.000 A 
ATOM      5  C   UNL     1      -1.173  -0.282  -0.083  0.00  0.00    +0.000 A 
ATOM      6  C   UNL     1      -0.665   1.008  -0.058  0.00  0.00    +0.000 A 
ATOM      7  C   UNL     1       0.929  -1.207  -0.026  0.00  0.00    +0.000 A 
ATOM      8  H   UNL     1      -2.836  -1.408  -0.147  0.00  0.00    +0.000 HD
ENDROOT
BRANCH   3  11
ATOM      9  O   UNL     1       3.534   1.283   0.088  0.00  0.00    +0.000 OA
ATOM     10  N   UNL     1       3.738  -1.001   0.060  0.00  0.00    +0.000 N 
ATOM     11  C   UNL     1       2.982   0.168   0.046  0.00  0.00    +0.000 C 
ATOM     12  H   UNL     1       3.367  -1.942   0.033  0.00  0.00    +0.000 HD
ATOM     13  H   UNL     1       4.751  -0.940   0.099  0.00  0.00    +0.000 HD
ENDBRANCH   3  11
BRANCH   2  14
ATOM     14  P   UNL     1      -3.770   0.706  -0.231  0.00  0.00    +0.000 P 
ATOM     15  O   UNL     1      -4.836  -0.057   0.413  0.00  0.00    +0.000 OA
ENDBRANCH   2  14
TORSDOF 2
