REMARK  Name = 23517052
REMARK  3 active torsions:
REMARK  status: ('A' for Active; 'I' for Inactive)
REMARK    1  A    between atoms: N_2  and  C_5
REMARK    2  A    between atoms: N_4  and  C_10
REMARK    3  A    between atoms: C_8  and  C_9
REMARK                            x       y       z     vdW  Elec       q    Type
REMARK                         _______ _______ _______ _____ _____    ______ ____
ROOT
ATOM      1  N   UNL     1      -2.913  -0.698   0.585  0.00  0.00    +0.000 NA
ATOM      2  C   UNL     1      -0.794   0.103  -0.260  0.00  0.00    +0.000 A 
ATOM      3  C   UNL     1      -1.622  -0.892   0.235  0.00  0.00    +0.000 A 
ATOM      4  C   UNL     1      -1.325   1.380  -0.403  0.00  0.00    +0.000 A 
ATOM      5  C   UNL     1      -2.650   1.619  -0.053  0.00  0.00    +0.000 A 
ATOM      6  C   UNL     1      -3.395   0.556   0.431  0.00  0.00    +0.000 A 
ENDROOT
BRANCH   2   9
ATOM      7  O   UNL     1       0.880  -0.975  -1.501  0.00  0.00    +0.000 OA
ATOM      8  N   UNL     1       1.570   0.599   0.053  0.00  0.00    +0.000 N 
ATOM      9  C   UNL     1       0.594  -0.137  -0.629  0.00  0.00    +0.000 C 
ATOM     10  H   UNL     1       1.283   1.268   0.764  0.00  0.00    +0.000 HD
BRANCH   8  11
ATOM     11  C   UNL     1       2.978   0.454  -0.190  0.00  0.00    +0.000 C 
ATOM     12  C   UNL     1       3.989   0.811   0.861  0.00  0.00    +0.000 C 
ATOM     13  C   UNL     1       3.774  -0.625   0.484  0.00  0.00    +0.000 C 
ENDBRANCH   8  11
ENDBRANCH   2   9
BRANCH   3  14
ATOM     14  N   UNL     1      -1.087  -2.196   0.385  0.00  0.00    +0.000 N 
ATOM     15  H   UNL     1      -0.362  -2.500  -0.253  0.00  0.00    +0.000 HD
ATOM     16  H   UNL     1      -1.714  -2.901   0.752  0.00  0.00    +0.000 HD
ENDBRANCH   3  14
TORSDOF 3
