REMARK  Name = 23574357
REMARK  10 active torsions:
REMARK  status: ('A' for Active; 'I' for Inactive)
REMARK    1  A    between atoms: N_2  and  C_7
REMARK    2  A    between atoms: N_2  and  C_8
REMARK    3  A    between atoms: N_3  and  C_13
REMARK    4  A    between atoms: N_5  and  C_19
REMARK    5  A    between atoms: C_7  and  C_10
REMARK    6  A    between atoms: C_7  and  C_11
REMARK    7  A    between atoms: C_7  and  C_12
REMARK    8  A    between atoms: C_8  and  C_9
REMARK    9  A    between atoms: C_9  and  C_13
REMARK   10  A    between atoms: C_14  and  C_15
REMARK                            x       y       z     vdW  Elec       q    Type
REMARK                         _______ _______ _______ _____ _____    ______ ____
ROOT
ATOM      1  O   UNL     1      -0.861   2.958  -0.276  0.00  0.00    +0.000 OA
ATOM      2  N   UNL     1       0.431   1.267   0.648  0.00  0.00    +0.000 N 
ATOM      3  C   UNL     1      -0.729   1.793   0.091  0.00  0.00    +0.000 C 
ATOM      4  H   UNL     1       0.456   0.309   0.982  0.00  0.00    +0.000 HD
ENDROOT
BRANCH   3   6
ATOM      5  N   UNL     1      -2.655  -1.389  -0.260  0.00  0.00    +0.000 NA
ATOM      6  C   UNL     1      -1.878   0.859  -0.030  0.00  0.00    +0.000 A 
ATOM      7  C   UNL     1      -3.161   1.350  -0.023  0.00  0.00    +0.000 A 
ATOM      8  C   UNL     1      -1.655  -0.486  -0.147  0.00  0.00    +0.000 A 
ATOM      9  C   UNL     1      -4.217   0.453  -0.137  0.00  0.00    +0.000 A 
ATOM     10  C   UNL     1      -3.913  -0.894  -0.252  0.00  0.00    +0.000 A 
BRANCH  10  11
ATOM     11  N   UNL     1      -4.940  -1.836  -0.369  0.00  0.00    +0.000 NA
ATOM     12  N   UNL     1      -5.288  -2.231   0.764  0.00  0.00    +0.000 NA
ATOM     13  H   UNL     1      -6.043  -2.923   0.703  0.00  0.00    +0.000 HD
ENDBRANCH  10  11
ENDBRANCH   3   6
BRANCH   2  14
ATOM     14  C   UNL     1       1.618   2.050   0.854  0.00  0.00    +0.000 C 
BRANCH  14  15
ATOM     15  C   UNL     1       2.558   2.015  -0.350  0.00  0.00    +0.000 C 
BRANCH  15  16
ATOM     16  C   UNL     1       3.087   0.621  -0.699  0.00  0.00    +0.000 C 
BRANCH  16  17
ATOM     17  N   UNL     1       3.826   0.029   0.404  0.00  0.00    +0.000 NA
ATOM     18  H   UNL     1       4.605   0.634   0.659  0.00  0.00    +0.000 HD
BRANCH  17  19
ATOM     19  C   UNL     1       4.321  -1.302   0.036  0.00  0.00    +0.000 C 
ATOM     20  C   UNL     1       3.122  -2.190  -0.311  0.00  0.00    +0.000 C 
ATOM     21  C   UNL     1       5.081  -1.887   1.231  0.00  0.00    +0.000 C 
ATOM     22  C   UNL     1       5.254  -1.181  -1.174  0.00  0.00    +0.000 C 
ENDBRANCH  17  19
ENDBRANCH  16  17
ENDBRANCH  15  16
ENDBRANCH  14  15
ENDBRANCH   2  14
TORSDOF 7
