REMARK  Name = 237828
REMARK  1 active torsions:
REMARK  status: ('A' for Active; 'I' for Inactive)
REMARK    1  A    between atoms: C_6  and  C_7
REMARK                            x       y       z     vdW  Elec       q    Type
REMARK                         _______ _______ _______ _____ _____    ______ ____
ROOT
ATOM      1  O   UNL     1       0.892   1.758  -0.359  0.00  0.00    +0.000 OA
ATOM      2  O   UNL     1       3.511   0.777  -0.147  0.00  0.00    +0.000 OA
ATOM      3  N   UNL     1       1.528  -0.430   0.118  0.00  0.00    +0.000 N 
ATOM      4  N   UNL     1       3.573  -1.466   0.345  0.00  0.00    +0.000 N 
ATOM      5  C   UNL     1       0.575   0.582  -0.102  0.00  0.00    +0.000 C 
ATOM      6  C   UNL     1       2.918  -0.275   0.083  0.00  0.00    +0.000 C 
ATOM      7  H   UNL     1       1.203  -1.361   0.359  0.00  0.00    +0.000 HD
ATOM      8  H   UNL     1       3.066  -2.325   0.532  0.00  0.00    +0.000 HD
ATOM      9  H   UNL     1       4.586  -1.516   0.357  0.00  0.00    +0.000 HD
ENDROOT
BRANCH   5  11
ATOM     10  N   UNL     1      -3.124   0.801   0.370  0.00  0.00    +0.000 NA
ATOM     11  C   UNL     1      -0.823   0.190  -0.049  0.00  0.00    +0.000 A 
ATOM     12  C   UNL     1      -1.215  -1.110  -0.347  0.00  0.00    +0.000 A 
ATOM     13  C   UNL     1      -1.808   1.100   0.300  0.00  0.00    +0.000 A 
ATOM     14  C   UNL     1      -2.560  -1.456  -0.286  0.00  0.00    +0.000 A 
ATOM     15  C   UNL     1      -3.467  -0.472   0.074  0.00  0.00    +0.000 A 
ENDBRANCH   5  11
TORSDOF 1
