REMARK  Name = 2405731
REMARK  3 active torsions:
REMARK  status: ('A' for Active; 'I' for Inactive)
REMARK    1  A    between atoms: N_3  and  N_5
REMARK    2  A    between atoms: N_4  and  N_6
REMARK    3  A    between atoms: C_7  and  C_12
REMARK                            x       y       z     vdW  Elec       q    Type
REMARK                         _______ _______ _______ _____ _____    ______ ____
ROOT
ATOM      1  N   UNL     1      -1.411   1.381   0.223  0.00  0.00    +0.000 NA
ATOM      2  N   UNL     1      -3.462   0.183   0.033  0.00  0.00    +0.000 N 
ATOM      3  C   UNL     1       0.682   0.205  -0.059  0.00  0.00    +0.000 A 
ATOM      4  C   UNL     1      -0.006  -0.983  -0.280  0.00  0.00    +0.000 A 
ATOM      5  C   UNL     1      -2.046   0.207   0.005  0.00  0.00    +0.000 A 
ATOM      6  C   UNL     1      -1.396  -0.991  -0.249  0.00  0.00    +0.000 A 
ATOM      7  C   UNL     1      -0.060   1.349   0.186  0.00  0.00    +0.000 A 
ATOM      8  H   UNL     1      -3.935   1.051   0.252  0.00  0.00    +0.000 HD
ENDROOT
BRANCH   3  11
ATOM      9  O   UNL     1       2.732   1.301  -0.371  0.00  0.00    +0.000 OA
ATOM     10  N   UNL     1       2.806  -0.936   0.241  0.00  0.00    +0.000 N 
ATOM     11  C   UNL     1       2.134   0.246  -0.085  0.00  0.00    +0.000 C 
ATOM     12  H   UNL     1       2.326  -1.784   0.525  0.00  0.00    +0.000 HD
BRANCH  10  13
ATOM     13  N   UNL     1       4.187  -0.965   0.256  0.00  0.00    +0.000 NA
ATOM     14  H   UNL     1       4.467  -1.246   1.195  0.00  0.00    +0.000 HD
ATOM     15  H   UNL     1       4.473  -1.723  -0.362  0.00  0.00    +0.000 HD
ENDBRANCH  10  13
ENDBRANCH   3  11
BRANCH   2  16
ATOM     16  N   UNL     1      -4.159  -0.997   0.100  0.00  0.00    +0.000 NA
ATOM     17  H   UNL     1      -5.084  -0.852  -0.301  0.00  0.00    +0.000 HD
ATOM     18  H   UNL     1      -4.310  -1.232   1.080  0.00  0.00    +0.000 HD
ENDBRANCH   2  16
TORSDOF 3
