REMARK  Name = 24691059
REMARK  2 active torsions:
REMARK  status: ('A' for Active; 'I' for Inactive)
REMARK    1  A    between atoms: N_3  and  C_11
REMARK    2  A    between atoms: C_12  and  C_14
REMARK                            x       y       z     vdW  Elec       q    Type
REMARK                         _______ _______ _______ _____ _____    ______ ____
ROOT
ATOM      1  N   UNL     1      -1.362  -1.880  -0.104  0.00  0.00    +0.000 NA
ATOM      2  C   UNL     1      -0.869  -0.624  -0.030  0.00  0.00    +0.000 A 
ATOM      3  C   UNL     1      -1.655   0.516   0.021  0.00  0.00    +0.000 A 
ATOM      4  C   UNL     1      -3.036   0.356  -0.004  0.00  0.00    +0.000 A 
ATOM      5  C   UNL     1      -2.709  -1.996  -0.127  0.00  0.00    +0.000 A 
ATOM      6  C   UNL     1      -3.581  -0.920  -0.080  0.00  0.00    +0.000 A 
ENDROOT
BRANCH   2   8
ATOM      7  O   UNL     1       4.540  -0.315  -0.131  0.00  0.00    +0.000 OA
ATOM      8  N   UNL     1       0.521  -0.470  -0.005  0.00  0.00    +0.000 N 
ATOM      9  C   UNL     1       1.209  -0.327  -1.297  0.00  0.00    +0.000 C 
ATOM     10  C   UNL     1       1.302  -1.096   1.069  0.00  0.00    +0.000 C 
ATOM     11  C   UNL     1       2.501   0.462  -1.131  0.00  0.00    +0.000 C 
ATOM     12  C   UNL     1       2.609  -0.343   1.293  0.00  0.00    +0.000 C 
ATOM     13  C   UNL     1       3.331  -0.125  -0.014  0.00  0.00    +0.000 C 
ENDBRANCH   2   8
BRANCH   3  16
ATOM     14  O   UNL     1      -0.847   2.517  -0.924  0.00  0.00    +0.000 OA
ATOM     15  N   UNL     1      -0.860   2.387   1.365  0.00  0.00    +0.000 N 
ATOM     16  C   UNL     1      -1.094   1.858   0.100  0.00  0.00    +0.000 C 
ATOM     17  H   UNL     1      -1.061   1.865   2.213  0.00  0.00    +0.000 HD
ATOM     18  H   UNL     1      -0.476   3.319   1.478  0.00  0.00    +0.000 HD
ENDBRANCH   3  16
TORSDOF 2
