REMARK  Name = 24706580
REMARK  6 active torsions:
REMARK  status: ('A' for Active; 'I' for Inactive)
REMARK    1  A    between atoms: N_2  and  C_7
REMARK    2  A    between atoms: N_2  and  C_9
REMARK    3  A    between atoms: N_3  and  C_8
REMARK    4  A    between atoms: C_6  and  C_7
REMARK    5  A    between atoms: C_6  and  C_8
REMARK    6  A    between atoms: C_10  and  C_13
REMARK                            x       y       z     vdW  Elec       q    Type
REMARK                         _______ _______ _______ _____ _____    ______ ____
ROOT
ATOM      1  N   UNL     1      -1.069   1.858  -0.027  0.00  0.00    +0.000 NA
ATOM      2  C   UNL     1      -0.631   0.583   0.069  0.00  0.00    +0.000 A 
ATOM      3  C   UNL     1      -1.459  -0.527   0.017  0.00  0.00    +0.000 A 
ATOM      4  C   UNL     1      -2.824  -0.314  -0.145  0.00  0.00    +0.000 A 
ATOM      5  C   UNL     1      -3.312   0.984  -0.248  0.00  0.00    +0.000 A 
ATOM      6  C   UNL     1      -2.401   2.026  -0.183  0.00  0.00    +0.000 A 
ENDROOT
BRANCH   3   9
ATOM      7  O   UNL     1      -0.870  -2.462   1.223  0.00  0.00    +0.000 OA
ATOM      8  N   UNL     1      -0.598  -2.540  -1.053  0.00  0.00    +0.000 N 
ATOM      9  C   UNL     1      -0.958  -1.891   0.123  0.00  0.00    +0.000 C 
ATOM     10  H   UNL     1      -0.669  -2.091  -1.960  0.00  0.00    +0.000 HD
ATOM     11  H   UNL     1      -0.248  -3.492  -1.037  0.00  0.00    +0.000 HD
ENDBRANCH   3   9
BRANCH   2  12
ATOM     12  N   UNL     1       0.733   0.378   0.230  0.00  0.00    +0.000 N 
ATOM     13  H   UNL     1       1.012  -0.514   0.625  0.00  0.00    +0.000 HD
BRANCH  12  14
ATOM     14  C   UNL     1       1.701   1.438   0.300  0.00  0.00    +0.000 C 
BRANCH  14  15
ATOM     15  C   UNL     1       3.116   0.924   0.550  0.00  0.00    +0.000 C 
BRANCH  15  16
ATOM     16  C   UNL     1       3.604  -0.003  -0.565  0.00  0.00    +0.000 C 
BRANCH  16  17
ATOM     17  N   UNL     1       4.964  -0.452  -0.289  0.00  0.00    +0.000 NA
ATOM     18  H   UNL     1       5.259  -1.104  -1.015  0.00  0.00    +0.000 HD
ATOM     19  H   UNL     1       4.983  -0.972   0.587  0.00  0.00    +0.000 HD
ENDBRANCH  16  17
ENDBRANCH  15  16
ENDBRANCH  14  15
ENDBRANCH  12  14
ENDBRANCH   2  12
TORSDOF 6
