REMARK  Name = 24703666
REMARK  3 active torsions:
REMARK  status: ('A' for Active; 'I' for Inactive)
REMARK    1  A    between atoms: N_3  and  C_6
REMARK    2  A    between atoms: N_3  and  C_11
REMARK    3  A    between atoms: C_12  and  C_14
REMARK                            x       y       z     vdW  Elec       q    Type
REMARK                         _______ _______ _______ _____ _____    ______ ____
ROOT
ATOM      1  N   UNL     1      -0.988   1.809  -0.257  0.00  0.00    +0.000 NA
ATOM      2  C   UNL     1      -0.826   0.467  -0.220  0.00  0.00    +0.000 A 
ATOM      3  C   UNL     1      -1.850  -0.432   0.030  0.00  0.00    +0.000 A 
ATOM      4  C   UNL     1      -3.123   0.079   0.257  0.00  0.00    +0.000 A 
ATOM      5  C   UNL     1      -2.240   2.268  -0.033  0.00  0.00    +0.000 A 
ATOM      6  C   UNL     1      -3.330   1.454   0.226  0.00  0.00    +0.000 A 
ENDROOT
BRANCH   3   9
ATOM      7  O   UNL     1      -1.742  -2.564  -0.964  0.00  0.00    +0.000 OA
ATOM      8  N   UNL     1      -1.313  -2.450   1.286  0.00  0.00    +0.000 N 
ATOM      9  C   UNL     1      -1.644  -1.873   0.064  0.00  0.00    +0.000 C 
ATOM     10  H   UNL     1      -1.220  -1.899   2.134  0.00  0.00    +0.000 HD
ATOM     11  H   UNL     1      -1.152  -3.448   1.365  0.00  0.00    +0.000 HD
ENDBRANCH   3   9
BRANCH   2  12
ATOM     12  N   UNL     1       0.443  -0.034  -0.446  0.00  0.00    +0.000 N 
ATOM     13  H   UNL     1       0.633  -0.969  -0.101  0.00  0.00    +0.000 HD
BRANCH  12  15
ATOM     14  N   UNL     1       3.934  -0.298   0.677  0.00  0.00    +0.000 NA
ATOM     15  C   UNL     1       1.596   0.801  -0.718  0.00  0.00    +0.000 C 
ATOM     16  C   UNL     1       2.675  -0.016  -1.432  0.00  0.00    +0.000 C 
ATOM     17  C   UNL     1       2.138   1.401   0.582  0.00  0.00    +0.000 C 
ATOM     18  C   UNL     1       3.388  -0.989  -0.491  0.00  0.00    +0.000 C 
ATOM     19  C   UNL     1       2.884   0.376   1.438  0.00  0.00    +0.000 C 
ATOM     20  H   UNL     1       4.404  -0.975   1.278  0.00  0.00    +0.000 HD
ENDBRANCH  12  15
ENDBRANCH   2  12
TORSDOF 3
