REMARK  Name = 24710600
REMARK  5 active torsions:
REMARK  status: ('A' for Active; 'I' for Inactive)
REMARK    1  A    between atoms: N_2  and  C_6
REMARK    2  A    between atoms: N_2  and  C_7
REMARK    3  A    between atoms: N_4  and  C_8
REMARK    4  A    between atoms: C_6  and  C_8
REMARK    5  A    between atoms: C_9  and  C_12
REMARK                            x       y       z     vdW  Elec       q    Type
REMARK                         _______ _______ _______ _____ _____    ______ ____
ROOT
ATOM      1  N   UNL     1      -0.151   1.825   0.021  0.00  0.00    +0.000 NA
ATOM      2  C   UNL     1      -0.143   0.474  -0.001  0.00  0.00    +0.000 A 
ATOM      3  C   UNL     1      -1.286  -0.309  -0.024  0.00  0.00    +0.000 A 
ATOM      4  C   UNL     1      -2.517   0.338  -0.026  0.00  0.00    +0.000 A 
ATOM      5  C   UNL     1      -2.566   1.727  -0.004  0.00  0.00    +0.000 A 
ATOM      6  C   UNL     1      -1.366   2.418   0.019  0.00  0.00    +0.000 A 
ENDROOT
BRANCH   3   9
ATOM      7  O   UNL     1      -1.199  -2.393  -1.118  0.00  0.00    +0.000 OA
ATOM      8  N   UNL     1      -1.238  -2.429   1.175  0.00  0.00    +0.000 N 
ATOM      9  C   UNL     1      -1.245  -1.764  -0.047  0.00  0.00    +0.000 C 
ATOM     10  H   UNL     1      -1.267  -1.932   2.059  0.00  0.00    +0.000 HD
ATOM     11  H   UNL     1      -1.204  -3.442   1.218  0.00  0.00    +0.000 HD
ENDBRANCH   3   9
BRANCH   2  12
ATOM     12  N   UNL     1       1.088  -0.163   0.000  0.00  0.00    +0.000 N 
ATOM     13  H   UNL     1       1.102  -1.138   0.283  0.00  0.00    +0.000 HD
BRANCH  12  14
ATOM     14  C   UNL     1       2.352   0.534   0.024  0.00  0.00    +0.000 C 
BRANCH  14  15
ATOM     15  C   UNL     1       3.494  -0.473  -0.018  0.00  0.00    +0.000 C 
BRANCH  15  16
ATOM     16  N   UNL     1       4.778   0.216  -0.003  0.00  0.00    +0.000 NA
ATOM     17  H   UNL     1       4.854   0.819  -0.821  0.00  0.00    +0.000 HD
ATOM     18  H   UNL     1       5.529  -0.469  -0.082  0.00  0.00    +0.000 HD
ENDBRANCH  15  16
ENDBRANCH  14  15
ENDBRANCH  12  14
ENDBRANCH   2  12
TORSDOF 5
