REMARK  Name = 24756456
REMARK  3 active torsions:
REMARK  status: ('A' for Active; 'I' for Inactive)
REMARK    1  A    between atoms: N_3  and  C_7
REMARK    2  A    between atoms: N_5  and  C_9
REMARK    3  A    between atoms: C_6  and  C_8
REMARK                            x       y       z     vdW  Elec       q    Type
REMARK                         _______ _______ _______ _____ _____    ______ ____
ROOT
ATOM      1  O   UNL     1      -0.521   1.453  -1.017  0.00  0.00    +0.000 OA
ATOM      2  N   UNL     1       0.225  -0.467   0.117  0.00  0.00    +0.000 N 
ATOM      3  C   UNL     1      -0.733   0.401  -0.424  0.00  0.00    +0.000 C 
ATOM      4  H   UNL     1      -0.123  -1.299   0.588  0.00  0.00    +0.000 HD
ENDROOT
BRANCH   2   6
ATOM      5  I   UNL     1       6.457   0.149   0.054  0.00  0.00    +0.000 I 
ATOM      6  C   UNL     1       1.613  -0.330   0.103  0.00  0.00    +0.000 A 
ATOM      7  C   UNL     1       2.198   0.781  -0.506  0.00  0.00    +0.000 A 
ATOM      8  C   UNL     1       2.416  -1.303   0.697  0.00  0.00    +0.000 A 
ATOM      9  C   UNL     1       3.586   0.918  -0.520  0.00  0.00    +0.000 A 
ATOM     10  C   UNL     1       3.804  -1.166   0.683  0.00  0.00    +0.000 A 
ATOM     11  C   UNL     1       4.389  -0.055   0.075  0.00  0.00    +0.000 A 
ENDBRANCH   2   6
BRANCH   3  13
ATOM     12  N   UNL     1      -4.356   0.430   0.658  0.00  0.00    +0.000 NA
ATOM     13  C   UNL     1      -2.148  -0.008  -0.223  0.00  0.00    +0.000 A 
ATOM     14  C   UNL     1      -3.065   0.775   0.460  0.00  0.00    +0.000 A 
ATOM     15  C   UNL     1      -2.586  -1.224  -0.736  0.00  0.00    +0.000 A 
ATOM     16  C   UNL     1      -3.908  -1.614  -0.552  0.00  0.00    +0.000 A 
ATOM     17  C   UNL     1      -4.745  -0.759   0.146  0.00  0.00    +0.000 A 
BRANCH  14  18
ATOM     18  N   UNL     1      -2.627   2.018   0.985  0.00  0.00    +0.000 N 
ATOM     19  H   UNL     1      -1.662   2.107   1.277  0.00  0.00    +0.000 HD
ATOM     20  H   UNL     1      -3.319   2.570   1.476  0.00  0.00    +0.000 HD
ENDBRANCH  14  18
ENDBRANCH   3  13
TORSDOF 3
