REMARK  Name = 250375
REMARK  5 active torsions:
REMARK  status: ('A' for Active; 'I' for Inactive)
REMARK    1  A    between atoms: N_2  and  C_6
REMARK    2  A    between atoms: C_5  and  C_6
REMARK    3  A    between atoms: C_5  and  C_7
REMARK    4  A    between atoms: C_7  and  C_8
REMARK    5  A    between atoms: C_11  and  C_14
REMARK                            x       y       z     vdW  Elec       q    Type
REMARK                         _______ _______ _______ _____ _____    ______ ____
ROOT
ATOM      1  N   UNL     1       1.583  -0.734  -0.048  0.00  0.00    +0.000 N 
ATOM      2  N   UNL     1      -0.666  -1.519  -0.009  0.00  0.00    +0.000 NA
ATOM      3  C   UNL     1       0.221  -0.479  -0.029  0.00  0.00    +0.000 A 
ATOM      4  C   UNL     1      -0.206   0.855  -0.032  0.00  0.00    +0.000 A 
ATOM      5  C   UNL     1      -2.482   0.077   0.008  0.00  0.00    +0.000 A 
ATOM      6  C   UNL     1      -1.570   1.126  -0.013  0.00  0.00    +0.000 A 
ATOM      7  C   UNL     1      -1.983  -1.216   0.009  0.00  0.00    +0.000 A 
ATOM      8  H   UNL     1       1.865  -1.708  -0.049  0.00  0.00    +0.000 HD
ENDROOT
BRANCH   5  11
ATOM      9  O   UNL     1      -4.370   1.486   0.012  0.00  0.00    +0.000 OA
ATOM     10  N   UNL     1      -4.765  -0.773   0.049  0.00  0.00    +0.000 N 
ATOM     11  C   UNL     1      -3.912   0.328   0.029  0.00  0.00    +0.000 C 
ATOM     12  H   UNL     1      -4.474  -1.742   0.059  0.00  0.00    +0.000 HD
ATOM     13  H   UNL     1      -5.769  -0.626   0.057  0.00  0.00    +0.000 HD
ENDBRANCH   5  11
BRANCH   1  14
ATOM     14  C   UNL     1       2.592   0.298  -0.070  0.00  0.00    +0.000 C 
BRANCH  14  15
ATOM     15  C   UNL     1       3.990  -0.311  -0.023  0.00  0.00    +0.000 C 
BRANCH  15  16
ATOM     16  C   UNL     1       5.095   0.749   0.003  0.00  0.00    +0.000 C 
ATOM     17  C   UNL     1       6.472   0.113   0.115  0.00  0.00    +0.000 C 
ENDBRANCH  15  16
ENDBRANCH  14  15
ENDBRANCH   1  14
TORSDOF 4
