REMARK  Name = 252926
REMARK  2 active torsions:
REMARK  status: ('A' for Active; 'I' for Inactive)
REMARK    1  A    between atoms: C_7  and  C_12
REMARK    2  A    between atoms: C_11  and  C_13
REMARK                            x       y       z     vdW  Elec       q    Type
REMARK                         _______ _______ _______ _____ _____    ______ ____
ROOT
ATOM      1  O   UNL     1      -3.199   1.490  -0.001  0.00  0.00    +0.000 OA
ATOM      2  N   UNL     1      -2.286  -0.683   0.001  0.00  0.00    +0.000 N 
ATOM      3  N   UNL     1      -0.457   0.816   0.001  0.00  0.00    +0.000 NA
ATOM      4  C   UNL     1      -0.904  -0.460   0.002  0.00  0.00    +0.000 A 
ATOM      5  C   UNL     1       1.796  -0.063   0.003  0.00  0.00    +0.000 A 
ATOM      6  C   UNL     1      -0.077  -1.572   0.004  0.00  0.00    +0.000 A 
ATOM      7  C   UNL     1       1.297  -1.361   0.004  0.00  0.00    +0.000 A 
ATOM      8  C   UNL     1       0.885   0.982   0.001  0.00  0.00    +0.000 A 
ATOM      9  C   UNL     1      -3.311   0.268  -0.000  0.00  0.00    +0.000 C 
ATOM     10  C   UNL     1      -4.672  -0.382  -0.006  0.00  0.00    +0.000 C 
ATOM     11  H   UNL     1      -2.571  -1.660   0.001  0.00  0.00    +0.000 HD
ENDROOT
BRANCH   5  14
ATOM     12  O   UNL     1       4.051  -0.741  -0.012  0.00  0.00    +0.000 OA
ATOM     13  N   UNL     1       3.651   1.517   0.001  0.00  0.00    +0.000 N 
ATOM     14  C   UNL     1       3.226   0.190   0.003  0.00  0.00    +0.000 C 
ATOM     15  H   UNL     1       3.046   2.329   0.008  0.00  0.00    +0.000 HD
ATOM     16  H   UNL     1       4.645   1.722  -0.005  0.00  0.00    +0.000 HD
ENDBRANCH   5  14
TORSDOF 1
