REMARK  Name = 25550608
REMARK  2 active torsions:
REMARK  status: ('A' for Active; 'I' for Inactive)
REMARK    1  A    between atoms: N_2  and  C_11
REMARK    2  A    between atoms: C_12  and  C_14
REMARK                            x       y       z     vdW  Elec       q    Type
REMARK                         _______ _______ _______ _____ _____    ______ ____
ROOT
ATOM      1  N   UNL     1      -1.330  -1.886  -0.142  0.00  0.00    +0.000 NA
ATOM      2  C   UNL     1      -0.832  -0.633  -0.053  0.00  0.00    +0.000 A 
ATOM      3  C   UNL     1      -1.612   0.509   0.028  0.00  0.00    +0.000 A 
ATOM      4  C   UNL     1      -2.994   0.354   0.016  0.00  0.00    +0.000 A 
ATOM      5  C   UNL     1      -2.678  -1.997  -0.150  0.00  0.00    +0.000 A 
ATOM      6  C   UNL     1      -3.545  -0.919  -0.075  0.00  0.00    +0.000 A 
ENDROOT
BRANCH   2   7
ATOM      7  N   UNL     1       0.561  -0.485  -0.044  0.00  0.00    +0.000 N 
ATOM      8  C   UNL     1       3.776  -0.477   0.660  0.00  0.00    +0.000 C 
ATOM      9  C   UNL     1       3.714   0.184  -0.709  0.00  0.00    +0.000 C 
ATOM     10  C   UNL     1       2.520  -0.287   1.504  0.00  0.00    +0.000 C 
ATOM     11  C   UNL     1       2.537  -0.265  -1.568  0.00  0.00    +0.000 C 
ATOM     12  C   UNL     1       1.335  -1.123   1.023  0.00  0.00    +0.000 C 
ATOM     13  C   UNL     1       1.196   0.303  -1.103  0.00  0.00    +0.000 C 
ENDBRANCH   2   7
BRANCH   3  16
ATOM     14  O   UNL     1      -0.808   2.520  -0.898  0.00  0.00    +0.000 OA
ATOM     15  N   UNL     1      -0.795   2.356   1.390  0.00  0.00    +0.000 N 
ATOM     16  C   UNL     1      -1.045   1.847   0.120  0.00  0.00    +0.000 C 
ATOM     17  H   UNL     1      -0.987   1.823   2.232  0.00  0.00    +0.000 HD
ATOM     18  H   UNL     1      -0.405   3.285   1.512  0.00  0.00    +0.000 HD
ENDBRANCH   3  16
TORSDOF 2
