REMARK  Name = 25587592
REMARK  5 active torsions:
REMARK  status: ('A' for Active; 'I' for Inactive)
REMARK    1  A    between atoms: N_2  and  C_5
REMARK    2  A    between atoms: N_2  and  C_7
REMARK    3  A    between atoms: N_2  and  C_8
REMARK    4  A    between atoms: C_5  and  C_6
REMARK    5  A    between atoms: C_9  and  C_16
REMARK                            x       y       z     vdW  Elec       q    Type
REMARK                         _______ _______ _______ _____ _____    ______ ____
ROOT
ATOM      1  N   UNL     1      -2.091  -1.589   0.612  0.00  0.00    +0.000 NA
ATOM      2  C   UNL     1      -1.421  -0.416   0.556  0.00  0.00    +0.000 A 
ATOM      3  C   UNL     1      -1.663   0.572  -0.385  0.00  0.00    +0.000 A 
ATOM      4  C   UNL     1      -2.658   0.342  -1.329  0.00  0.00    +0.000 A 
ATOM      5  C   UNL     1      -3.370  -0.853  -1.304  0.00  0.00    +0.000 A 
ATOM      6  C   UNL     1      -3.051  -1.777  -0.322  0.00  0.00    +0.000 A 
ENDROOT
BRANCH   3   9
ATOM      7  O   UNL     1      -1.299   2.819   0.221  0.00  0.00    +0.000 OA
ATOM      8  N   UNL     1       0.239   1.866  -1.189  0.00  0.00    +0.000 N 
ATOM      9  C   UNL     1      -0.921   1.825  -0.422  0.00  0.00    +0.000 C 
ATOM     10  H   UNL     1       0.557   1.068  -1.729  0.00  0.00    +0.000 HD
ATOM     11  H   UNL     1       0.801   2.709  -1.240  0.00  0.00    +0.000 HD
ENDBRANCH   3   9
BRANCH   2  12
ATOM     12  N   UNL     1      -0.419  -0.192   1.508  0.00  0.00    +0.000 N 
ATOM     13  C   UNL     1      -0.512   0.946   2.421  0.00  0.00    +0.000 C 
BRANCH  12  14
ATOM     14  C   UNL     1       0.722  -1.076   1.621  0.00  0.00    +0.000 C 
BRANCH  14  15
ATOM     15  C   UNL     1       1.765  -0.732   0.612  0.00  0.00    +0.000 A 
ATOM     16  C   UNL     1       1.742  -1.332  -0.647  0.00  0.00    +0.000 A 
ATOM     17  C   UNL     1       2.764   0.189   0.928  0.00  0.00    +0.000 A 
ATOM     18  C   UNL     1       2.718  -1.011  -1.590  0.00  0.00    +0.000 A 
ATOM     19  C   UNL     1       3.740   0.510  -0.015  0.00  0.00    +0.000 A 
ATOM     20  C   UNL     1       3.717  -0.090  -1.274  0.00  0.00    +0.000 A 
ENDBRANCH  14  15
ENDBRANCH  12  14
ENDBRANCH   2  12
TORSDOF 4
