REMARK  Name = 25618377
REMARK  2 active torsions:
REMARK  status: ('A' for Active; 'I' for Inactive)
REMARK    1  A    between atoms: N_2  and  C_12
REMARK    2  A    between atoms: C_13  and  C_15
REMARK                            x       y       z     vdW  Elec       q    Type
REMARK                         _______ _______ _______ _____ _____    ______ ____
ROOT
ATOM      1  N   UNL     1       0.266  -1.741  -0.000  0.00  0.00    +0.000 NA
ATOM      2  C   UNL     1       0.594  -0.429  -0.002  0.00  0.00    +0.000 A 
ATOM      3  C   UNL     1       1.896   0.045  -0.025  0.00  0.00    +0.000 A 
ATOM      4  C   UNL     1       2.927  -0.887  -0.049  0.00  0.00    +0.000 A 
ATOM      5  C   UNL     1       1.295  -2.617  -0.024  0.00  0.00    +0.000 A 
ATOM      6  C   UNL     1       2.630  -2.246  -0.048  0.00  0.00    +0.000 A 
ENDROOT
BRANCH   2   7
ATOM      7  N   UNL     1      -0.449   0.502   0.025  0.00  0.00    +0.000 N 
ATOM      8  C   UNL     1      -3.446  -0.755  -0.046  0.00  0.00    +0.000 C 
ATOM      9  C   UNL     1      -3.369   0.009   1.278  0.00  0.00    +0.000 C 
ATOM     10  C   UNL     1      -3.349   0.120  -1.298  0.00  0.00    +0.000 C 
ATOM     11  C   UNL     1      -1.987   0.037   1.930  0.00  0.00    +0.000 C 
ATOM     12  C   UNL     1      -1.960   0.193  -1.932  0.00  0.00    +0.000 C 
ATOM     13  C   UNL     1      -0.999   1.008   1.288  0.00  0.00    +0.000 C 
ATOM     14  C   UNL     1      -0.975   1.105  -1.204  0.00  0.00    +0.000 C 
ENDBRANCH   2   7
BRANCH   3  17
ATOM     15  O   UNL     1       2.326   2.105  -1.082  0.00  0.00    +0.000 OA
ATOM     16  N   UNL     1       2.382   2.087   1.211  0.00  0.00    +0.000 N 
ATOM     17  C   UNL     1       2.218   1.465  -0.022  0.00  0.00    +0.000 C 
ATOM     18  H   UNL     1       2.294   1.582   2.086  0.00  0.00    +0.000 HD
ATOM     19  H   UNL     1       2.600   3.077   1.271  0.00  0.00    +0.000 HD
ENDBRANCH   3  17
TORSDOF 2
