REMARK  Name = 25652799
REMARK  3 active torsions:
REMARK  status: ('A' for Active; 'I' for Inactive)
REMARK    1  A    between atoms: N_2  and  C_11
REMARK    2  A    between atoms: C_5  and  C_10
REMARK    3  A    between atoms: C_12  and  C_14
REMARK                            x       y       z     vdW  Elec       q    Type
REMARK                         _______ _______ _______ _____ _____    ______ ____
ROOT
ATOM      1  N   UNL     1       1.483   1.843   0.096  0.00  0.00    +0.000 NA
ATOM      2  C   UNL     1       0.924   0.614   0.034  0.00  0.00    +0.000 A 
ATOM      3  C   UNL     1       1.649  -0.565  -0.026  0.00  0.00    +0.000 A 
ATOM      4  C   UNL     1       3.037  -0.477  -0.021  0.00  0.00    +0.000 A 
ATOM      5  C   UNL     1       2.834   1.890   0.098  0.00  0.00    +0.000 A 
ATOM      6  C   UNL     1       3.648   0.770   0.042  0.00  0.00    +0.000 A 
ENDROOT
BRANCH   2   7
ATOM      7  N   UNL     1      -0.474   0.533   0.027  0.00  0.00    +0.000 N 
ATOM      8  C   UNL     1      -3.368   0.481   0.110  0.00  0.00    +0.000 C 
ATOM      9  C   UNL     1      -2.600   0.530  -1.215  0.00  0.00    +0.000 C 
ATOM     10  C   UNL     1      -2.519  -0.238   1.164  0.00  0.00    +0.000 C 
ATOM     11  C   UNL     1      -1.229   1.185  -1.048  0.00  0.00    +0.000 C 
ATOM     12  C   UNL     1      -1.151   0.424   1.326  0.00  0.00    +0.000 C 
ATOM     13  C   UNL     1      -4.716  -0.213  -0.068  0.00  0.00    +0.000 C 
ENDBRANCH   2   7
BRANCH   3  16
ATOM     14  O   UNL     1       0.724  -2.507   0.934  0.00  0.00    +0.000 OA
ATOM     15  N   UNL     1       0.739  -2.392  -1.356  0.00  0.00    +0.000 N 
ATOM     16  C   UNL     1       1.019  -1.876  -0.095  0.00  0.00    +0.000 C 
ATOM     17  H   UNL     1       0.964  -1.887  -2.207  0.00  0.00    +0.000 HD
ATOM     18  H   UNL     1       0.294  -3.298  -1.462  0.00  0.00    +0.000 HD
ENDBRANCH   3  16
TORSDOF 2
