REMARK  Name = 261592
REMARK  1 active torsions:
REMARK  status: ('A' for Active; 'I' for Inactive)
REMARK    1  A    between atoms: C_12  and  C_14
REMARK                            x       y       z     vdW  Elec       q    Type
REMARK                         _______ _______ _______ _____ _____    ______ ____
ROOT
ATOM      1  N   UNL     1      -2.049   0.011  -0.001  0.00  0.00    +0.000 N 
ATOM      2  N   UNL     1       0.042   1.194   0.040  0.00  0.00    +0.000 NA
ATOM      3  C   UNL     1      -4.275  -0.693   0.282  0.00  0.00    +0.000 C 
ATOM      4  C   UNL     1      -4.274   0.718  -0.282  0.00  0.00    +0.000 C 
ATOM      5  C   UNL     1      -2.871  -1.197  -0.041  0.00  0.00    +0.000 C 
ATOM      6  C   UNL     1      -2.869   1.219   0.041  0.00  0.00    +0.000 C 
ATOM      7  C   UNL     1      -0.671   0.009   0.000  0.00  0.00    +0.000 A 
ATOM      8  C   UNL     1       0.025  -1.222  -0.041  0.00  0.00    +0.000 A 
ATOM      9  C   UNL     1       1.415  -1.240  -0.040  0.00  0.00    +0.000 A 
ATOM     10  C   UNL     1       2.120  -0.042   0.001  0.00  0.00    +0.000 A 
ATOM     11  C   UNL     1       1.393   1.137   0.040  0.00  0.00    +0.000 A 
ENDROOT
BRANCH  10  14
ATOM     12  O   UNL     1       4.234  -1.079  -0.048  0.00  0.00    +0.000 OA
ATOM     13  N   UNL     1       4.208   1.212   0.045  0.00  0.00    +0.000 N 
ATOM     14  C   UNL     1       3.572  -0.026   0.003  0.00  0.00    +0.000 C 
ATOM     15  H   UNL     1       3.745   2.111   0.083  0.00  0.00    +0.000 HD
ATOM     16  H   UNL     1       5.223   1.252   0.041  0.00  0.00    +0.000 HD
ENDBRANCH  10  14
TORSDOF 1
