REMARK  Name = 270260
REMARK  0 active torsions:
REMARK  status: ('A' for Active; 'I' for Inactive)
REMARK                            x       y       z     vdW  Elec       q    Type
REMARK                         _______ _______ _______ _____ _____    ______ ____
ROOT
ATOM      1  O   UNL     1       0.642   2.640  -0.001  0.00  0.00    +0.000 OA
ATOM      2  O   UNL     1       3.209  -1.190  -0.001  0.00  0.00    +0.000 OA
ATOM      3  N   UNL     1       0.924  -1.394   0.000  0.00  0.00    +0.000 N 
ATOM      4  N   UNL     1       1.932   0.724   0.001  0.00  0.00    +0.000 N 
ATOM      5  N   UNL     1      -1.426  -1.646   0.000  0.00  0.00    +0.000 NA
ATOM      6  C   UNL     1      -0.479   0.568   0.001  0.00  0.00    +0.000 A 
ATOM      7  C   UNL     1      -0.356  -0.817   0.001  0.00  0.00    +0.000 A 
ATOM      8  C   UNL     1       0.727   1.417   0.000  0.00  0.00    +0.000 A 
ATOM      9  C   UNL     1      -1.754   1.131   0.000  0.00  0.00    +0.000 A 
ATOM     10  C   UNL     1       2.096  -0.660   0.000  0.00  0.00    +0.000 A 
ATOM     11  C   UNL     1      -2.865   0.297  -0.001  0.00  0.00    +0.000 A 
ATOM     12  C   UNL     1      -2.650  -1.070  -0.001  0.00  0.00    +0.000 A 
ATOM     13  H   UNL     1       0.975  -2.408  -0.000  0.00  0.00    +0.000 HD
ATOM     14  H   UNL     1       2.780   1.284   0.001  0.00  0.00    +0.000 HD
ENDROOT
TORSDOF 0
