REMARK  Name = 2763340
REMARK  2 active torsions:
REMARK  status: ('A' for Active; 'I' for Inactive)
REMARK    1  A    between atoms: N_3  and  N_5
REMARK    2  A    between atoms: C_6  and  C_11
REMARK                            x       y       z     vdW  Elec       q    Type
REMARK                         _______ _______ _______ _____ _____    ______ ____
ROOT
ATOM      1  N   UNL     1      -1.904   1.122  -0.225  0.00  0.00    +0.000 NA
ATOM      2  N   UNL     1      -3.833  -0.269  -0.078  0.00  0.00    +0.000 N 
ATOM      3  C   UNL     1       0.290   0.146   0.057  0.00  0.00    +0.000 A 
ATOM      4  C   UNL     1      -0.284  -1.106   0.249  0.00  0.00    +0.000 A 
ATOM      5  C   UNL     1      -1.667  -1.246   0.204  0.00  0.00    +0.000 A 
ATOM      6  C   UNL     1      -0.556   1.218  -0.174  0.00  0.00    +0.000 A 
ATOM      7  C   UNL     1      -2.425  -0.111  -0.034  0.00  0.00    +0.000 A 
ATOM      8  H   UNL     1      -4.383   0.563  -0.247  0.00  0.00    +0.000 HD
ATOM      9  H   UNL     1      -4.250  -1.020   0.458  0.00  0.00    +0.000 HD
ENDROOT
BRANCH   3  12
ATOM     10  O   UNL     1       2.267   1.405   0.399  0.00  0.00    +0.000 OA
ATOM     11  N   UNL     1       2.501  -0.791  -0.244  0.00  0.00    +0.000 N 
ATOM     12  C   UNL     1       1.730   0.324   0.100  0.00  0.00    +0.000 C 
ATOM     13  H   UNL     1       2.101  -1.672  -0.549  0.00  0.00    +0.000 HD
BRANCH  11  14
ATOM     14  N   UNL     1       3.880  -0.693  -0.253  0.00  0.00    +0.000 NA
ATOM     15  H   UNL     1       4.232  -1.434   0.351  0.00  0.00    +0.000 HD
ATOM     16  H   UNL     1       4.187  -0.928  -1.196  0.00  0.00    +0.000 HD
ENDBRANCH  11  14
ENDBRANCH   3  12
TORSDOF 2
