REMARK  Name = 28103819
REMARK  4 active torsions:
REMARK  status: ('A' for Active; 'I' for Inactive)
REMARK    1  A    between atoms: N_2  and  C_8
REMARK    2  A    between atoms: N_2  and  C_9
REMARK    3  A    between atoms: C_5  and  C_8
REMARK    4  A    between atoms: C_10  and  C_12
REMARK                            x       y       z     vdW  Elec       q    Type
REMARK                         _______ _______ _______ _____ _____    ______ ____
ROOT
ATOM      1  N   UNL     1      -0.627  -1.864   0.028  0.00  0.00    +0.000 NA
ATOM      2  C   UNL     1      -0.491  -0.520   0.090  0.00  0.00    +0.000 A 
ATOM      3  C   UNL     1      -1.548   0.371   0.009  0.00  0.00    +0.000 A 
ATOM      4  C   UNL     1      -2.828  -0.150  -0.147  0.00  0.00    +0.000 A 
ATOM      5  C   UNL     1      -1.886  -2.333  -0.125  0.00  0.00    +0.000 A 
ATOM      6  C   UNL     1      -3.009  -1.527  -0.216  0.00  0.00    +0.000 A 
ENDROOT
BRANCH   3   9
ATOM      7  O   UNL     1      -1.388   2.418   1.163  0.00  0.00    +0.000 OA
ATOM      8  N   UNL     1      -1.157   2.496  -1.117  0.00  0.00    +0.000 N 
ATOM      9  C   UNL     1      -1.369   1.815   0.077  0.00  0.00    +0.000 C 
ATOM     10  H   UNL     1      -1.131   2.019  -2.013  0.00  0.00    +0.000 HD
ATOM     11  H   UNL     1      -1.020   3.501  -1.127  0.00  0.00    +0.000 HD
ENDBRANCH   3   9
BRANCH   2  12
ATOM     12  N   UNL     1       0.817   0.003   0.247  0.00  0.00    +0.000 N 
ATOM     13  H   UNL     1       0.881   0.942   0.628  0.00  0.00    +0.000 HD
BRANCH  12  14
ATOM     14  C   UNL     1       1.973  -0.828   0.341  0.00  0.00    +0.000 C 
BRANCH  14  15
ATOM     15  C   UNL     1       3.208  -0.000   0.477  0.00  0.00    +0.000 C 
ATOM     16  C   UNL     1       3.804   0.636  -0.744  0.00  0.00    +0.000 C 
ATOM     17  C   UNL     1       4.501  -0.516  -0.084  0.00  0.00    +0.000 C 
ENDBRANCH  14  15
ENDBRANCH  12  14
ENDBRANCH   2  12
TORSDOF 4
