REMARK  Name = 28103503
REMARK  10 active torsions:
REMARK  status: ('A' for Active; 'I' for Inactive)
REMARK    1  A    between atoms: N_2  and  C_6
REMARK    2  A    between atoms: N_2  and  C_8
REMARK    3  A    between atoms: N_2  and  C_9
REMARK    4  A    between atoms: N_3  and  C_10
REMARK    5  A    between atoms: N_3  and  C_13
REMARK    6  A    between atoms: C_6  and  C_7
REMARK    7  A    between atoms: C_7  and  C_10
REMARK    8  A    between atoms: C_8  and  C_11
REMARK    9  A    between atoms: C_9  and  C_12
REMARK   10  A    between atoms: C_14  and  C_16
REMARK                            x       y       z     vdW  Elec       q    Type
REMARK                         _______ _______ _______ _____ _____    ______ ____
ROOT
ATOM      1  N   UNL     1      -1.408   1.998  -0.303  0.00  0.00    +0.000 NA
ATOM      2  C   UNL     1      -1.362   0.660  -0.495  0.00  0.00    +0.000 A 
ATOM      3  C   UNL     1      -2.183  -0.245   0.159  0.00  0.00    +0.000 A 
ATOM      4  C   UNL     1      -3.109   0.254   1.067  0.00  0.00    +0.000 A 
ATOM      5  C   UNL     1      -2.321   2.446   0.587  0.00  0.00    +0.000 A 
ATOM      6  C   UNL     1      -3.187   1.624   1.291  0.00  0.00    +0.000 A 
ENDROOT
BRANCH   3   9
ATOM      7  O   UNL     1      -1.369  -2.407   0.622  0.00  0.00    +0.000 OA
ATOM      8  N   UNL     1      -2.906  -2.221  -1.070  0.00  0.00    +0.000 N 
ATOM      9  C   UNL     1      -2.107  -1.682  -0.067  0.00  0.00    +0.000 C 
ATOM     10  H   UNL     1      -3.520  -1.645  -1.637  0.00  0.00    +0.000 HD
ATOM     11  H   UNL     1      -2.898  -3.216  -1.265  0.00  0.00    +0.000 HD
ENDBRANCH   3   9
BRANCH   2  12
ATOM     12  N   UNL     1      -0.434   0.170  -1.400  0.00  0.00    +0.000 N 
ATOM     13  H   UNL     1      -0.682  -0.663  -1.923  0.00  0.00    +0.000 HD
BRANCH  12  14
ATOM     14  C   UNL     1       0.732   0.904  -1.830  0.00  0.00    +0.000 C 
BRANCH  14  15
ATOM     15  C   UNL     1       1.899  -0.044  -2.100  0.00  0.00    +0.000 C 
BRANCH  15  16
ATOM     16  C   UNL     1       2.304  -0.914  -0.906  0.00  0.00    +0.000 C 
BRANCH  16  17
ATOM     17  N   UNL     1       2.670  -0.110   0.254  0.00  0.00    +0.000 NA
BRANCH  17  18
ATOM     18  C   UNL     1       3.801   0.765  -0.061  0.00  0.00    +0.000 C 
ATOM     19  C   UNL     1       4.151   1.656   1.118  0.00  0.00    +0.000 C 
ENDBRANCH  17  18
BRANCH  17  20
ATOM     20  C   UNL     1       2.995  -0.968   1.394  0.00  0.00    +0.000 C 
ATOM     21  C   UNL     1       1.834  -1.886   1.739  0.00  0.00    +0.000 C 
ENDBRANCH  17  20
ENDBRANCH  16  17
ENDBRANCH  15  16
ENDBRANCH  14  15
ENDBRANCH  12  14
ENDBRANCH   2  12
TORSDOF 8
