REMARK  Name = 2826733
REMARK  3 active torsions:
REMARK  status: ('A' for Active; 'I' for Inactive)
REMARK    1  A    between atoms: N_3  and  C_12
REMARK    2  A    between atoms: N_4  and  N_5
REMARK    3  A    between atoms: C_6  and  C_11
REMARK                            x       y       z     vdW  Elec       q    Type
REMARK                         _______ _______ _______ _____ _____    ______ ____
ROOT
ATOM      1  N   UNL     1      -1.426   1.377   0.229  0.00  0.00    +0.000 NA
ATOM      2  N   UNL     1      -3.469   0.167   0.038  0.00  0.00    +0.000 N 
ATOM      3  C   UNL     1       0.675   0.217  -0.063  0.00  0.00    +0.000 A 
ATOM      4  C   UNL     1      -0.006  -0.974  -0.287  0.00  0.00    +0.000 A 
ATOM      5  C   UNL     1      -2.053   0.201   0.006  0.00  0.00    +0.000 A 
ATOM      6  C   UNL     1      -1.396  -0.991  -0.254  0.00  0.00    +0.000 A 
ATOM      7  C   UNL     1      -0.075   1.355   0.189  0.00  0.00    +0.000 A 
ATOM      8  H   UNL     1      -3.947   1.032   0.262  0.00  0.00    +0.000 HD
ENDROOT
BRANCH   3  11
ATOM      9  O   UNL     1       2.718   1.327  -0.368  0.00  0.00    +0.000 OA
ATOM     10  N   UNL     1       2.811  -0.912   0.229  0.00  0.00    +0.000 N 
ATOM     11  C   UNL     1       2.126   0.267  -0.090  0.00  0.00    +0.000 C 
ATOM     12  C   UNL     1       4.252  -1.016   0.269  0.00  0.00    +0.000 C 
ATOM     13  H   UNL     1       2.294  -1.732   0.529  0.00  0.00    +0.000 HD
ENDBRANCH   3  11
BRANCH   2  14
ATOM     14  N   UNL     1      -4.157  -1.018   0.102  0.00  0.00    +0.000 NA
ATOM     15  H   UNL     1      -5.085  -0.877  -0.296  0.00  0.00    +0.000 HD
ATOM     16  H   UNL     1      -4.305  -1.258   1.081  0.00  0.00    +0.000 HD
ENDBRANCH   2  14
TORSDOF 2
