REMARK  Name = 28375955
REMARK  8 active torsions:
REMARK  status: ('A' for Active; 'I' for Inactive)
REMARK    1  A    between atoms: N_2  and  C_7
REMARK    2  A    between atoms: N_2  and  C_9
REMARK    3  A    between atoms: N_2  and  C_10
REMARK    4  A    between atoms: N_4  and  C_11
REMARK    5  A    between atoms: C_7  and  C_8
REMARK    6  A    between atoms: C_8  and  C_11
REMARK    7  A    between atoms: C_9  and  C_12
REMARK    8  A    between atoms: C_13  and  C_17
REMARK                            x       y       z     vdW  Elec       q    Type
REMARK                         _______ _______ _______ _____ _____    ______ ____
ROOT
ATOM      1  N   UNL     1       0.080   0.161  -0.139  0.00  0.00    +0.000 N 
ENDROOT
BRANCH   1   3
ATOM      2  N   UNL     1       1.156  -1.189  -1.744  0.00  0.00    +0.000 NA
ATOM      3  C   UNL     1       1.148  -0.674  -0.494  0.00  0.00    +0.000 A 
ATOM      4  C   UNL     1       2.129  -0.922   0.453  0.00  0.00    +0.000 A 
ATOM      5  C   UNL     1       3.186  -1.752   0.094  0.00  0.00    +0.000 A 
ATOM      6  C   UNL     1       2.199  -1.991  -2.057  0.00  0.00    +0.000 A 
ATOM      7  C   UNL     1       3.228  -2.300  -1.183  0.00  0.00    +0.000 A 
BRANCH   4  10
ATOM      8  O   UNL     1       1.545  -0.953   2.735  0.00  0.00    +0.000 OA
ATOM      9  N   UNL     1       2.710   0.877   1.990  0.00  0.00    +0.000 N 
ATOM     10  C   UNL     1       2.092  -0.354   1.794  0.00  0.00    +0.000 C 
ATOM     11  H   UNL     1       3.176   1.373   1.238  0.00  0.00    +0.000 HD
ATOM     12  H   UNL     1       2.717   1.317   2.905  0.00  0.00    +0.000 HD
ENDBRANCH   4  10
ENDBRANCH   1   3
BRANCH   1  13
ATOM     13  C   UNL     1      -0.185   1.389  -0.850  0.00  0.00    +0.000 C 
BRANCH  13  14
ATOM     14  C   UNL     1       0.739   2.507  -0.373  0.00  0.00    +0.000 C 
BRANCH  14  15
ATOM     15  C   UNL     1       0.489   3.826  -1.108  0.00  0.00    +0.000 C 
BRANCH  15  16
ATOM     16  N   UNL     1       1.407   4.853  -0.628  0.00  0.00    +0.000 NA
ATOM     17  H   UNL     1       1.259   5.006   0.368  0.00  0.00    +0.000 HD
ATOM     18  H   UNL     1       1.194   5.737  -1.088  0.00  0.00    +0.000 HD
ENDBRANCH  15  16
ENDBRANCH  14  15
ENDBRANCH  13  14
ENDBRANCH   1  13
BRANCH   1  19
ATOM     19  C   UNL     1      -0.792  -0.202   0.980  0.00  0.00    +0.000 C 
BRANCH  19  21
ATOM     20  N   UNL     1      -4.535   0.245   0.650  0.00  0.00    +0.000 NA
ATOM     21  C   UNL     1      -2.207  -0.391   0.506  0.00  0.00    +0.000 A 
ATOM     22  C   UNL     1      -2.516  -1.332  -0.469  0.00  0.00    +0.000 A 
ATOM     23  C   UNL     1      -3.243   0.366   1.029  0.00  0.00    +0.000 A 
ATOM     24  C   UNL     1      -3.834  -1.485  -0.886  0.00  0.00    +0.000 A 
ATOM     25  C   UNL     1      -4.797  -0.679  -0.301  0.00  0.00    +0.000 A 
ENDBRANCH  19  21
ENDBRANCH   1  19
TORSDOF 8
