REMARK  Name = 28388185
REMARK  7 active torsions:
REMARK  status: ('A' for Active; 'I' for Inactive)
REMARK    1  A    between atoms: N_3  and  C_7
REMARK    2  A    between atoms: N_3  and  C_9
REMARK    3  A    between atoms: N_3  and  C_10
REMARK    4  A    between atoms: N_5  and  C_12
REMARK    5  A    between atoms: C_7  and  C_8
REMARK    6  A    between atoms: C_8  and  C_12
REMARK    7  A    between atoms: C_11  and  C_14
REMARK                            x       y       z     vdW  Elec       q    Type
REMARK                         _______ _______ _______ _____ _____    ______ ____
ROOT
ATOM      1  N   UNL     1      -1.247  -1.821   0.663  0.00  0.00    +0.000 NA
ATOM      2  C   UNL     1      -0.957  -0.510   0.507  0.00  0.00    +0.000 A 
ATOM      3  C   UNL     1      -1.692   0.358  -0.284  0.00  0.00    +0.000 A 
ATOM      4  C   UNL     1      -2.796  -0.152  -0.958  0.00  0.00    +0.000 A 
ATOM      5  C   UNL     1      -3.126  -1.496  -0.823  0.00  0.00    +0.000 A 
ATOM      6  C   UNL     1      -2.327  -2.281  -0.008  0.00  0.00    +0.000 A 
ENDROOT
BRANCH   3   9
ATOM      7  O   UNL     1      -1.806   2.627   0.338  0.00  0.00    +0.000 OA
ATOM      8  N   UNL     1      -0.485   2.115  -1.465  0.00  0.00    +0.000 N 
ATOM      9  C   UNL     1      -1.352   1.767  -0.435  0.00  0.00    +0.000 C 
ATOM     10  H   UNL     1      -0.108   1.427  -2.109  0.00  0.00    +0.000 HD
ATOM     11  H   UNL     1      -0.208   3.080  -1.610  0.00  0.00    +0.000 HD
ENDBRANCH   3   9
BRANCH   2  12
ATOM     12  N   UNL     1       0.159  -0.003   1.188  0.00  0.00    +0.000 N 
ATOM     13  C   UNL     1      -0.007   1.080   2.159  0.00  0.00    +0.000 C 
BRANCH  12  14
ATOM     14  C   UNL     1       1.483  -0.531   0.962  0.00  0.00    +0.000 C 
BRANCH  14  15
ATOM     15  C   UNL     1       2.144   0.213  -0.194  0.00  0.00    +0.000 C 
BRANCH  15  17
ATOM     16  S   UNL     1       4.907   0.604  -0.322  0.00  0.00    +0.000 S 
ATOM     17  C   UNL     1       3.529  -0.330  -0.468  0.00  0.00    +0.000 C 
BRANCH  17  18
ATOM     18  N   UNL     1       3.574  -1.641  -0.863  0.00  0.00    +0.000 N 
ATOM     19  H   UNL     1       2.739  -2.205  -0.980  0.00  0.00    +0.000 HD
ATOM     20  H   UNL     1       4.458  -2.092  -1.071  0.00  0.00    +0.000 HD
ENDBRANCH  17  18
ENDBRANCH  15  17
ENDBRANCH  14  15
ENDBRANCH  12  14
ENDBRANCH   2  12
TORSDOF 6
