REMARK  Name = 28387549
REMARK  7 active torsions:
REMARK  status: ('A' for Active; 'I' for Inactive)
REMARK    1  A    between atoms: N_2  and  C_6
REMARK    2  A    between atoms: N_2  and  C_8
REMARK    3  A    between atoms: N_2  and  C_10
REMARK    4  A    between atoms: N_4  and  C_9
REMARK    5  A    between atoms: C_6  and  C_7
REMARK    6  A    between atoms: C_7  and  C_9
REMARK    7  A    between atoms: C_11  and  C_13
REMARK                            x       y       z     vdW  Elec       q    Type
REMARK                         _______ _______ _______ _____ _____    ______ ____
ROOT
ATOM      1  N   UNL     1       1.134   1.857  -0.481  0.00  0.00    +0.000 NA
ATOM      2  C   UNL     1       0.732   0.566  -0.467  0.00  0.00    +0.000 A 
ATOM      3  C   UNL     1       1.340  -0.427   0.283  0.00  0.00    +0.000 A 
ATOM      4  C   UNL     1       2.431  -0.074   1.070  0.00  0.00    +0.000 A 
ATOM      5  C   UNL     1       2.874   1.244   1.081  0.00  0.00    +0.000 A 
ATOM      6  C   UNL     1       2.198   2.163   0.296  0.00  0.00    +0.000 A 
ENDROOT
BRANCH   3   9
ATOM      7  O   UNL     1       1.347  -2.639  -0.528  0.00  0.00    +0.000 OA
ATOM      8  N   UNL     1      -0.074  -2.181   1.213  0.00  0.00    +0.000 N 
ATOM      9  C   UNL     1       0.885  -1.811   0.276  0.00  0.00    +0.000 C 
ATOM     10  H   UNL     1      -0.451  -1.523   1.888  0.00  0.00    +0.000 HD
ATOM     11  H   UNL     1      -0.424  -3.132   1.254  0.00  0.00    +0.000 HD
ENDBRANCH   3   9
BRANCH   2  12
ATOM     12  N   UNL     1      -0.367   0.217  -1.264  0.00  0.00    +0.000 N 
ATOM     13  C   UNL     1      -0.216  -0.784  -2.321  0.00  0.00    +0.000 C 
BRANCH  12  14
ATOM     14  C   UNL     1      -1.664   0.820  -1.064  0.00  0.00    +0.000 C 
BRANCH  14  15
ATOM     15  C   UNL     1      -2.402   0.158   0.097  0.00  0.00    +0.000 C 
BRANCH  15  16
ATOM     16  C   UNL     1      -3.782   0.773   0.340  0.00  0.00    +0.000 C 
BRANCH  16  17
ATOM     17  N   UNL     1      -4.435   0.118   1.468  0.00  0.00    +0.000 NA
ATOM     18  H   UNL     1      -4.555  -0.874   1.266  0.00  0.00    +0.000 HD
ATOM     19  H   UNL     1      -5.372   0.502   1.585  0.00  0.00    +0.000 HD
ENDBRANCH  16  17
ENDBRANCH  15  16
ENDBRANCH  14  15
ENDBRANCH  12  14
ENDBRANCH   2  12
TORSDOF 6
