REMARK  Name = 28387487
REMARK  6 active torsions:
REMARK  status: ('A' for Active; 'I' for Inactive)
REMARK    1  A    between atoms: N_2  and  C_6
REMARK    2  A    between atoms: N_2  and  C_7
REMARK    3  A    between atoms: N_2  and  C_10
REMARK    4  A    between atoms: C_6  and  C_9
REMARK    5  A    between atoms: C_8  and  C_13
REMARK    6  A    between atoms: C_9  and  C_15
REMARK                            x       y       z     vdW  Elec       q    Type
REMARK                         _______ _______ _______ _____ _____    ______ ____
ROOT
ATOM      1  N   UNL     1       0.026   1.740   0.606  0.00  0.00    +0.000 NA
ATOM      2  C   UNL     1       0.272   0.426   0.407  0.00  0.00    +0.000 A 
ATOM      3  C   UNL     1       1.434  -0.068  -0.165  0.00  0.00    +0.000 A 
ATOM      4  C   UNL     1       2.406   0.845  -0.556  0.00  0.00    +0.000 A 
ATOM      5  C   UNL     1       2.190   2.206  -0.368  0.00  0.00    +0.000 A 
ATOM      6  C   UNL     1       0.994   2.598   0.212  0.00  0.00    +0.000 A 
ENDROOT
BRANCH   3   9
ATOM      7  O   UNL     1       1.340  -2.055  -1.426  0.00  0.00    +0.000 OA
ATOM      8  N   UNL     1       2.292  -2.196   0.655  0.00  0.00    +0.000 N 
ATOM      9  C   UNL     1       1.669  -1.491  -0.369  0.00  0.00    +0.000 C 
ATOM     10  H   UNL     1       2.573  -1.751   1.523  0.00  0.00    +0.000 HD
ATOM     11  H   UNL     1       2.485  -3.188   0.564  0.00  0.00    +0.000 HD
ENDBRANCH   3   9
BRANCH   2  12
ATOM     12  N   UNL     1      -0.725  -0.499   0.806  0.00  0.00    +0.000 N 
ATOM     13  C   UNL     1      -1.141  -0.567   2.189  0.00  0.00    +0.000 C 
BRANCH  12  14
ATOM     14  C   UNL     1      -1.337  -1.375  -0.168  0.00  0.00    +0.000 C 
BRANCH  14  15
ATOM     15  C   UNL     1      -2.841  -1.138  -0.243  0.00  0.00    +0.000 C 
BRANCH  15  17
ATOM     16  N   UNL     1      -3.417   1.331  -0.945  0.00  0.00    +0.000 NA
ATOM     17  C   UNL     1      -3.162   0.242  -0.635  0.00  0.00    +0.000 C 
ENDBRANCH  15  17
ENDBRANCH  14  15
ENDBRANCH  12  14
ENDBRANCH   2  12
TORSDOF 5
