REMARK  Name = 28534862
REMARK  7 active torsions:
REMARK  status: ('A' for Active; 'I' for Inactive)
REMARK    1  A    between atoms: N_2  and  C_7
REMARK    2  A    between atoms: N_2  and  C_10
REMARK    3  A    between atoms: C_5  and  C_6
REMARK    4  A    between atoms: C_5  and  C_8
REMARK    5  A    between atoms: C_5  and  C_9
REMARK    6  A    between atoms: C_6  and  C_7
REMARK    7  A    between atoms: C_11  and  C_13
REMARK                            x       y       z     vdW  Elec       q    Type
REMARK                         _______ _______ _______ _____ _____    ______ ____
ROOT
ATOM      1  N   UNL     1       1.274   1.853  -0.100  0.00  0.00    +0.000 NA
ATOM      2  C   UNL     1       0.873   0.563  -0.168  0.00  0.00    +0.000 A 
ATOM      3  C   UNL     1       1.717  -0.521   0.011  0.00  0.00    +0.000 A 
ATOM      4  C   UNL     1       3.057  -0.267   0.277  0.00  0.00    +0.000 A 
ATOM      5  C   UNL     1       3.507   1.047   0.355  0.00  0.00    +0.000 A 
ATOM      6  C   UNL     1       2.584   2.061   0.160  0.00  0.00    +0.000 A 
ENDROOT
BRANCH   3   9
ATOM      7  O   UNL     1       1.274  -2.525  -1.145  0.00  0.00    +0.000 OA
ATOM      8  N   UNL     1       0.810  -2.503   1.101  0.00  0.00    +0.000 N 
ATOM      9  C   UNL     1       1.256  -1.901  -0.071  0.00  0.00    +0.000 C 
ATOM     10  H   UNL     1       0.794  -2.010   1.988  0.00  0.00    +0.000 HD
ATOM     11  H   UNL     1       0.484  -3.464   1.102  0.00  0.00    +0.000 HD
ENDBRANCH   3   9
BRANCH   2  12
ATOM     12  N   UNL     1      -0.464   0.317  -0.436  0.00  0.00    +0.000 N 
ATOM     13  H   UNL     1      -0.690  -0.597  -0.815  0.00  0.00    +0.000 HD
BRANCH  12  14
ATOM     14  C   UNL     1      -1.445   1.355  -0.642  0.00  0.00    +0.000 C 
BRANCH  14  15
ATOM     15  C   UNL     1      -2.824   0.753  -0.913  0.00  0.00    +0.000 C 
BRANCH  15  16
ATOM     16  C   UNL     1      -3.380  -0.143   0.212  0.00  0.00    +0.000 C 
ATOM     17  C   UNL     1      -3.507   0.669   1.504  0.00  0.00    +0.000 C 
ATOM     18  C   UNL     1      -4.734  -0.757  -0.146  0.00  0.00    +0.000 C 
ENDBRANCH  15  16
ENDBRANCH  14  15
ENDBRANCH  12  14
ENDBRANCH   2  12
TORSDOF 5
