REMARK  Name = 28554933
REMARK  9 active torsions:
REMARK  status: ('A' for Active; 'I' for Inactive)
REMARK    1  A    between atoms: N_2  and  C_6
REMARK    2  A    between atoms: N_2  and  C_8
REMARK    3  A    between atoms: N_2  and  C_9
REMARK    4  A    between atoms: N_3  and  C_7
REMARK    5  A    between atoms: N_3  and  C_12
REMARK    6  A    between atoms: C_6  and  C_7
REMARK    7  A    between atoms: C_8  and  C_10
REMARK    8  A    between atoms: C_9  and  C_11
REMARK    9  A    between atoms: C_13  and  C_15
REMARK                            x       y       z     vdW  Elec       q    Type
REMARK                         _______ _______ _______ _____ _____    ______ ____
ROOT
ATOM      1  N   UNL     1       1.555  -1.821   0.206  0.00  0.00    +0.000 NA
ATOM      2  C   UNL     1       1.528  -0.474   0.095  0.00  0.00    +0.000 A 
ATOM      3  C   UNL     1       2.658   0.315  -0.045  0.00  0.00    +0.000 A 
ATOM      4  C   UNL     1       3.896  -0.318  -0.073  0.00  0.00    +0.000 A 
ATOM      5  C   UNL     1       3.964  -1.703   0.039  0.00  0.00    +0.000 A 
ATOM      6  C   UNL     1       2.776  -2.402   0.175  0.00  0.00    +0.000 A 
ENDROOT
BRANCH   3   9
ATOM      7  O   UNL     1       2.655   2.496   0.845  0.00  0.00    +0.000 OA
ATOM      8  N   UNL     1       2.491   2.309  -1.435  0.00  0.00    +0.000 N 
ATOM      9  C   UNL     1       2.597   1.766  -0.159  0.00  0.00    +0.000 C 
ATOM     10  H   UNL     1       2.450   1.728  -2.267  0.00  0.00    +0.000 HD
ATOM     11  H   UNL     1       2.451   3.314  -1.573  0.00  0.00    +0.000 HD
ENDBRANCH   3   9
BRANCH   2  12
ATOM     12  N   UNL     1       0.292   0.151   0.127  0.00  0.00    +0.000 N 
ATOM     13  H   UNL     1       0.243   1.093  -0.247  0.00  0.00    +0.000 HD
BRANCH  12  14
ATOM     14  C   UNL     1      -0.960  -0.555   0.268  0.00  0.00    +0.000 C 
BRANCH  14  15
ATOM     15  C   UNL     1      -2.110   0.443   0.296  0.00  0.00    +0.000 C 
BRANCH  15  16
ATOM     16  N   UNL     1      -3.389  -0.257   0.412  0.00  0.00    +0.000 NA
BRANCH  16  17
ATOM     17  C   UNL     1      -3.789  -0.806  -0.883  0.00  0.00    +0.000 C 
ATOM     18  C   UNL     1      -5.086  -1.590  -0.770  0.00  0.00    +0.000 C 
ENDBRANCH  16  17
BRANCH  16  19
ATOM     19  C   UNL     1      -4.420   0.643   0.926  0.00  0.00    +0.000 C 
ATOM     20  C   UNL     1      -4.659   1.804  -0.024  0.00  0.00    +0.000 C 
ENDBRANCH  16  19
ENDBRANCH  15  16
ENDBRANCH  14  15
ENDBRANCH  12  14
ENDBRANCH   2  12
TORSDOF 7
