REMARK  Name = 28552138
REMARK  10 active torsions:
REMARK  status: ('A' for Active; 'I' for Inactive)
REMARK    1  A    between atoms: N_2  and  C_7
REMARK    2  A    between atoms: N_2  and  C_11
REMARK    3  A    between atoms: N_2  and  C_12
REMARK    4  A    between atoms: N_3  and  C_8
REMARK    5  A    between atoms: N_3  and  C_13
REMARK    6  A    between atoms: C_6  and  C_7
REMARK    7  A    between atoms: C_6  and  C_8
REMARK    8  A    between atoms: C_6  and  C_9
REMARK    9  A    between atoms: C_6  and  C_10
REMARK   10  A    between atoms: C_14  and  C_16
REMARK                            x       y       z     vdW  Elec       q    Type
REMARK                         _______ _______ _______ _____ _____    ______ ____
ROOT
ATOM      1  N   UNL     1      -1.293  -1.816  -0.552  0.00  0.00    +0.000 NA
ATOM      2  C   UNL     1      -1.229  -0.496  -0.265  0.00  0.00    +0.000 A 
ATOM      3  C   UNL     1      -2.319   0.268   0.121  0.00  0.00    +0.000 A 
ATOM      4  C   UNL     1      -3.554  -0.364   0.219  0.00  0.00    +0.000 A 
ATOM      5  C   UNL     1      -2.510  -2.395  -0.446  0.00  0.00    +0.000 A 
ATOM      6  C   UNL     1      -3.660  -1.720  -0.068  0.00  0.00    +0.000 A 
ENDROOT
BRANCH   3   9
ATOM      7  O   UNL     1      -2.388   2.549  -0.459  0.00  0.00    +0.000 OA
ATOM      8  N   UNL     1      -1.945   2.054   1.736  0.00  0.00    +0.000 N 
ATOM      9  C   UNL     1      -2.219   1.689   0.421  0.00  0.00    +0.000 C 
ATOM     10  H   UNL     1      -1.810   1.365   2.469  0.00  0.00    +0.000 HD
ATOM     11  H   UNL     1      -1.871   3.030   2.001  0.00  0.00    +0.000 HD
ENDBRANCH   3   9
BRANCH   2  12
ATOM     12  N   UNL     1       0.004   0.126  -0.367  0.00  0.00    +0.000 N 
ATOM     13  H   UNL     1       0.186   0.891   0.273  0.00  0.00    +0.000 HD
BRANCH  12  14
ATOM     14  C   UNL     1       1.108  -0.405  -1.133  0.00  0.00    +0.000 C 
BRANCH  14  15
ATOM     15  C   UNL     1       2.373   0.484  -1.025  0.00  0.00    +0.000 C 
ATOM     16  C   UNL     1       2.074   1.895  -1.575  0.00  0.00    +0.000 C 
ATOM     17  C   UNL     1       3.474  -0.140  -1.908  0.00  0.00    +0.000 C 
BRANCH  15  18
ATOM     18  C   UNL     1       2.872   0.629   0.439  0.00  0.00    +0.000 C 
BRANCH  18  19
ATOM     19  N   UNL     1       2.720  -0.581   1.241  0.00  0.00    +0.000 NA
ATOM     20  C   UNL     1       2.694  -0.252   2.667  0.00  0.00    +0.000 C 
ATOM     21  C   UNL     1       3.800  -1.526   0.956  0.00  0.00    +0.000 C 
ENDBRANCH  18  19
ENDBRANCH  15  18
ENDBRANCH  14  15
ENDBRANCH  12  14
ENDBRANCH   2  12
TORSDOF 6
