REMARK  Name = 29031037
REMARK  6 active torsions:
REMARK  status: ('A' for Active; 'I' for Inactive)
REMARK    1  A    between atoms: N_2  and  C_6
REMARK    2  A    between atoms: N_2  and  C_8
REMARK    3  A    between atoms: C_5  and  C_6
REMARK    4  A    between atoms: C_5  and  C_7
REMARK    5  A    between atoms: C_7  and  C_9
REMARK    6  A    between atoms: C_10  and  C_13
REMARK                            x       y       z     vdW  Elec       q    Type
REMARK                         _______ _______ _______ _____ _____    ______ ____
ROOT
ATOM      1  N   UNL     1       1.084   1.856   0.029  0.00  0.00    +0.000 NA
ATOM      2  C   UNL     1       0.635   0.584  -0.070  0.00  0.00    +0.000 A 
ATOM      3  C   UNL     1       1.453  -0.533  -0.015  0.00  0.00    +0.000 A 
ATOM      4  C   UNL     1       2.819  -0.333   0.153  0.00  0.00    +0.000 A 
ATOM      5  C   UNL     1       3.318   0.960   0.259  0.00  0.00    +0.000 A 
ATOM      6  C   UNL     1       2.417   2.011   0.191  0.00  0.00    +0.000 A 
ENDROOT
BRANCH   3   9
ATOM      7  O   UNL     1       0.851  -2.459  -1.229  0.00  0.00    +0.000 OA
ATOM      8  N   UNL     1       0.570  -2.542   1.045  0.00  0.00    +0.000 N 
ATOM      9  C   UNL     1       0.940  -1.892  -0.127  0.00  0.00    +0.000 C 
ATOM     10  H   UNL     1       0.642  -2.096   1.955  0.00  0.00    +0.000 HD
ATOM     11  H   UNL     1       0.212  -3.491   1.025  0.00  0.00    +0.000 HD
ENDBRANCH   3   9
BRANCH   2  12
ATOM     12  N   UNL     1      -0.727   0.392  -0.239  0.00  0.00    +0.000 N 
ATOM     13  H   UNL     1      -1.012  -0.494  -0.644  0.00  0.00    +0.000 HD
BRANCH  12  14
ATOM     14  C   UNL     1      -1.685   1.469  -0.312  0.00  0.00    +0.000 C 
BRANCH  14  15
ATOM     15  C   UNL     1      -3.090   0.927  -0.564  0.00  0.00    +0.000 C 
BRANCH  15  16
ATOM     16  C   UNL     1      -3.580   0.015   0.562  0.00  0.00    +0.000 C 
ATOM     17  C   UNL     1      -5.006  -0.455   0.315  0.00  0.00    +0.000 C 
ENDBRANCH  15  16
ENDBRANCH  14  15
ENDBRANCH  12  14
ENDBRANCH   2  12
TORSDOF 5
