REMARK  Name = 29038516
REMARK  4 active torsions:
REMARK  status: ('A' for Active; 'I' for Inactive)
REMARK    1  A    between atoms: N_5  and  C_8
REMARK    2  A    between atoms: N_5  and  C_9
REMARK    3  A    between atoms: C_8  and  C_11
REMARK    4  A    between atoms: C_10  and  C_14
REMARK                            x       y       z     vdW  Elec       q    Type
REMARK                         _______ _______ _______ _____ _____    ______ ____
ROOT
ATOM      1  N   UNL     1      -0.869  -1.887   0.024  0.00  0.00    +0.000 NA
ATOM      2  C   UNL     1      -0.681  -0.549   0.004  0.00  0.00    +0.000 A 
ATOM      3  C   UNL     1      -1.711   0.378  -0.021  0.00  0.00    +0.000 A 
ATOM      4  C   UNL     1      -3.017  -0.099  -0.025  0.00  0.00    +0.000 A 
ATOM      5  C   UNL     1      -3.250  -1.470  -0.004  0.00  0.00    +0.000 A 
ATOM      6  C   UNL     1      -2.151  -2.314   0.020  0.00  0.00    +0.000 A 
ENDROOT
BRANCH   3   9
ATOM      7  O   UNL     1      -1.379   2.436  -1.119  0.00  0.00    +0.000 OA
ATOM      8  N   UNL     1      -1.385   2.476   1.174  0.00  0.00    +0.000 N 
ATOM      9  C   UNL     1      -1.477   1.816  -0.046  0.00  0.00    +0.000 C 
ATOM     10  H   UNL     1      -1.470   1.987   2.060  0.00  0.00    +0.000 HD
ATOM     11  H   UNL     1      -1.229   3.478   1.215  0.00  0.00    +0.000 HD
ENDBRANCH   3   9
BRANCH   2  12
ATOM     12  N   UNL     1       0.653  -0.070   0.005  0.00  0.00    +0.000 N 
ATOM     13  H   UNL     1       0.786   0.881   0.335  0.00  0.00    +0.000 HD
BRANCH  12  14
ATOM     14  C   UNL     1       1.783  -0.940   0.029  0.00  0.00    +0.000 C 
BRANCH  14  18
ATOM     15  F   UNL     1       3.156   0.680   1.070  0.00  0.00    +0.000 F 
ATOM     16  F   UNL     1       4.135  -0.952   0.006  0.00  0.00    +0.000 F 
ATOM     17  F   UNL     1       3.133   0.628  -1.115  0.00  0.00    +0.000 F 
ATOM     18  C   UNL     1       3.058  -0.134  -0.003  0.00  0.00    +0.000 C 
ENDBRANCH  14  18
ENDBRANCH  12  14
ENDBRANCH   2  12
TORSDOF 4
