REMARK  Name = 29033621
REMARK  7 active torsions:
REMARK  status: ('A' for Active; 'I' for Inactive)
REMARK    1  A    between atoms: N_2  and  C_5
REMARK    2  A    between atoms: N_2  and  C_10
REMARK    3  A    between atoms: C_5  and  C_6
REMARK    4  A    between atoms: C_5  and  C_7
REMARK    5  A    between atoms: C_6  and  C_8
REMARK    6  A    between atoms: C_7  and  C_9
REMARK    7  A    between atoms: C_11  and  C_13
REMARK                            x       y       z     vdW  Elec       q    Type
REMARK                         _______ _______ _______ _____ _____    ______ ____
ROOT
ATOM      1  N   UNL     1       0.224  -1.696   0.466  0.00  0.00    +0.000 NA
ATOM      2  C   UNL     1       0.419  -0.407   0.109  0.00  0.00    +0.000 A 
ATOM      3  C   UNL     1       1.666   0.158  -0.105  0.00  0.00    +0.000 A 
ATOM      4  C   UNL     1       2.785  -0.652   0.058  0.00  0.00    +0.000 A 
ATOM      5  C   UNL     1       1.334  -2.453   0.615  0.00  0.00    +0.000 A 
ATOM      6  C   UNL     1       2.624  -1.984   0.425  0.00  0.00    +0.000 A 
ENDROOT
BRANCH   3   9
ATOM      7  O   UNL     1       1.859   1.899  -1.679  0.00  0.00    +0.000 OA
ATOM      8  N   UNL     1       1.981   2.488   0.534  0.00  0.00    +0.000 N 
ATOM      9  C   UNL     1       1.845   1.552  -0.486  0.00  0.00    +0.000 C 
ATOM     10  H   UNL     1       1.964   2.224   1.514  0.00  0.00    +0.000 HD
ATOM     11  H   UNL     1       2.102   3.473   0.325  0.00  0.00    +0.000 HD
ENDBRANCH   3   9
BRANCH   2  12
ATOM     12  N   UNL     1      -0.697   0.393  -0.049  0.00  0.00    +0.000 N 
ATOM     13  H   UNL     1      -0.593   1.219  -0.629  0.00  0.00    +0.000 HD
BRANCH  12  14
ATOM     14  C   UNL     1      -2.054  -0.079   0.146  0.00  0.00    +0.000 C 
BRANCH  14  15
ATOM     15  C   UNL     1      -2.508  -0.856  -1.099  0.00  0.00    +0.000 C 
ATOM     16  C   UNL     1      -3.922  -1.407  -0.967  0.00  0.00    +0.000 C 
ENDBRANCH  14  15
BRANCH  14  17
ATOM     17  C   UNL     1      -2.983   1.117   0.404  0.00  0.00    +0.000 C 
ATOM     18  C   UNL     1      -2.574   1.927   1.628  0.00  0.00    +0.000 C 
ENDBRANCH  14  17
ENDBRANCH  12  14
ENDBRANCH   2  12
TORSDOF 5
