REMARK  Name = 29033562
REMARK  8 active torsions:
REMARK  status: ('A' for Active; 'I' for Inactive)
REMARK    1  A    between atoms: N_2  and  C_7
REMARK    2  A    between atoms: N_2  and  C_10
REMARK    3  A    between atoms: N_2  and  C_11
REMARK    4  A    between atoms: N_3  and  C_8
REMARK    5  A    between atoms: N_3  and  C_9
REMARK    6  A    between atoms: C_6  and  C_7
REMARK    7  A    between atoms: C_6  and  C_8
REMARK    8  A    between atoms: C_12  and  C_15
REMARK                            x       y       z     vdW  Elec       q    Type
REMARK                         _______ _______ _______ _____ _____    ______ ____
ROOT
ATOM      1  N   UNL     1      -1.364  -1.896   0.003  0.00  0.00    +0.000 NA
ATOM      2  C   UNL     1      -1.118  -0.581  -0.190  0.00  0.00    +0.000 A 
ATOM      3  C   UNL     1      -2.041   0.424   0.051  0.00  0.00    +0.000 A 
ATOM      4  C   UNL     1      -3.297   0.056   0.520  0.00  0.00    +0.000 A 
ATOM      5  C   UNL     1      -3.588  -1.287   0.730  0.00  0.00    +0.000 A 
ATOM      6  C   UNL     1      -2.596  -2.216   0.459  0.00  0.00    +0.000 A 
ENDROOT
BRANCH   3   9
ATOM      7  O   UNL     1      -1.981   2.379  -1.261  0.00  0.00    +0.000 OA
ATOM      8  N   UNL     1      -1.214   2.556   0.893  0.00  0.00    +0.000 N 
ATOM      9  C   UNL     1      -1.748   1.834  -0.169  0.00  0.00    +0.000 C 
ATOM     10  H   UNL     1      -1.023   2.128   1.793  0.00  0.00    +0.000 HD
ATOM     11  H   UNL     1      -0.996   3.542   0.796  0.00  0.00    +0.000 HD
ENDBRANCH   3   9
BRANCH   2  12
ATOM     12  N   UNL     1       0.135  -0.221  -0.659  0.00  0.00    +0.000 N 
ATOM     13  H   UNL     1       0.207   0.685  -1.110  0.00  0.00    +0.000 HD
BRANCH  12  14
ATOM     14  C   UNL     1       1.185  -1.168  -0.949  0.00  0.00    +0.000 C 
BRANCH  14  15
ATOM     15  C   UNL     1       2.410  -0.458  -1.524  0.00  0.00    +0.000 C 
BRANCH  15  16
ATOM     16  C   UNL     1       3.063   0.555  -0.579  0.00  0.00    +0.000 C 
BRANCH  16  17
ATOM     17  N   UNL     1       3.563  -0.077   0.636  0.00  0.00    +0.000 NA
ATOM     18  C   UNL     1       3.800   0.923   1.678  0.00  0.00    +0.000 C 
ATOM     19  C   UNL     1       4.792  -0.824   0.361  0.00  0.00    +0.000 C 
ENDBRANCH  16  17
ENDBRANCH  15  16
ENDBRANCH  14  15
ENDBRANCH  12  14
ENDBRANCH   2  12
TORSDOF 6
