REMARK  Name = 29048197
REMARK  4 active torsions:
REMARK  status: ('A' for Active; 'I' for Inactive)
REMARK    1  A    between atoms: N_2  and  C_6
REMARK    2  A    between atoms: N_2  and  C_8
REMARK    3  A    between atoms: C_6  and  C_7
REMARK    4  A    between atoms: C_9  and  C_14
REMARK                            x       y       z     vdW  Elec       q    Type
REMARK                         _______ _______ _______ _____ _____    ______ ____
ROOT
ATOM      1  N   UNL     1      -1.835  -1.851  -0.083  0.00  0.00    +0.000 NA
ATOM      2  C   UNL     1      -1.472  -0.550  -0.037  0.00  0.00    +0.000 A 
ATOM      3  C   UNL     1      -2.369   0.504   0.020  0.00  0.00    +0.000 A 
ATOM      4  C   UNL     1      -3.726   0.203   0.031  0.00  0.00    +0.000 A 
ATOM      5  C   UNL     1      -4.139  -1.123  -0.015  0.00  0.00    +0.000 A 
ATOM      6  C   UNL     1      -3.162  -2.105  -0.070  0.00  0.00    +0.000 A 
ENDROOT
BRANCH   3   9
ATOM      7  O   UNL     1      -1.793   2.560  -0.975  0.00  0.00    +0.000 OA
ATOM      8  N   UNL     1      -1.740   2.469   1.316  0.00  0.00    +0.000 N 
ATOM      9  C   UNL     1      -1.947   1.898   0.065  0.00  0.00    +0.000 C 
ATOM     10  H   UNL     1      -1.867   1.945   2.176  0.00  0.00    +0.000 HD
ATOM     11  H   UNL     1      -1.451   3.438   1.406  0.00  0.00    +0.000 HD
ENDBRANCH   3   9
BRANCH   2  12
ATOM     12  N   UNL     1      -0.086  -0.251  -0.051  0.00  0.00    +0.000 N 
ATOM     13  H   UNL     1       0.176   0.655   0.326  0.00  0.00    +0.000 HD
BRANCH  12  14
ATOM     14  C   UNL     1       0.919  -1.261  -0.109  0.00  0.00    +0.000 C 
BRANCH  14  16
ATOM     15  N   UNL     1       4.295  -0.137   1.177  0.00  0.00    +0.000 NA
ATOM     16  C   UNL     1       2.290  -0.645  -0.074  0.00  0.00    +0.000 A 
ATOM     17  C   UNL     1       2.827  -0.028  -1.199  0.00  0.00    +0.000 A 
ATOM     18  C   UNL     1       3.058  -0.672   1.079  0.00  0.00    +0.000 A 
ATOM     19  C   UNL     1       4.097   0.534  -1.137  0.00  0.00    +0.000 A 
ATOM     20  C   UNL     1       4.784   0.454   0.063  0.00  0.00    +0.000 A 
ENDBRANCH  14  16
ENDBRANCH  12  14
ENDBRANCH   2  12
TORSDOF 4
