REMARK  Name = 29040678
REMARK  3 active torsions:
REMARK  status: ('A' for Active; 'I' for Inactive)
REMARK    1  A    between atoms: N_2  and  C_5
REMARK    2  A    between atoms: N_2  and  C_8
REMARK    3  A    between atoms: C_9  and  C_11
REMARK                            x       y       z     vdW  Elec       q    Type
REMARK                         _______ _______ _______ _____ _____    ______ ____
ROOT
ATOM      1  N   UNL     1       0.236  -1.717   0.165  0.00  0.00    +0.000 NA
ATOM      2  C   UNL     1       0.028  -0.381   0.154  0.00  0.00    +0.000 A 
ATOM      3  C   UNL     1      -1.217   0.210   0.006  0.00  0.00    +0.000 A 
ATOM      4  C   UNL     1      -2.320  -0.625  -0.140  0.00  0.00    +0.000 A 
ATOM      5  C   UNL     1      -0.860  -2.496   0.021  0.00  0.00    +0.000 A 
ATOM      6  C   UNL     1      -2.146  -2.004  -0.133  0.00  0.00    +0.000 A 
ENDROOT
BRANCH   3   9
ATOM      7  O   UNL     1      -1.609   2.287   1.045  0.00  0.00    +0.000 OA
ATOM      8  N   UNL     1      -1.340   2.304  -1.232  0.00  0.00    +0.000 N 
ATOM      9  C   UNL     1      -1.408   1.653  -0.005  0.00  0.00    +0.000 C 
ATOM     10  H   UNL     1      -1.169   1.804  -2.099  0.00  0.00    +0.000 HD
ATOM     11  H   UNL     1      -1.459   3.309  -1.297  0.00  0.00    +0.000 HD
ENDBRANCH   3   9
BRANCH   2  12
ATOM     12  N   UNL     1       1.158   0.463   0.300  0.00  0.00    +0.000 N 
ATOM     13  H   UNL     1       0.958   1.416   0.587  0.00  0.00    +0.000 HD
BRANCH  12  14
ATOM     14  C   UNL     1       2.481  -0.043   0.459  0.00  0.00    +0.000 C 
ATOM     15  C   UNL     1       3.317  -0.430  -0.726  0.00  0.00    +0.000 C 
ATOM     16  C   UNL     1       3.680   0.778   0.086  0.00  0.00    +0.000 C 
ENDBRANCH  12  14
ENDBRANCH   2  12
TORSDOF 3
