REMARK  Name = 29051520
REMARK  7 active torsions:
REMARK  status: ('A' for Active; 'I' for Inactive)
REMARK    1  A    between atoms: N_2  and  C_7
REMARK    2  A    between atoms: N_2  and  C_10
REMARK    3  A    between atoms: C_5  and  C_6
REMARK    4  A    between atoms: C_5  and  C_7
REMARK    5  A    between atoms: C_6  and  C_8
REMARK    6  A    between atoms: C_8  and  C_9
REMARK    7  A    between atoms: C_11  and  C_14
REMARK                            x       y       z     vdW  Elec       q    Type
REMARK                         _______ _______ _______ _____ _____    ______ ____
ROOT
ATOM      1  N   UNL     1       1.630  -1.801   0.133  0.00  0.00    +0.000 NA
ATOM      2  C   UNL     1       1.071  -0.585  -0.062  0.00  0.00    +0.000 A 
ATOM      3  C   UNL     1       1.774   0.608  -0.014  0.00  0.00    +0.000 A 
ATOM      4  C   UNL     1       3.137   0.550   0.252  0.00  0.00    +0.000 A 
ATOM      5  C   UNL     1       3.748  -0.682   0.458  0.00  0.00    +0.000 A 
ATOM      6  C   UNL     1       2.958  -1.817   0.388  0.00  0.00    +0.000 A 
ENDROOT
BRANCH   3   9
ATOM      7  O   UNL     1       1.049   2.393  -1.369  0.00  0.00    +0.000 OA
ATOM      8  N   UNL     1       0.633   2.567   0.879  0.00  0.00    +0.000 N 
ATOM      9  C   UNL     1       1.143   1.903  -0.231  0.00  0.00    +0.000 C 
ATOM     10  H   UNL     1       0.694   2.178   1.815  0.00  0.00    +0.000 HD
ATOM     11  H   UNL     1       0.178   3.469   0.785  0.00  0.00    +0.000 HD
ENDBRANCH   3   9
BRANCH   2  12
ATOM     12  N   UNL     1      -0.289  -0.536  -0.326  0.00  0.00    +0.000 N 
ATOM     13  H   UNL     1      -0.628   0.298  -0.795  0.00  0.00    +0.000 HD
BRANCH  12  14
ATOM     14  C   UNL     1      -1.133  -1.704  -0.404  0.00  0.00    +0.000 C 
BRANCH  14  15
ATOM     15  C   UNL     1      -2.563  -1.314  -0.771  0.00  0.00    +0.000 C 
BRANCH  15  16
ATOM     16  C   UNL     1      -3.214  -0.403   0.275  0.00  0.00    +0.000 C 
BRANCH  16  17
ATOM     17  C   UNL     1      -4.639  -0.025  -0.131  0.00  0.00    +0.000 C 
ATOM     18  C   UNL     1      -5.306   0.846   0.922  0.00  0.00    +0.000 C 
ENDBRANCH  16  17
ENDBRANCH  15  16
ENDBRANCH  14  15
ENDBRANCH  12  14
ENDBRANCH   2  12
TORSDOF 6
