REMARK  Name = 29267326
REMARK  6 active torsions:
REMARK  status: ('A' for Active; 'I' for Inactive)
REMARK    1  A    between atoms: N_2  and  C_6
REMARK    2  A    between atoms: N_2  and  C_9
REMARK    3  A    between atoms: C_5  and  C_6
REMARK    4  A    between atoms: C_5  and  C_7
REMARK    5  A    between atoms: C_5  and  C_8
REMARK    6  A    between atoms: C_10  and  C_13
REMARK                            x       y       z     vdW  Elec       q    Type
REMARK                         _______ _______ _______ _____ _____    ______ ____
ROOT
ATOM      1  N   UNL     1       0.819   1.879   0.001  0.00  0.00    +0.000 NA
ATOM      2  C   UNL     1       0.472   0.572  -0.016  0.00  0.00    +0.000 A 
ATOM      3  C   UNL     1       1.383  -0.472  -0.017  0.00  0.00    +0.000 A 
ATOM      4  C   UNL     1       2.736  -0.155   0.000  0.00  0.00    +0.000 A 
ATOM      5  C   UNL     1       3.132   1.178   0.018  0.00  0.00    +0.000 A 
ATOM      6  C   UNL     1       2.143   2.148   0.017  0.00  0.00    +0.000 A 
ENDROOT
BRANCH   3   9
ATOM      7  O   UNL     1       0.825  -2.483  -1.109  0.00  0.00    +0.000 OA
ATOM      8  N   UNL     1       0.787  -2.506   1.184  0.00  0.00    +0.000 N 
ATOM      9  C   UNL     1       0.978  -1.871  -0.038  0.00  0.00    +0.000 C 
ATOM     10  H   UNL     1       0.914  -2.024   2.068  0.00  0.00    +0.000 HD
ATOM     11  H   UNL     1       0.511  -3.482   1.228  0.00  0.00    +0.000 HD
ENDBRANCH   3   9
BRANCH   2  12
ATOM     12  N   UNL     1      -0.879   0.264  -0.036  0.00  0.00    +0.000 N 
ATOM     13  H   UNL     1      -1.137  -0.687   0.199  0.00  0.00    +0.000 HD
BRANCH  12  14
ATOM     14  C   UNL     1      -1.927   1.257  -0.037  0.00  0.00    +0.000 C 
BRANCH  14  15
ATOM     15  C   UNL     1      -3.323   0.618  -0.017  0.00  0.00    +0.000 C 
ATOM     16  C   UNL     1      -3.563  -0.279  -1.232  0.00  0.00    +0.000 C 
ATOM     17  C   UNL     1      -3.585  -0.150   1.280  0.00  0.00    +0.000 C 
ENDBRANCH  14  15
ENDBRANCH  12  14
ENDBRANCH   2  12
TORSDOF 4
