REMARK  Name = 29296277
REMARK  4 active torsions:
REMARK  status: ('A' for Active; 'I' for Inactive)
REMARK    1  A    between atoms: N_3  and  C_7
REMARK    2  A    between atoms: N_3  and  C_9
REMARK    3  A    between atoms: C_8  and  C_12
REMARK    4  A    between atoms: C_9  and  C_14
REMARK                            x       y       z     vdW  Elec       q    Type
REMARK                         _______ _______ _______ _____ _____    ______ ____
ROOT
ATOM      1  N   UNL     1      -0.621   1.883   0.014  0.00  0.00    +0.000 NA
ATOM      2  C   UNL     1      -0.451   0.542  -0.005  0.00  0.00    +0.000 A 
ATOM      3  C   UNL     1      -1.493  -0.372  -0.021  0.00  0.00    +0.000 A 
ATOM      4  C   UNL     1      -2.792   0.123  -0.018  0.00  0.00    +0.000 A 
ATOM      5  C   UNL     1      -3.007   1.496   0.002  0.00  0.00    +0.000 A 
ATOM      6  C   UNL     1      -1.898   2.326   0.017  0.00  0.00    +0.000 A 
ENDROOT
BRANCH   3   9
ATOM      7  O   UNL     1      -1.163  -2.433  -1.113  0.00  0.00    +0.000 OA
ATOM      8  N   UNL     1      -1.186  -2.469   1.180  0.00  0.00    +0.000 N 
ATOM      9  C   UNL     1      -1.278  -1.812  -0.043  0.00  0.00    +0.000 C 
ATOM     10  H   UNL     1      -1.269  -1.978   2.064  0.00  0.00    +0.000 HD
ATOM     11  H   UNL     1      -1.030  -3.471   1.223  0.00  0.00    +0.000 HD
ENDBRANCH   3   9
BRANCH   2  12
ATOM     12  N   UNL     1       0.877   0.046  -0.011  0.00  0.00    +0.000 N 
ATOM     13  H   UNL     1       0.998  -0.906   0.320  0.00  0.00    +0.000 HD
BRANCH  12  14
ATOM     14  C   UNL     1       2.018   0.901   0.004  0.00  0.00    +0.000 C 
BRANCH  14  17
ATOM     15  O   UNL     1       3.298  -1.156  -0.028  0.00  0.00    +0.000 OA
ATOM     16  N   UNL     1       4.417   0.852   0.025  0.00  0.00    +0.000 N 
ATOM     17  C   UNL     1       3.280   0.072  -0.002  0.00  0.00    +0.000 C 
ATOM     18  H   UNL     1       4.378   1.866   0.046  0.00  0.00    +0.000 HD
ATOM     19  H   UNL     1       5.339   0.430   0.024  0.00  0.00    +0.000 HD
ENDBRANCH  14  17
ENDBRANCH  12  14
ENDBRANCH   2  12
TORSDOF 4
