REMARK  Name = 29541399
REMARK  4 active torsions:
REMARK  status: ('A' for Active; 'I' for Inactive)
REMARK    1  A    between atoms: N_2  and  C_5
REMARK    2  A    between atoms: N_2  and  C_6
REMARK    3  A    between atoms: C_6  and  C_9
REMARK    4  A    between atoms: C_7  and  C_11
REMARK                            x       y       z     vdW  Elec       q    Type
REMARK                         _______ _______ _______ _____ _____    ______ ____
ROOT
ATOM      1  N   UNL     1       0.096   1.854  -0.021  0.00  0.00    +0.000 NA
ATOM      2  C   UNL     1       0.213   0.507   0.002  0.00  0.00    +0.000 A 
ATOM      3  C   UNL     1      -0.864  -0.365   0.024  0.00  0.00    +0.000 A 
ATOM      4  C   UNL     1      -2.143   0.181   0.023  0.00  0.00    +0.000 A 
ATOM      5  C   UNL     1      -2.304   1.562   0.001  0.00  0.00    +0.000 A 
ATOM      6  C   UNL     1      -1.163   2.347  -0.021  0.00  0.00    +0.000 A 
ENDROOT
BRANCH   3   9
ATOM      7  O   UNL     1      -0.647  -2.440   1.116  0.00  0.00    +0.000 OA
ATOM      8  N   UNL     1      -0.644  -2.473  -1.177  0.00  0.00    +0.000 N 
ATOM      9  C   UNL     1      -0.707  -1.812   0.045  0.00  0.00    +0.000 C 
ATOM     10  H   UNL     1      -0.698  -1.977  -2.061  0.00  0.00    +0.000 HD
ATOM     11  H   UNL     1      -0.541  -3.481  -1.221  0.00  0.00    +0.000 HD
ENDBRANCH   3   9
BRANCH   2  12
ATOM     12  N   UNL     1       1.520  -0.042   0.003  0.00  0.00    +0.000 N 
ATOM     13  H   UNL     1       1.604  -1.000  -0.321  0.00  0.00    +0.000 HD
BRANCH  12  14
ATOM     14  C   UNL     1       2.694   0.767  -0.019  0.00  0.00    +0.000 C 
ATOM     15  C   UNL     1       3.950  -0.086   0.023  0.00  0.00    +0.000 C 
ENDBRANCH  12  14
ENDBRANCH   2  12
TORSDOF 3
