REMARK  Name = 29788904
REMARK  7 active torsions:
REMARK  status: ('A' for Active; 'I' for Inactive)
REMARK    1  A    between atoms: N_2  and  C_6
REMARK    2  A    between atoms: N_2  and  C_9
REMARK    3  A    between atoms: N_2  and  C_10
REMARK    4  A    between atoms: N_3  and  C_7
REMARK    5  A    between atoms: N_3  and  C_8
REMARK    6  A    between atoms: C_6  and  C_7
REMARK    7  A    between atoms: C_11  and  C_14
REMARK                            x       y       z     vdW  Elec       q    Type
REMARK                         _______ _______ _______ _____ _____    ______ ____
ROOT
ATOM      1  N   UNL     1      -0.883   1.815  -0.143  0.00  0.00    +0.000 NA
ATOM      2  C   UNL     1      -0.873   0.467  -0.051  0.00  0.00    +0.000 A 
ATOM      3  C   UNL     1      -2.014  -0.313   0.043  0.00  0.00    +0.000 A 
ATOM      4  C   UNL     1      -3.245   0.332   0.042  0.00  0.00    +0.000 A 
ATOM      5  C   UNL     1      -3.297   1.719  -0.052  0.00  0.00    +0.000 A 
ATOM      6  C   UNL     1      -2.098   2.408  -0.141  0.00  0.00    +0.000 A 
ENDROOT
BRANCH   3   9
ATOM      7  O   UNL     1      -1.930  -2.337   1.245  0.00  0.00    +0.000 OA
ATOM      8  N   UNL     1      -1.995  -2.495  -1.041  0.00  0.00    +0.000 N 
ATOM      9  C   UNL     1      -1.970  -1.766   0.143  0.00  0.00    +0.000 C 
ATOM     10  H   UNL     1      -2.035  -2.046  -1.951  0.00  0.00    +0.000 HD
ATOM     11  H   UNL     1      -1.973  -3.510  -1.030  0.00  0.00    +0.000 HD
ENDBRANCH   3   9
BRANCH   2  12
ATOM     12  N   UNL     1       0.359  -0.170  -0.050  0.00  0.00    +0.000 N 
ATOM     13  H   UNL     1       0.366  -1.158  -0.279  0.00  0.00    +0.000 HD
BRANCH  12  14
ATOM     14  C   UNL     1       1.620   0.525  -0.142  0.00  0.00    +0.000 C 
BRANCH  14  15
ATOM     15  C   UNL     1       2.764  -0.479  -0.080  0.00  0.00    +0.000 C 
BRANCH  15  16
ATOM     16  N   UNL     1       4.050   0.206  -0.200  0.00  0.00    +0.000 NA
ATOM     17  C   UNL     1       5.085  -0.725  -0.649  0.00  0.00    +0.000 C 
ATOM     18  C   UNL     1       4.428   0.812   1.077  0.00  0.00    +0.000 C 
ENDBRANCH  15  16
ENDBRANCH  14  15
ENDBRANCH  12  14
ENDBRANCH   2  12
TORSDOF 5
