REMARK  Name = 29922303
REMARK  5 active torsions:
REMARK  status: ('A' for Active; 'I' for Inactive)
REMARK    1  A    between atoms: N_3  and  C_9
REMARK    2  A    between atoms: C_4  and  C_5
REMARK    3  A    between atoms: C_4  and  C_6
REMARK    4  A    between atoms: C_5  and  C_8
REMARK    5  A    between atoms: C_6  and  C_7
REMARK                            x       y       z     vdW  Elec       q    Type
REMARK                         _______ _______ _______ _____ _____    ______ ____
ROOT
ATOM      1  N   UNL     1       2.775   0.450  -0.409  0.00  0.00    +0.000 NA
ATOM      2  C   UNL     1       0.484  -0.042   0.188  0.00  0.00    +0.000 A 
ATOM      3  C   UNL     1       1.494   0.826  -0.196  0.00  0.00    +0.000 A 
ATOM      4  C   UNL     1       0.809  -1.382   0.363  0.00  0.00    +0.000 A 
ATOM      5  C   UNL     1       2.116  -1.808   0.153  0.00  0.00    +0.000 A 
ATOM      6  C   UNL     1       3.053  -0.861  -0.229  0.00  0.00    +0.000 A 
ENDROOT
BRANCH   3   7
ATOM      7  N   UNL     1       1.169   2.194  -0.379  0.00  0.00    +0.000 N 
ATOM      8  H   UNL     1       0.238   2.431  -0.699  0.00  0.00    +0.000 HD
ATOM      9  H   UNL     1       1.929   2.805  -0.654  0.00  0.00    +0.000 HD
ENDBRANCH   3   7
BRANCH   2  11
ATOM     10  O   UNL     1      -1.134   1.550   0.805  0.00  0.00    +0.000 OA
ATOM     11  C   UNL     1      -0.923   0.404   0.412  0.00  0.00    +0.000 C 
BRANCH  11  12
ATOM     12  C   UNL     1      -2.053  -0.579   0.146  0.00  0.00    +0.000 C 
BRANCH  12  13
ATOM     13  C   UNL     1      -3.332   0.121  -0.311  0.00  0.00    +0.000 C 
ATOM     14  C   UNL     1      -4.459  -0.873  -0.542  0.00  0.00    +0.000 C 
ENDBRANCH  12  13
ENDBRANCH  11  12
ENDBRANCH   2  11
TORSDOF 4
