REMARK  Name = 29922305
REMARK  4 active torsions:
REMARK  status: ('A' for Active; 'I' for Inactive)
REMARK    1  A    between atoms: N_3  and  C_7
REMARK    2  A    between atoms: C_4  and  C_6
REMARK    3  A    between atoms: C_5  and  C_6
REMARK    4  A    between atoms: C_5  and  C_9
REMARK                            x       y       z     vdW  Elec       q    Type
REMARK                         _______ _______ _______ _____ _____    ______ ____
ROOT
ATOM      1  N   UNL     1       2.311  -0.738   0.259  0.00  0.00    +0.000 NA
ATOM      2  C   UNL     1       0.084   0.117  -0.133  0.00  0.00    +0.000 A 
ATOM      3  C   UNL     1       0.978  -0.911   0.119  0.00  0.00    +0.000 A 
ATOM      4  C   UNL     1       0.591   1.407  -0.247  0.00  0.00    +0.000 A 
ATOM      5  C   UNL     1       1.957   1.625  -0.109  0.00  0.00    +0.000 A 
ATOM      6  C   UNL     1       2.767   0.529   0.141  0.00  0.00    +0.000 A 
ENDROOT
BRANCH   3   7
ATOM      7  N   UNL     1       0.468  -2.228   0.240  0.00  0.00    +0.000 N 
ATOM      8  H   UNL     1      -0.465  -2.354   0.613  0.00  0.00    +0.000 HD
ATOM      9  H   UNL     1       1.146  -2.959   0.418  0.00  0.00    +0.000 HD
ENDBRANCH   3   7
BRANCH   2  11
ATOM     10  O   UNL     1      -1.787  -1.178  -0.726  0.00  0.00    +0.000 OA
ATOM     11  C   UNL     1      -1.349  -0.101  -0.276  0.00  0.00    +0.000 C 
BRANCH  11  12
ATOM     12  C   UNL     1      -2.337   1.005   0.131  0.00  0.00    +0.000 C 
ATOM     13  C   UNL     1      -3.682   0.473   0.601  0.00  0.00    +0.000 C 
ENDBRANCH  11  12
ENDBRANCH   2  11
TORSDOF 3
