REMARK  Name = 29922307
REMARK  6 active torsions:
REMARK  status: ('A' for Active; 'I' for Inactive)
REMARK    1  A    between atoms: N_3  and  C_10
REMARK    2  A    between atoms: C_4  and  C_5
REMARK    3  A    between atoms: C_4  and  C_6
REMARK    4  A    between atoms: C_5  and  C_7
REMARK    5  A    between atoms: C_6  and  C_9
REMARK    6  A    between atoms: C_7  and  C_8
REMARK                            x       y       z     vdW  Elec       q    Type
REMARK                         _______ _______ _______ _____ _____    ______ ____
ROOT
ATOM      1  N   UNL     1       3.204  -0.421   0.507  0.00  0.00    +0.000 NA
ATOM      2  C   UNL     1       0.940   0.038  -0.205  0.00  0.00    +0.000 A 
ATOM      3  C   UNL     1       1.940  -0.815   0.233  0.00  0.00    +0.000 A 
ATOM      4  C   UNL     1       1.257   1.382  -0.372  0.00  0.00    +0.000 A 
ATOM      5  C   UNL     1       2.546   1.825  -0.100  0.00  0.00    +0.000 A 
ATOM      6  C   UNL     1       3.475   0.892   0.333  0.00  0.00    +0.000 A 
ENDROOT
BRANCH   3   7
ATOM      7  N   UNL     1       1.624  -2.185   0.408  0.00  0.00    +0.000 N 
ATOM      8  H   UNL     1       0.682  -2.433   0.682  0.00  0.00    +0.000 HD
ATOM      9  H   UNL     1       2.377  -2.785   0.724  0.00  0.00    +0.000 HD
ENDBRANCH   3   7
BRANCH   2  11
ATOM     10  O   UNL     1      -0.624  -1.577  -0.894  0.00  0.00    +0.000 OA
ATOM     11  C   UNL     1      -0.448  -0.427  -0.498  0.00  0.00    +0.000 C 
BRANCH  11  12
ATOM     12  C   UNL     1      -1.602   0.543  -0.293  0.00  0.00    +0.000 C 
BRANCH  12  13
ATOM     13  C   UNL     1      -2.901  -0.174   0.076  0.00  0.00    +0.000 C 
BRANCH  13  14
ATOM     14  C   UNL     1      -4.055   0.815   0.239  0.00  0.00    +0.000 C 
ATOM     15  C   UNL     1      -5.357   0.102   0.568  0.00  0.00    +0.000 C 
ENDBRANCH  13  14
ENDBRANCH  12  13
ENDBRANCH  11  12
ENDBRANCH   2  11
TORSDOF 5
