REMARK  Name = 30057507
REMARK  5 active torsions:
REMARK  status: ('A' for Active; 'I' for Inactive)
REMARK    1  A    between atoms: N_2  and  C_5
REMARK    2  A    between atoms: N_2  and  C_8
REMARK    3  A    between atoms: C_5  and  C_6
REMARK    4  A    between atoms: C_5  and  C_7
REMARK    5  A    between atoms: C_9  and  C_12
REMARK                            x       y       z     vdW  Elec       q    Type
REMARK                         _______ _______ _______ _____ _____    ______ ____
ROOT
ATOM      1  N   UNL     1       0.230   1.736  -0.161  0.00  0.00    +0.000 NA
ATOM      2  C   UNL     1       0.070   0.394  -0.102  0.00  0.00    +0.000 A 
ATOM      3  C   UNL     1      -1.160  -0.237  -0.017  0.00  0.00    +0.000 A 
ATOM      4  C   UNL     1      -2.300   0.559   0.009  0.00  0.00    +0.000 A 
ATOM      5  C   UNL     1      -2.176   1.942  -0.049  0.00  0.00    +0.000 A 
ATOM      6  C   UNL     1      -0.900   2.477  -0.132  0.00  0.00    +0.000 A 
ENDROOT
BRANCH   3   9
ATOM      7  O   UNL     1      -1.400  -2.372  -0.984  0.00  0.00    +0.000 OA
ATOM      8  N   UNL     1      -1.299  -2.279   1.305  0.00  0.00    +0.000 N 
ATOM      9  C   UNL     1      -1.300  -1.686   0.047  0.00  0.00    +0.000 C 
ATOM     10  H   UNL     1      -1.210  -1.735   2.158  0.00  0.00    +0.000 HD
ATOM     11  H   UNL     1      -1.387  -3.284   1.408  0.00  0.00    +0.000 HD
ENDBRANCH   3   9
BRANCH   2  12
ATOM     12  N   UNL     1       1.209  -0.391  -0.127  0.00  0.00    +0.000 N 
ATOM     13  H   UNL     1       1.128  -1.330   0.251  0.00  0.00    +0.000 HD
BRANCH  12  14
ATOM     14  C   UNL     1       2.550   0.145  -0.213  0.00  0.00    +0.000 C 
ATOM     15  C   UNL     1       3.490  -0.934  -0.734  0.00  0.00    +0.000 C 
ATOM     16  C   UNL     1       2.987   0.646   1.158  0.00  0.00    +0.000 C 
ENDBRANCH  12  14
ENDBRANCH   2  12
TORSDOF 3
