REMARK  Name = 3031415
REMARK  2 active torsions:
REMARK  status: ('A' for Active; 'I' for Inactive)
REMARK    1  A    between atoms: N_2  and  C_5
REMARK    2  A    between atoms: C_14  and  C_16
REMARK                            x       y       z     vdW  Elec       q    Type
REMARK                         _______ _______ _______ _____ _____    ______ ____
ROOT
ATOM      1  N   UNL     1      -1.324  -0.640  -0.343  0.00  0.00    +0.000 N 
ATOM      2  N   UNL     1       0.559   0.806  -0.545  0.00  0.00    +0.000 NA
ATOM      3  C   UNL     1       0.037  -0.419  -0.230  0.00  0.00    +0.000 A 
ATOM      4  C   UNL     1       0.851  -1.472   0.210  0.00  0.00    +0.000 A 
ATOM      5  C   UNL     1       2.220  -1.265   0.329  0.00  0.00    +0.000 A 
ATOM      6  C   UNL     1       2.761  -0.024   0.010  0.00  0.00    +0.000 A 
ATOM      7  C   UNL     1       1.895   0.970  -0.418  0.00  0.00    +0.000 A 
ATOM      8  H   UNL     1      -1.694  -1.438   0.162  0.00  0.00    +0.000 HD
ENDROOT
BRANCH   1   9
ATOM      9  C   UNL     1      -2.266   0.371  -0.784  0.00  0.00    +0.000 C 
ATOM     10  C   UNL     1      -3.542  -0.293  -1.309  0.00  0.00    +0.000 C 
ATOM     11  C   UNL     1      -2.567   1.345   0.359  0.00  0.00    +0.000 C 
ATOM     12  C   UNL     1      -4.384  -0.918  -0.196  0.00  0.00    +0.000 C 
ATOM     13  C   UNL     1      -3.413   0.714   1.466  0.00  0.00    +0.000 C 
ATOM     14  C   UNL     1      -4.687   0.085   0.912  0.00  0.00    +0.000 C 
ENDBRANCH   1   9
BRANCH   6  17
ATOM     15  O   UNL     1       4.677   1.336  -0.144  0.00  0.00    +0.000 OA
ATOM     16  N   UNL     1       4.996  -0.823   0.560  0.00  0.00    +0.000 N 
ATOM     17  C   UNL     1       4.187   0.224   0.123  0.00  0.00    +0.000 C 
ATOM     18  H   UNL     1       4.677  -1.752   0.801  0.00  0.00    +0.000 HD
ATOM     19  H   UNL     1       5.996  -0.675   0.654  0.00  0.00    +0.000 HD
ENDBRANCH   6  17
TORSDOF 2
