REMARK  Name = 3031423
REMARK  4 active torsions:
REMARK  status: ('A' for Active; 'I' for Inactive)
REMARK    1  A    between atoms: N_2  and  C_5
REMARK    2  A    between atoms: C_5  and  C_6
REMARK    3  A    between atoms: C_5  and  C_7
REMARK    4  A    between atoms: C_10  and  C_13
REMARK                            x       y       z     vdW  Elec       q    Type
REMARK                         _______ _______ _______ _____ _____    ______ ____
ROOT
ATOM      1  N   UNL     1       2.286  -0.674  -0.018  0.00  0.00    +0.000 N 
ATOM      2  N   UNL     1       0.436   0.815  -0.215  0.00  0.00    +0.000 NA
ATOM      3  C   UNL     1       0.921  -0.450  -0.020  0.00  0.00    +0.000 A 
ATOM      4  C   UNL     1       0.066  -1.542   0.180  0.00  0.00    +0.000 A 
ATOM      5  C   UNL     1      -1.812  -0.051  -0.017  0.00  0.00    +0.000 A 
ATOM      6  C   UNL     1      -1.309  -1.333   0.180  0.00  0.00    +0.000 A 
ATOM      7  C   UNL     1      -0.906   0.979  -0.208  0.00  0.00    +0.000 A 
ATOM      8  H   UNL     1       2.605  -1.533   0.418  0.00  0.00    +0.000 HD
ENDROOT
BRANCH   5  11
ATOM      9  O   UNL     1      -4.064  -0.718   0.168  0.00  0.00    +0.000 OA
ATOM     10  N   UNL     1      -3.673   1.508  -0.224  0.00  0.00    +0.000 N 
ATOM     11  C   UNL     1      -3.243   0.199  -0.021  0.00  0.00    +0.000 C 
ATOM     12  H   UNL     1      -3.072   2.307  -0.379  0.00  0.00    +0.000 HD
ATOM     13  H   UNL     1      -4.667   1.712  -0.225  0.00  0.00    +0.000 HD
ENDBRANCH   5  11
BRANCH   1  14
ATOM     14  C   UNL     1       3.269   0.370  -0.215  0.00  0.00    +0.000 C 
ATOM     15  C   UNL     1       4.581  -0.255  -0.670  0.00  0.00    +0.000 C 
ATOM     16  C   UNL     1       3.447   1.153   1.080  0.00  0.00    +0.000 C 
ENDBRANCH   1  14
TORSDOF 2
