REMARK  Name = 3031419
REMARK  3 active torsions:
REMARK  status: ('A' for Active; 'I' for Inactive)
REMARK    1  A    between atoms: N_2  and  C_5
REMARK    2  A    between atoms: C_5  and  C_10
REMARK    3  A    between atoms: C_8  and  C_12
REMARK                            x       y       z     vdW  Elec       q    Type
REMARK                         _______ _______ _______ _____ _____    ______ ____
ROOT
ATOM      1  N   UNL     1      -2.594   0.490  -0.010  0.00  0.00    +0.000 N 
ATOM      2  N   UNL     1      -0.404   1.428  -0.005  0.00  0.00    +0.000 NA
ATOM      3  C   UNL     1      -1.187   0.326  -0.006  0.00  0.00    +0.000 A 
ATOM      4  C   UNL     1      -0.700  -0.972  -0.002  0.00  0.00    +0.000 A 
ATOM      5  C   UNL     1       1.518  -0.040   0.003  0.00  0.00    +0.000 A 
ATOM      6  C   UNL     1       0.679  -1.149   0.003  0.00  0.00    +0.000 A 
ATOM      7  C   UNL     1       0.931   1.216  -0.001  0.00  0.00    +0.000 A 
ATOM      8  H   UNL     1      -2.938   1.444  -0.014  0.00  0.00    +0.000 HD
ENDROOT
BRANCH   5  11
ATOM      9  O   UNL     1       3.497  -1.317  -0.007  0.00  0.00    +0.000 OA
ATOM     10  N   UNL     1       3.738   0.964   0.007  0.00  0.00    +0.000 N 
ATOM     11  C   UNL     1       2.962  -0.193   0.007  0.00  0.00    +0.000 C 
ATOM     12  H   UNL     1       3.382   1.911   0.013  0.00  0.00    +0.000 HD
ATOM     13  H   UNL     1       4.750   0.886   0.003  0.00  0.00    +0.000 HD
ENDBRANCH   5  11
BRANCH   1  14
ATOM     14  C   UNL     1      -3.498  -0.613  -0.010  0.00  0.00    +0.000 C 
ATOM     15  C   UNL     1      -4.942  -0.140   0.020  0.00  0.00    +0.000 C 
ENDBRANCH   1  14
TORSDOF 2
