REMARK  Name = 3031421
REMARK  2 active torsions:
REMARK  status: ('A' for Active; 'I' for Inactive)
REMARK    1  A    between atoms: N_2  and  C_11
REMARK    2  A    between atoms: C_6  and  C_10
REMARK                            x       y       z     vdW  Elec       q    Type
REMARK                         _______ _______ _______ _____ _____    ______ ____
ROOT
ATOM      1  N   UNL     1       3.051   0.418   0.001  0.00  0.00    +0.000 N 
ATOM      2  N   UNL     1       1.133  -0.996  -0.003  0.00  0.00    +0.000 NA
ATOM      3  C   UNL     1       1.643   0.256   0.001  0.00  0.00    +0.000 A 
ATOM      4  C   UNL     1      -1.073  -0.006  -0.002  0.00  0.00    +0.000 A 
ATOM      5  C   UNL     1       0.873   1.407   0.003  0.00  0.00    +0.000 A 
ATOM      6  C   UNL     1      -0.511   1.265   0.001  0.00  0.00    +0.000 A 
ATOM      7  C   UNL     1      -0.215  -1.095  -0.004  0.00  0.00    +0.000 A 
ATOM      8  C   UNL     1       3.953  -0.688   0.001  0.00  0.00    +0.000 C 
ATOM      9  H   UNL     1       3.410   1.337   0.233  0.00  0.00    +0.000 HD
ENDROOT
BRANCH   4  12
ATOM     10  O   UNL     1      -3.026  -1.323   0.009  0.00  0.00    +0.000 OA
ATOM     11  N   UNL     1      -3.313   0.952  -0.002  0.00  0.00    +0.000 N 
ATOM     12  C   UNL     1      -2.514  -0.189  -0.004  0.00  0.00    +0.000 C 
ATOM     13  H   UNL     1      -2.977   1.906  -0.008  0.00  0.00    +0.000 HD
ATOM     14  H   UNL     1      -4.324   0.853   0.004  0.00  0.00    +0.000 HD
ENDBRANCH   4  12
TORSDOF 1
