REMARK  Name = 3031429
REMARK  1 active torsions:
REMARK  status: ('A' for Active; 'I' for Inactive)
REMARK    1  A    between atoms: C_13  and  C_15
REMARK                            x       y       z     vdW  Elec       q    Type
REMARK                         _______ _______ _______ _____ _____    ______ ____
ROOT
ATOM      1  N   UNL     1      -1.750   0.018   0.009  0.00  0.00    +0.000 N 
ATOM      2  N   UNL     1       0.328  -1.122  -0.347  0.00  0.00    +0.000 NA
ATOM      3  C   UNL     1      -4.633  -0.083  -0.086  0.00  0.00    +0.000 C 
ATOM      4  C   UNL     1      -3.876   1.218  -0.321  0.00  0.00    +0.000 C 
ATOM      5  C   UNL     1      -3.837  -0.994   0.840  0.00  0.00    +0.000 C 
ATOM      6  C   UNL     1      -2.467   0.962  -0.856  0.00  0.00    +0.000 C 
ATOM      7  C   UNL     1      -2.433  -1.251   0.297  0.00  0.00    +0.000 C 
ATOM      8  C   UNL     1      -0.350   0.012   0.008  0.00  0.00    +0.000 A 
ATOM      9  C   UNL     1       0.323   1.185   0.376  0.00  0.00    +0.000 A 
ATOM     10  C   UNL     1       1.713   1.194   0.380  0.00  0.00    +0.000 A 
ATOM     11  C   UNL     1       2.412   0.047   0.021  0.00  0.00    +0.000 A 
ATOM     12  C   UNL     1       1.679  -1.075  -0.331  0.00  0.00    +0.000 A 
ENDROOT
BRANCH  11  15
ATOM     13  O   UNL     1       4.530   1.023   0.348  0.00  0.00    +0.000 OA
ATOM     14  N   UNL     1       4.495  -1.160  -0.354  0.00  0.00    +0.000 N 
ATOM     15  C   UNL     1       3.864   0.025   0.017  0.00  0.00    +0.000 C 
ATOM     16  H   UNL     1       4.028  -2.013  -0.632  0.00  0.00    +0.000 HD
ATOM     17  H   UNL     1       5.509  -1.204  -0.359  0.00  0.00    +0.000 HD
ENDBRANCH  11  15
TORSDOF 1
