REMARK  Name = 3031427
REMARK  3 active torsions:
REMARK  status: ('A' for Active; 'I' for Inactive)
REMARK    1  A    between atoms: N_2  and  C_5
REMARK    2  A    between atoms: C_5  and  C_6
REMARK    3  A    between atoms: C_11  and  C_17
REMARK                            x       y       z     vdW  Elec       q    Type
REMARK                         _______ _______ _______ _____ _____    ______ ____
ROOT
ATOM      1  N   UNL     1      -0.678  -0.398  -0.033  0.00  0.00    +0.000 N 
ATOM      2  N   UNL     1       1.471  -1.426   0.025  0.00  0.00    +0.000 NA
ATOM      3  C   UNL     1       0.693  -0.295  -0.019  0.00  0.00    +0.000 A 
ATOM      4  C   UNL     1       1.276   0.983  -0.051  0.00  0.00    +0.000 A 
ATOM      5  C   UNL     1       3.452  -0.040   0.007  0.00  0.00    +0.000 A 
ATOM      6  C   UNL     1       2.662   1.103  -0.037  0.00  0.00    +0.000 A 
ATOM      7  C   UNL     1       2.814  -1.270   0.036  0.00  0.00    +0.000 A 
ATOM      8  H   UNL     1      -1.079  -1.328  -0.012  0.00  0.00    +0.000 HD
ENDROOT
BRANCH   5  11
ATOM      9  O   UNL     1       5.617  -0.967   0.046  0.00  0.00    +0.000 OA
ATOM     10  N   UNL     1       5.473   1.321  -0.008  0.00  0.00    +0.000 N 
ATOM     11  C   UNL     1       4.902   0.051   0.023  0.00  0.00    +0.000 C 
ATOM     12  H   UNL     1       4.964   2.195  -0.033  0.00  0.00    +0.000 HD
ATOM     13  H   UNL     1       6.484   1.413  -0.005  0.00  0.00    +0.000 HD
ENDBRANCH   5  11
BRANCH   1  14
ATOM     14  C   UNL     1      -1.564   0.766  -0.078  0.00  0.00    +0.000 C 
BRANCH  14  15
ATOM     15  C   UNL     1      -3.005   0.385  -0.030  0.00  0.00    +0.000 A 
ATOM     16  C   UNL     1      -3.702   0.142  -1.214  0.00  0.00    +0.000 A 
ATOM     17  C   UNL     1      -3.656   0.272   1.198  0.00  0.00    +0.000 A 
ATOM     18  C   UNL     1      -5.050  -0.215  -1.169  0.00  0.00    +0.000 A 
ATOM     19  C   UNL     1      -5.004  -0.085   1.243  0.00  0.00    +0.000 A 
ATOM     20  C   UNL     1      -5.701  -0.328   0.059  0.00  0.00    +0.000 A 
ENDBRANCH  14  15
ENDBRANCH   1  14
TORSDOF 3
