REMARK  Name = 3039701
REMARK  3 active torsions:
REMARK  status: ('A' for Active; 'I' for Inactive)
REMARK    1  A    between atoms: N_2  and  C_6
REMARK    2  A    between atoms: N_4  and  C_8
REMARK    3  A    between atoms: C_5  and  C_7
REMARK                            x       y       z     vdW  Elec       q    Type
REMARK                         _______ _______ _______ _____ _____    ______ ____
ROOT
ATOM      1  O   UNL     1       0.117   0.881  -1.626  0.00  0.00    +0.000 OA
ATOM      2  N   UNL     1      -0.590  -0.303   0.278  0.00  0.00    +0.000 N 
ATOM      3  C   UNL     1       0.350   0.232  -0.612  0.00  0.00    +0.000 C 
ATOM      4  H   UNL     1      -0.223  -0.822   1.073  0.00  0.00    +0.000 HD
ENDROOT
BRANCH   3   6
ATOM      5  N   UNL     1       3.802   0.550   0.827  0.00  0.00    +0.000 NA
ATOM      6  C   UNL     1       1.772  -0.053  -0.283  0.00  0.00    +0.000 A 
ATOM      7  C   UNL     1       2.509   0.784   0.512  0.00  0.00    +0.000 A 
ATOM      8  C   UNL     1       2.344  -1.191  -0.802  0.00  0.00    +0.000 A 
ATOM      9  C   UNL     1       3.674  -1.466  -0.501  0.00  0.00    +0.000 A 
ATOM     10  C   UNL     1       4.353  -0.572   0.311  0.00  0.00    +0.000 A 
BRANCH   7  11
ATOM     11  N   UNL     1       1.902   1.952   1.038  0.00  0.00    +0.000 N 
ATOM     12  H   UNL     1       2.486   2.543   1.618  0.00  0.00    +0.000 HD
ATOM     13  H   UNL     1       0.909   1.936   1.235  0.00  0.00    +0.000 HD
ENDBRANCH   7  11
ENDBRANCH   3   6
BRANCH   2  14
ATOM     14  C   UNL     1      -1.981  -0.219   0.211  0.00  0.00    +0.000 A 
ATOM     15  C   UNL     1      -2.588   0.465  -0.842  0.00  0.00    +0.000 A 
ATOM     16  C   UNL     1      -2.765  -0.821   1.196  0.00  0.00    +0.000 A 
ATOM     17  C   UNL     1      -3.979   0.549  -0.910  0.00  0.00    +0.000 A 
ATOM     18  C   UNL     1      -4.156  -0.737   1.128  0.00  0.00    +0.000 A 
ATOM     19  C   UNL     1      -4.763  -0.052   0.075  0.00  0.00    +0.000 A 
ENDBRANCH   2  14
TORSDOF 3
