REMARK  Name = 3039699
REMARK  4 active torsions:
REMARK  status: ('A' for Active; 'I' for Inactive)
REMARK    1  A    between atoms: N_2  and  C_5
REMARK    2  A    between atoms: N_4  and  C_11
REMARK    3  A    between atoms: C_5  and  C_6
REMARK    4  A    between atoms: C_7  and  C_8
REMARK                            x       y       z     vdW  Elec       q    Type
REMARK                         _______ _______ _______ _____ _____    ______ ____
ROOT
ATOM      1  O   UNL     1       0.446   0.980   1.625  0.00  0.00    +0.000 OA
ATOM      2  N   UNL     1      -0.200  -1.086   0.792  0.00  0.00    +0.000 N 
ATOM      3  C   UNL     1       0.681  -0.024   0.959  0.00  0.00    +0.000 C 
ATOM      4  H   UNL     1       0.027  -1.849   0.162  0.00  0.00    +0.000 HD
ENDROOT
BRANCH   3   6
ATOM      5  N   UNL     1       3.841   0.903  -0.843  0.00  0.00    +0.000 NA
ATOM      6  C   UNL     1       1.980  -0.134   0.246  0.00  0.00    +0.000 A 
ATOM      7  C   UNL     1       2.658   0.973  -0.192  0.00  0.00    +0.000 A 
ATOM      8  C   UNL     1       2.499  -1.390   0.028  0.00  0.00    +0.000 A 
ATOM      9  C   UNL     1       3.715  -1.503  -0.638  0.00  0.00    +0.000 A 
ATOM     10  C   UNL     1       4.340  -0.337  -1.050  0.00  0.00    +0.000 A 
BRANCH   7  11
ATOM     11  N   UNL     1       2.107   2.258   0.039  0.00  0.00    +0.000 N 
ATOM     12  H   UNL     1       1.099   2.356   0.059  0.00  0.00    +0.000 HD
ATOM     13  H   UNL     1       2.646   3.047  -0.298  0.00  0.00    +0.000 HD
ENDBRANCH   7  11
ENDBRANCH   3   6
BRANCH   2  14
ATOM     14  C   UNL     1      -1.504  -1.115   1.397  0.00  0.00    +0.000 C 
BRANCH  14  15
ATOM     15  C   UNL     1      -2.498  -0.498   0.472  0.00  0.00    +0.000 A 
ATOM     16  C   UNL     1      -2.755   0.871   0.537  0.00  0.00    +0.000 A 
ATOM     17  C   UNL     1      -3.170  -1.290  -0.459  0.00  0.00    +0.000 A 
ATOM     18  C   UNL     1      -3.684   1.449  -0.328  0.00  0.00    +0.000 A 
ATOM     19  C   UNL     1      -4.099  -0.713  -1.325  0.00  0.00    +0.000 A 
ATOM     20  C   UNL     1      -4.356   0.657  -1.259  0.00  0.00    +0.000 A 
ENDBRANCH  14  15
ENDBRANCH   2  14
TORSDOF 4
