REMARK  Name = 3059529
REMARK  2 active torsions:
REMARK  status: ('A' for Active; 'I' for Inactive)
REMARK    1  A    between atoms: O_2  and  N_4
REMARK    2  A    between atoms: C_6  and  C_11
REMARK                            x       y       z     vdW  Elec       q    Type
REMARK                         _______ _______ _______ _____ _____    ______ ____
ROOT
ATOM      1  N   UNL     1       1.897  -1.125   0.221  0.00  0.00    +0.000 NA
ATOM      2  N   UNL     1       3.835   0.251   0.065  0.00  0.00    +0.000 N 
ATOM      3  C   UNL     1      -0.291  -0.132  -0.045  0.00  0.00    +0.000 A 
ATOM      4  C   UNL     1       0.291   1.116  -0.237  0.00  0.00    +0.000 A 
ATOM      5  C   UNL     1       1.675   1.245  -0.201  0.00  0.00    +0.000 A 
ATOM      6  C   UNL     1       0.548  -1.211   0.178  0.00  0.00    +0.000 A 
ATOM      7  C   UNL     1       2.427   0.104   0.030  0.00  0.00    +0.000 A 
ATOM      8  H   UNL     1       4.380  -0.584   0.240  0.00  0.00    +0.000 HD
ATOM      9  H   UNL     1       4.220   1.143   0.352  0.00  0.00    +0.000 HD
ENDROOT
BRANCH   3  12
ATOM     10  O   UNL     1      -2.242  -1.385  -0.417  0.00  0.00    +0.000 OA
ATOM     11  N   UNL     1      -2.508   0.800   0.267  0.00  0.00    +0.000 N 
ATOM     12  C   UNL     1      -1.733  -0.299  -0.079  0.00  0.00    +0.000 C 
ATOM     13  H   UNL     1      -2.174   1.674   0.658  0.00  0.00    +0.000 HD
BRANCH  11  14
ATOM     14  O   UNL     1      -3.900   0.635   0.218  0.00  0.00    +0.000 OA
ATOM     15  H   UNL     1      -4.081   0.972  -0.676  0.00  0.00    +0.000 HD
ENDBRANCH  11  14
ENDBRANCH   3  12
TORSDOF 2
