REMARK  Name = 30755966
REMARK  4 active torsions:
REMARK  status: ('A' for Active; 'I' for Inactive)
REMARK    1  A    between atoms: N_2  and  C_5
REMARK    2  A    between atoms: N_2  and  C_11
REMARK    3  A    between atoms: N_2  and  C_12
REMARK    4  A    between atoms: C_13  and  C_15
REMARK                            x       y       z     vdW  Elec       q    Type
REMARK                         _______ _______ _______ _____ _____    ______ ____
ROOT
ATOM      1  N   UNL     1      -0.275  -1.650  -0.694  0.00  0.00    +0.000 NA
ATOM      2  C   UNL     1      -0.681  -0.384  -0.449  0.00  0.00    +0.000 A 
ATOM      3  C   UNL     1      -1.884  -0.059   0.156  0.00  0.00    +0.000 A 
ATOM      4  C   UNL     1      -2.725  -1.100   0.534  0.00  0.00    +0.000 A 
ATOM      5  C   UNL     1      -1.119  -2.636  -0.314  0.00  0.00    +0.000 A 
ATOM      6  C   UNL     1      -2.342  -2.416   0.298  0.00  0.00    +0.000 A 
ENDROOT
BRANCH   3   9
ATOM      7  O   UNL     1      -2.959   1.953  -0.430  0.00  0.00    +0.000 OA
ATOM      8  N   UNL     1      -1.935   1.888   1.620  0.00  0.00    +0.000 N 
ATOM      9  C   UNL     1      -2.295   1.316   0.405  0.00  0.00    +0.000 C 
ATOM     10  H   UNL     1      -1.405   1.379   2.320  0.00  0.00    +0.000 HD
ATOM     11  H   UNL     1      -2.199   2.841   1.847  0.00  0.00    +0.000 HD
ENDBRANCH   3   9
BRANCH   2  12
ATOM     12  N   UNL     1       0.170   0.658  -0.834  0.00  0.00    +0.000 N 
ATOM     13  C   UNL     1      -0.277   1.657  -1.802  0.00  0.00    +0.000 C 
BRANCH  12  14
ATOM     14  C   UNL     1       1.508   0.773  -0.295  0.00  0.00    +0.000 C 
ATOM     15  C   UNL     1       1.539   0.221   1.132  0.00  0.00    +0.000 C 
ATOM     16  C   UNL     1       2.488   0.026  -1.203  0.00  0.00    +0.000 C 
ATOM     17  C   UNL     1       2.954   0.230   1.705  0.00  0.00    +0.000 C 
ATOM     18  C   UNL     1       3.902   0.034  -0.627  0.00  0.00    +0.000 C 
ATOM     19  C   UNL     1       3.932  -0.511   0.798  0.00  0.00    +0.000 C 
ENDBRANCH  12  14
ENDBRANCH   2  12
TORSDOF 3
