REMARK  Name = 30756033
REMARK  5 active torsions:
REMARK  status: ('A' for Active; 'I' for Inactive)
REMARK    1  A    between atoms: N_2  and  C_12
REMARK    2  A    between atoms: N_2  and  C_13
REMARK    3  A    between atoms: C_7  and  C_10
REMARK    4  A    between atoms: C_10  and  C_12
REMARK    5  A    between atoms: C_14  and  C_16
REMARK                            x       y       z     vdW  Elec       q    Type
REMARK                         _______ _______ _______ _____ _____    ______ ____
ROOT
ATOM      1  N   UNL     1       2.290   1.762  -0.154  0.00  0.00    +0.000 NA
ATOM      2  C   UNL     1       1.700   0.580   0.135  0.00  0.00    +0.000 A 
ATOM      3  C   UNL     1       2.308  -0.653  -0.034  0.00  0.00    +0.000 A 
ATOM      4  C   UNL     1       3.606  -0.676  -0.533  0.00  0.00    +0.000 A 
ATOM      5  C   UNL     1       3.551   1.700  -0.637  0.00  0.00    +0.000 A 
ATOM      6  C   UNL     1       4.246   0.519  -0.843  0.00  0.00    +0.000 A 
ENDROOT
BRANCH   3   9
ATOM      7  O   UNL     1       1.718  -2.410   1.420  0.00  0.00    +0.000 OA
ATOM      8  N   UNL     1       0.908  -2.524  -0.723  0.00  0.00    +0.000 N 
ATOM      9  C   UNL     1       1.645  -1.910   0.285  0.00  0.00    +0.000 C 
ATOM     10  H   UNL     1       0.830  -2.126  -1.653  0.00  0.00    +0.000 HD
ATOM     11  H   UNL     1       0.419  -3.397  -0.553  0.00  0.00    +0.000 HD
ENDBRANCH   3   9
BRANCH   2  12
ATOM     12  N   UNL     1       0.406   0.611   0.630  0.00  0.00    +0.000 N 
ATOM     13  H   UNL     1       0.087  -0.213   1.128  0.00  0.00    +0.000 HD
BRANCH  12  14
ATOM     14  C   UNL     1      -0.338   1.829   0.852  0.00  0.00    +0.000 C 
BRANCH  14  15
ATOM     15  C   UNL     1      -1.697   1.535   1.475  0.00  0.00    +0.000 C 
BRANCH  15  18
ATOM     16  C   UNL     1      -2.857   1.245  -0.782  0.00  0.00    +0.000 C 
ATOM     17  C   UNL     1      -4.000   0.528  -1.506  0.00  0.00    +0.000 C 
ATOM     18  C   UNL     1      -2.575   0.695   0.594  0.00  0.00    +0.000 C 
ATOM     19  C   UNL     1      -3.902  -0.982  -1.332  0.00  0.00    +0.000 C 
ATOM     20  C   UNL     1      -3.930  -1.368   0.147  0.00  0.00    +0.000 C 
ATOM     21  C   UNL     1      -3.079  -0.481   1.007  0.00  0.00    +0.000 C 
ENDBRANCH  15  18
ENDBRANCH  14  15
ENDBRANCH  12  14
ENDBRANCH   2  12
TORSDOF 5
