REMARK  Name = 30756025
REMARK  3 active torsions:
REMARK  status: ('A' for Active; 'I' for Inactive)
REMARK    1  A    between atoms: N_2  and  C_5
REMARK    2  A    between atoms: N_2  and  C_12
REMARK    3  A    between atoms: C_13  and  C_15
REMARK                            x       y       z     vdW  Elec       q    Type
REMARK                         _______ _______ _______ _____ _____    ______ ____
ROOT
ATOM      1  N   UNL     1      -1.134   1.757  -0.363  0.00  0.00    +0.000 NA
ATOM      2  C   UNL     1      -1.137   0.413  -0.215  0.00  0.00    +0.000 A 
ATOM      3  C   UNL     1      -2.267  -0.332   0.082  0.00  0.00    +0.000 A 
ATOM      4  C   UNL     1      -3.471   0.345   0.237  0.00  0.00    +0.000 A 
ATOM      5  C   UNL     1      -2.323   2.381  -0.206  0.00  0.00    +0.000 A 
ATOM      6  C   UNL     1      -3.509   1.727   0.092  0.00  0.00    +0.000 A 
ENDROOT
BRANCH   3   9
ATOM      7  O   UNL     1      -2.407  -2.539  -0.729  0.00  0.00    +0.000 OA
ATOM      8  N   UNL     1      -1.994  -2.286   1.512  0.00  0.00    +0.000 N 
ATOM      9  C   UNL     1      -2.237  -1.780   0.240  0.00  0.00    +0.000 C 
ATOM     10  H   UNL     1      -1.844  -1.681   2.313  0.00  0.00    +0.000 HD
ATOM     11  H   UNL     1      -1.956  -3.287   1.677  0.00  0.00    +0.000 HD
ENDBRANCH   3   9
BRANCH   2  12
ATOM     12  N   UNL     1       0.063  -0.253  -0.368  0.00  0.00    +0.000 N 
ATOM     13  H   UNL     1       0.142  -1.169   0.062  0.00  0.00    +0.000 HD
BRANCH  12  14
ATOM     14  C   UNL     1       1.315   0.416  -0.679  0.00  0.00    +0.000 C 
ATOM     15  C   UNL     1       1.833   1.096   0.592  0.00  0.00    +0.000 C 
ATOM     16  C   UNL     1       2.258  -0.581  -1.360  0.00  0.00    +0.000 C 
ATOM     17  C   UNL     1       3.305   1.497   0.553  0.00  0.00    +0.000 C 
ATOM     18  C   UNL     1       3.084  -1.450  -0.413  0.00  0.00    +0.000 C 
ATOM     19  C   UNL     1       4.233   0.371   1.006  0.00  0.00    +0.000 C 
ATOM     20  C   UNL     1       4.388  -0.781   0.019  0.00  0.00    +0.000 C 
ENDBRANCH  12  14
ENDBRANCH   2  12
TORSDOF 3
