REMARK  Name = 31076517
REMARK  3 active torsions:
REMARK  status: ('A' for Active; 'I' for Inactive)
REMARK    1  A    between atoms: N_3  and  C_7
REMARK    2  A    between atoms: C_7  and  C_8
REMARK    3  A    between atoms: C_8  and  C_14
REMARK                            x       y       z     vdW  Elec       q    Type
REMARK                         _______ _______ _______ _____ _____    ______ ____
ROOT
ATOM      1  O   UNL     1      -0.211  -1.822  -0.601  0.00  0.00    +0.000 OA
ATOM      2  N   UNL     1      -0.538   0.483  -0.433  0.00  0.00    +0.000 N 
ATOM      3  N   UNL     1       1.287   1.931   0.047  0.00  0.00    +0.000 NA
ATOM      4  N   UNL     1       3.429   1.069   0.367  0.00  0.00    +0.000 NA
ATOM      5  C   UNL     1       0.221  -0.690  -0.407  0.00  0.00    +0.000 A 
ATOM      6  C   UNL     1       1.655  -0.484  -0.116  0.00  0.00    +0.000 A 
ATOM      7  C   UNL     1       0.037   1.721  -0.207  0.00  0.00    +0.000 A 
ATOM      8  C   UNL     1       2.129   0.807   0.097  0.00  0.00    +0.000 A 
ATOM      9  C   UNL     1       2.546  -1.553  -0.050  0.00  0.00    +0.000 A 
ATOM     10  C   UNL     1       3.884  -1.303   0.226  0.00  0.00    +0.000 A 
ATOM     11  C   UNL     1       4.271   0.012   0.424  0.00  0.00    +0.000 A 
ENDROOT
BRANCH   2  12
ATOM     12  C   UNL     1      -1.965   0.401  -0.704  0.00  0.00    +0.000 C 
BRANCH  12  13
ATOM     13  C   UNL     1      -2.757  -0.053   0.514  0.00  0.00    +0.000 C 
BRANCH  13  16
ATOM     14  O   UNL     1      -4.787   0.154  -0.803  0.00  0.00    +0.000 OA
ATOM     15  N   UNL     1      -4.948  -0.542   1.382  0.00  0.00    +0.000 N 
ATOM     16  C   UNL     1      -4.253  -0.130   0.265  0.00  0.00    +0.000 C 
ATOM     17  H   UNL     1      -4.485  -0.768   2.257  0.00  0.00    +0.000 HD
ATOM     18  H   UNL     1      -5.958  -0.636   1.363  0.00  0.00    +0.000 HD
ENDBRANCH  13  16
ENDBRANCH  12  13
ENDBRANCH   2  12
TORSDOF 3
