REMARK  Name = 3149352
REMARK  3 active torsions:
REMARK  status: ('A' for Active; 'I' for Inactive)
REMARK    1  A    between atoms: N_2  and  C_4
REMARK    2  A    between atoms: N_2  and  C_9
REMARK    3  A    between atoms: C_5  and  C_10
REMARK                            x       y       z     vdW  Elec       q    Type
REMARK                         _______ _______ _______ _____ _____    ______ ____
ROOT
ATOM      1  N   UNL     1      -0.771  -1.428  -0.001  0.00  0.00    +0.000 NA
ATOM      2  C   UNL     1       0.181  -0.468  -0.001  0.00  0.00    +0.000 A 
ATOM      3  C   UNL     1      -0.088   0.891  -0.000  0.00  0.00    +0.000 A 
ATOM      4  C   UNL     1      -1.420   1.291   0.001  0.00  0.00    +0.000 A 
ATOM      5  C   UNL     1      -2.427   0.332   0.001  0.00  0.00    +0.000 A 
ATOM      6  C   UNL     1      -2.054  -1.002  -0.000  0.00  0.00    +0.000 A 
ENDROOT
BRANCH   2   7
ATOM      7  N   UNL     1       1.536  -0.884  -0.000  0.00  0.00    +0.000 N 
ATOM      8  C   UNL     1       1.920  -2.258   0.001  0.00  0.00    +0.000 C 
ATOM      9  H   UNL     1       2.217  -0.224  -0.358  0.00  0.00    +0.000 HD
ENDBRANCH   2   7
BRANCH   3  11
ATOM     10  O   UNL     1       2.162   1.624  -0.000  0.00  0.00    +0.000 OA
ATOM     11  C   UNL     1       0.960   1.902   0.000  0.00  0.00    +0.000 C 
ENDBRANCH   3  11
TORSDOF 2
