REMARK  Name = 31535244
REMARK  3 active torsions:
REMARK  status: ('A' for Active; 'I' for Inactive)
REMARK    1  A    between atoms: N_2  and  C_11
REMARK    2  A    between atoms: C_5  and  C_10
REMARK    3  A    between atoms: C_12  and  C_14
REMARK                            x       y       z     vdW  Elec       q    Type
REMARK                         _______ _______ _______ _____ _____    ______ ____
ROOT
ATOM      1  N   UNL     1      -1.380  -1.838  -0.241  0.00  0.00    +0.000 NA
ATOM      2  C   UNL     1      -0.840  -0.615  -0.038  0.00  0.00    +0.000 A 
ATOM      3  C   UNL     1      -1.574   0.560   0.001  0.00  0.00    +0.000 A 
ATOM      4  C   UNL     1      -2.950   0.474  -0.181  0.00  0.00    +0.000 A 
ATOM      5  C   UNL     1      -2.720  -1.882  -0.413  0.00  0.00    +0.000 A 
ATOM      6  C   UNL     1      -3.542  -0.766  -0.392  0.00  0.00    +0.000 A 
ENDROOT
BRANCH   2   7
ATOM      7  N   UNL     1       0.546  -0.537   0.144  0.00  0.00    +0.000 N 
ATOM      8  C   UNL     1       2.755   0.277  -0.607  0.00  0.00    +0.000 C 
ATOM      9  C   UNL     1       3.406  -0.519   0.529  0.00  0.00    +0.000 C 
ATOM     10  C   UNL     1       1.418  -0.355  -1.024  0.00  0.00    +0.000 C 
ATOM     11  C   UNL     1       2.445  -0.642   1.706  0.00  0.00    +0.000 C 
ATOM     12  C   UNL     1       1.121  -1.270   1.280  0.00  0.00    +0.000 C 
ATOM     13  C   UNL     1       3.699   0.381  -1.803  0.00  0.00    +0.000 C 
ENDBRANCH   2   7
BRANCH   3  16
ATOM     14  O   UNL     1      -0.577   2.567  -0.723  0.00  0.00    +0.000 OA
ATOM     15  N   UNL     1      -0.845   2.303   1.539  0.00  0.00    +0.000 N 
ATOM     16  C   UNL     1      -0.964   1.863   0.225  0.00  0.00    +0.000 C 
ATOM     17  H   UNL     1      -1.160   1.744   2.325  0.00  0.00    +0.000 HD
ATOM     18  H   UNL     1      -0.433   3.205   1.752  0.00  0.00    +0.000 HD
ENDBRANCH   3  16
TORSDOF 2
