REMARK  Name = 31535175
REMARK  2 active torsions:
REMARK  status: ('A' for Active; 'I' for Inactive)
REMARK    1  A    between atoms: N_2  and  C_10
REMARK    2  A    between atoms: C_11  and  C_13
REMARK                            x       y       z     vdW  Elec       q    Type
REMARK                         _______ _______ _______ _____ _____    ______ ____
ROOT
ATOM      1  N   UNL     1      -1.115   1.861  -0.102  0.00  0.00    +0.000 NA
ATOM      2  C   UNL     1      -0.592   0.616  -0.032  0.00  0.00    +0.000 A 
ATOM      3  C   UNL     1      -1.350  -0.542   0.026  0.00  0.00    +0.000 A 
ATOM      4  C   UNL     1      -2.735  -0.414   0.012  0.00  0.00    +0.000 A 
ATOM      5  C   UNL     1      -2.464   1.945  -0.113  0.00  0.00    +0.000 A 
ATOM      6  C   UNL     1      -3.311   0.850  -0.059  0.00  0.00    +0.000 A 
ENDROOT
BRANCH   2   7
ATOM      7  N   UNL     1       0.803   0.496  -0.018  0.00  0.00    +0.000 N 
ATOM      8  C   UNL     1       3.685   0.358  -0.082  0.00  0.00    +0.000 C 
ATOM      9  C   UNL     1       2.923   0.440   1.234  0.00  0.00    +0.000 C 
ATOM     10  C   UNL     1       2.833  -0.332  -1.141  0.00  0.00    +0.000 C 
ATOM     11  C   UNL     1       1.571   1.129   1.061  0.00  0.00    +0.000 C 
ATOM     12  C   UNL     1       1.485   0.364  -1.313  0.00  0.00    +0.000 C 
ENDBRANCH   2   7
BRANCH   3  15
ATOM     13  O   UNL     1      -0.473  -2.507  -0.931  0.00  0.00    +0.000 OA
ATOM     14  N   UNL     1      -0.501  -2.396   1.359  0.00  0.00    +0.000 N 
ATOM     15  C   UNL     1      -0.757  -1.870   0.098  0.00  0.00    +0.000 C 
ATOM     16  H   UNL     1      -0.718  -1.885   2.210  0.00  0.00    +0.000 HD
ATOM     17  H   UNL     1      -0.083  -3.313   1.468  0.00  0.00    +0.000 HD
ENDBRANCH   3  15
TORSDOF 2
