REMARK  Name = 31535273
REMARK  7 active torsions:
REMARK  status: ('A' for Active; 'I' for Inactive)
REMARK    1  A    between atoms: N_2  and  C_5
REMARK    2  A    between atoms: N_2  and  C_8
REMARK    3  A    between atoms: N_2  and  C_9
REMARK    4  A    between atoms: C_5  and  C_6
REMARK    5  A    between atoms: C_6  and  C_7
REMARK    6  A    between atoms: C_7  and  C_10
REMARK    7  A    between atoms: C_11  and  C_13
REMARK                            x       y       z     vdW  Elec       q    Type
REMARK                         _______ _______ _______ _____ _____    ______ ____
ROOT
ATOM      1  N   UNL     1       1.194   1.858  -0.425  0.00  0.00    +0.000 NA
ATOM      2  C   UNL     1       0.757   0.579  -0.446  0.00  0.00    +0.000 A 
ATOM      3  C   UNL     1       1.345  -0.454   0.268  0.00  0.00    +0.000 A 
ATOM      4  C   UNL     1       2.452  -0.154   1.053  0.00  0.00    +0.000 A 
ATOM      5  C   UNL     1       2.932   1.151   1.100  0.00  0.00    +0.000 A 
ATOM      6  C   UNL     1       2.273   2.111   0.349  0.00  0.00    +0.000 A 
ENDROOT
BRANCH   3   9
ATOM      7  O   UNL     1       1.279  -2.642  -0.602  0.00  0.00    +0.000 OA
ATOM      8  N   UNL     1      -0.113  -2.189   1.163  0.00  0.00    +0.000 N 
ATOM      9  C   UNL     1       0.849  -1.823   0.227  0.00  0.00    +0.000 C 
ATOM     10  H   UNL     1      -0.464  -1.539   1.859  0.00  0.00    +0.000 HD
ATOM     11  H   UNL     1      -0.490  -3.130   1.182  0.00  0.00    +0.000 HD
ENDBRANCH   3   9
BRANCH   2  12
ATOM     12  N   UNL     1      -0.360   0.284  -1.240  0.00  0.00    +0.000 N 
ATOM     13  C   UNL     1      -0.247  -0.689  -2.328  0.00  0.00    +0.000 C 
BRANCH  12  14
ATOM     14  C   UNL     1      -1.637   0.915  -1.008  0.00  0.00    +0.000 C 
BRANCH  14  15
ATOM     15  C   UNL     1      -2.399   0.203   0.106  0.00  0.00    +0.000 C 
BRANCH  15  16
ATOM     16  C   UNL     1      -3.782   0.810   0.357  0.00  0.00    +0.000 C 
ATOM     17  C   UNL     1      -4.541   0.039   1.426  0.00  0.00    +0.000 C 
ENDBRANCH  15  16
ENDBRANCH  14  15
ENDBRANCH  12  14
ENDBRANCH   2  12
TORSDOF 5
