REMARK  Name = 325987
REMARK  2 active torsions:
REMARK  status: ('A' for Active; 'I' for Inactive)
REMARK    1  A    between atoms: N_3  and  C_11
REMARK    2  A    between atoms: C_5  and  C_8
REMARK                            x       y       z     vdW  Elec       q    Type
REMARK                         _______ _______ _______ _____ _____    ______ ____
ROOT
ATOM      1  N   UNL     1      -2.293   1.460   0.191  0.00  0.00    +0.000 NA
ATOM      2  C   UNL     1      -0.543  -0.204   0.057  0.00  0.00    +0.000 A 
ATOM      3  C   UNL     1      -1.487  -1.183  -0.231  0.00  0.00    +0.000 A 
ATOM      4  C   UNL     1      -0.994   1.091   0.257  0.00  0.00    +0.000 A 
ATOM      5  C   UNL     1      -2.833  -0.843  -0.307  0.00  0.00    +0.000 A 
ATOM      6  C   UNL     1      -3.181   0.481  -0.090  0.00  0.00    +0.000 A 
ENDROOT
BRANCH   2   9
ATOM      7  O   UNL     1       1.242  -1.677   0.444  0.00  0.00    +0.000 OA
ATOM      8  N   UNL     1       1.785   0.496  -0.143  0.00  0.00    +0.000 N 
ATOM      9  C   UNL     1       0.870  -0.528   0.144  0.00  0.00    +0.000 C 
ATOM     10  H   UNL     1       1.420   1.397  -0.439  0.00  0.00    +0.000 HD
BRANCH   8  12
ATOM     11  N   UNL     1       4.298   0.441  -0.166  0.00  0.00    +0.000 NA
ATOM     12  C   UNL     1       3.138   0.466  -0.155  0.00  0.00    +0.000 C 
ENDBRANCH   8  12
ENDBRANCH   2   9
TORSDOF 2
