REMARK  Name = 32639818
REMARK  3 active torsions:
REMARK  status: ('A' for Active; 'I' for Inactive)
REMARK    1  A    between atoms: N_3  and  C_7
REMARK    2  A    between atoms: C_4  and  C_9
REMARK    3  A    between atoms: C_5  and  C_10
REMARK                            x       y       z     vdW  Elec       q    Type
REMARK                         _______ _______ _______ _____ _____    ______ ____
ROOT
ATOM      1  N   UNL     1      -0.463   1.675  -0.000  0.00  0.00    +0.000 NA
ATOM      2  C   UNL     1      -1.821  -0.326  -0.000  0.00  0.00    +0.000 A 
ATOM      3  C   UNL     1       0.578  -0.507   0.000  0.00  0.00    +0.000 A 
ATOM      4  C   UNL     1      -0.674  -1.113   0.000  0.00  0.00    +0.000 A 
ATOM      5  C   UNL     1       0.628   0.877   0.000  0.00  0.00    +0.000 A 
ATOM      6  C   UNL     1      -1.663   1.050  -0.000  0.00  0.00    +0.000 A 
ATOM      7  C   UNL     1      -3.174  -0.943   0.000  0.00  0.00    +0.000 C 
ENDROOT
BRANCH   5   8
ATOM      8  N   UNL     1       1.901   1.502   0.000  0.00  0.00    +0.000 N 
ATOM      9  H   UNL     1       2.664   1.045   0.484  0.00  0.00    +0.000 HD
ATOM     10  H   UNL     1       1.902   2.515  -0.012  0.00  0.00    +0.000 HD
ENDBRANCH   5   8
BRANCH   3  12
ATOM     11  O   UNL     1       2.915  -0.875  -0.000  0.00  0.00    +0.000 OA
ATOM     12  C   UNL     1       1.773  -1.340   0.000  0.00  0.00    +0.000 C 
ENDBRANCH   3  12
TORSDOF 2
