REMARK  Name = 33734963
REMARK  5 active torsions:
REMARK  status: ('A' for Active; 'I' for Inactive)
REMARK    1  A    between atoms: O_1  and  C_9
REMARK    2  A    between atoms: N_3  and  C_6
REMARK    3  A    between atoms: N_5  and  C_10
REMARK    4  A    between atoms: C_6  and  C_9
REMARK    5  A    between atoms: C_7  and  C_8
REMARK                            x       y       z     vdW  Elec       q    Type
REMARK                         _______ _______ _______ _____ _____    ______ ____
ROOT
ATOM      1  N   UNL     1      -2.437   1.417   0.055  0.00  0.00    +0.000 NA
ATOM      2  C   UNL     1      -0.840  -0.397   0.064  0.00  0.00    +0.000 A 
ATOM      3  C   UNL     1      -1.179   0.940   0.188  0.00  0.00    +0.000 A 
ATOM      4  C   UNL     1      -1.857  -1.304  -0.213  0.00  0.00    +0.000 A 
ATOM      5  C   UNL     1      -3.164  -0.852  -0.356  0.00  0.00    +0.000 A 
ATOM      6  C   UNL     1      -3.399   0.506  -0.214  0.00  0.00    +0.000 A 
ENDROOT
BRANCH   2   9
ATOM      7  O   UNL     1       0.801  -1.724   1.086  0.00  0.00    +0.000 OA
ATOM      8  N   UNL     1       1.480  -0.372  -0.671  0.00  0.00    +0.000 N 
ATOM      9  C   UNL     1       0.526  -0.881   0.215  0.00  0.00    +0.000 C 
ATOM     10  H   UNL     1       1.191   0.314  -1.363  0.00  0.00    +0.000 HD
BRANCH   8  11
ATOM     11  C   UNL     1       2.869  -0.771  -0.663  0.00  0.00    +0.000 C 
BRANCH  11  12
ATOM     12  C   UNL     1       3.698   0.112   0.251  0.00  0.00    +0.000 C 
BRANCH  12  13
ATOM     13  O   UNL     1       3.648   1.454  -0.215  0.00  0.00    +0.000 OA
ATOM     14  H   UNL     1       4.190   1.987   0.391  0.00  0.00    +0.000 HD
ENDBRANCH  12  13
ENDBRANCH  11  12
ENDBRANCH   8  11
ENDBRANCH   2   9
BRANCH   3  15
ATOM     15  N   UNL     1      -0.148   1.871   0.473  0.00  0.00    +0.000 N 
ATOM     16  H   UNL     1       0.649   1.561   1.015  0.00  0.00    +0.000 HD
ATOM     17  H   UNL     1      -0.424   2.841   0.555  0.00  0.00    +0.000 HD
ENDBRANCH   3  15
TORSDOF 5
