REMARK  Name = 34003152
REMARK  8 active torsions:
REMARK  status: ('A' for Active; 'I' for Inactive)
REMARK    1  A    between atoms: N_2  and  C_8
REMARK    2  A    between atoms: N_2  and  C_11
REMARK    3  A    between atoms: C_5  and  C_6
REMARK    4  A    between atoms: C_5  and  C_9
REMARK    5  A    between atoms: C_5  and  C_10
REMARK    6  A    between atoms: C_6  and  C_7
REMARK    7  A    between atoms: C_7  and  C_8
REMARK    8  A    between atoms: C_12  and  C_14
REMARK                            x       y       z     vdW  Elec       q    Type
REMARK                         _______ _______ _______ _____ _____    ______ ____
ROOT
ATOM      1  N   UNL     1       1.984  -1.792  -0.072  0.00  0.00    +0.000 NA
ATOM      2  C   UNL     1       1.386  -0.587   0.063  0.00  0.00    +0.000 A 
ATOM      3  C   UNL     1       2.058   0.623   0.009  0.00  0.00    +0.000 A 
ATOM      4  C   UNL     1       3.433   0.596  -0.198  0.00  0.00    +0.000 A 
ATOM      5  C   UNL     1       4.084  -0.624  -0.343  0.00  0.00    +0.000 A 
ATOM      6  C   UNL     1       3.321  -1.779  -0.272  0.00  0.00    +0.000 A 
ENDROOT
BRANCH   3   9
ATOM      7  O   UNL     1       1.258   2.440   1.277  0.00  0.00    +0.000 OA
ATOM      8  N   UNL     1       0.905   2.524  -0.988  0.00  0.00    +0.000 N 
ATOM      9  C   UNL     1       1.385   1.906   0.162  0.00  0.00    +0.000 C 
ATOM     10  H   UNL     1       1.005   2.106  -1.907  0.00  0.00    +0.000 HD
ATOM     11  H   UNL     1       0.434   3.421  -0.939  0.00  0.00    +0.000 HD
ENDBRANCH   3   9
BRANCH   2  12
ATOM     12  N   UNL     1       0.016  -0.568   0.272  0.00  0.00    +0.000 N 
ATOM     13  H   UNL     1      -0.364   0.269   0.703  0.00  0.00    +0.000 HD
BRANCH  12  14
ATOM     14  C   UNL     1      -0.800  -1.756   0.349  0.00  0.00    +0.000 C 
BRANCH  14  15
ATOM     15  C   UNL     1      -2.254  -1.395   0.649  0.00  0.00    +0.000 C 
BRANCH  15  16
ATOM     16  C   UNL     1      -2.884  -0.529  -0.449  0.00  0.00    +0.000 C 
BRANCH  16  17
ATOM     17  C   UNL     1      -4.370  -0.211  -0.199  0.00  0.00    +0.000 C 
ATOM     18  C   UNL     1      -4.593   0.549   1.109  0.00  0.00    +0.000 C 
ATOM     19  C   UNL     1      -4.930   0.601  -1.370  0.00  0.00    +0.000 C 
ENDBRANCH  16  17
ENDBRANCH  15  16
ENDBRANCH  14  15
ENDBRANCH  12  14
ENDBRANCH   2  12
TORSDOF 6
