REMARK  Name = 351653
REMARK  1 active torsions:
REMARK  status: ('A' for Active; 'I' for Inactive)
REMARK    1  A    between atoms: C_5  and  C_10
REMARK                            x       y       z     vdW  Elec       q    Type
REMARK                         _______ _______ _______ _____ _____    ______ ____
ROOT
ATOM      1  N   UNL     1       2.112   0.800   0.002  0.00  0.00    +0.000 NA
ATOM      2  N   UNL     1       2.720  -1.503  -0.001  0.00  0.00    +0.000 N 
ATOM      3  C   UNL     1      -0.587   0.070  -0.002  0.00  0.00    +0.000 A 
ATOM      4  C   UNL     1       0.401  -0.908  -0.003  0.00  0.00    +0.000 A 
ATOM      5  C   UNL     1      -0.227   1.413   0.001  0.00  0.00    +0.000 A 
ATOM      6  C   UNL     1       1.724  -0.495  -0.001  0.00  0.00    +0.000 A 
ATOM      7  C   UNL     1       1.124   1.723   0.003  0.00  0.00    +0.000 A 
ATOM      8  H   UNL     1       2.499  -2.399   0.416  0.00  0.00    +0.000 HD
ATOM      9  H   UNL     1       3.684  -1.195   0.007  0.00  0.00    +0.000 HD
ENDROOT
BRANCH   3  12
ATOM     10  O   UNL     1      -2.340  -1.502   0.009  0.00  0.00    +0.000 OA
ATOM     11  N   UNL     1      -2.937   0.712  -0.003  0.00  0.00    +0.000 N 
ATOM     12  C   UNL     1      -1.990  -0.309  -0.004  0.00  0.00    +0.000 C 
ATOM     13  H   UNL     1      -2.739   1.704  -0.009  0.00  0.00    +0.000 HD
ATOM     14  H   UNL     1      -3.924   0.474   0.002  0.00  0.00    +0.000 HD
ENDBRANCH   3  12
TORSDOF 1
