REMARK  Name = 353133
REMARK  2 active torsions:
REMARK  status: ('A' for Active; 'I' for Inactive)
REMARK    1  A    between atoms: N_4  and  N_6
REMARK    2  A    between atoms: C_7  and  C_12
REMARK                            x       y       z     vdW  Elec       q    Type
REMARK                         _______ _______ _______ _____ _____    ______ ____
ROOT
ATOM      1  N   UNL     1      -0.450   1.399  -0.003  0.00  0.00    +0.000 NA
ATOM      2  N   UNL     1      -2.626   0.428  -0.002  0.00  0.00    +0.000 N 
ATOM      3  C   UNL     1       1.494  -0.039   0.003  0.00  0.00    +0.000 A 
ATOM      4  C   UNL     1       0.672  -1.161   0.005  0.00  0.00    +0.000 A 
ATOM      5  C   UNL     1      -1.216   0.285  -0.001  0.00  0.00    +0.000 A 
ATOM      6  C   UNL     1      -0.709  -1.004   0.003  0.00  0.00    +0.000 A 
ATOM      7  C   UNL     1       0.888   1.207  -0.001  0.00  0.00    +0.000 A 
ATOM      8  H   UNL     1      -2.968   1.382  -0.005  0.00  0.00    +0.000 HD
ENDROOT
BRANCH   3  11
ATOM      9  O   UNL     1       3.493  -1.285  -0.011  0.00  0.00    +0.000 OA
ATOM     10  N   UNL     1       3.698   0.999   0.002  0.00  0.00    +0.000 N 
ATOM     11  C   UNL     1       2.940  -0.170   0.004  0.00  0.00    +0.000 C 
ATOM     12  H   UNL     1       3.327   1.941   0.009  0.00  0.00    +0.000 HD
ATOM     13  H   UNL     1       4.711   0.937  -0.004  0.00  0.00    +0.000 HD
ENDBRANCH   3  11
BRANCH   2  15
ATOM     14  O   UNL     1      -4.668  -0.108  -0.001  0.00  0.00    +0.000 OA
ATOM     15  N   UNL     1      -3.516  -0.552   0.001  0.00  0.00    +0.000 NA
ENDBRANCH   2  15
TORSDOF 2
