REMARK  Name = 354904
REMARK  1 active torsions:
REMARK  status: ('A' for Active; 'I' for Inactive)
REMARK    1  A    between atoms: C_9  and  C_14
REMARK                            x       y       z     vdW  Elec       q    Type
REMARK                         _______ _______ _______ _____ _____    ______ ____
ROOT
ATOM      1  O   UNL     1       2.242  -2.597  -0.002  0.00  0.00    +0.000 OA
ATOM      2  N   UNL     1      -0.634   0.230   0.002  0.00  0.00    +0.000 N 
ATOM      3  N   UNL     1       0.014  -2.092   0.001  0.00  0.00    +0.000 NA
ATOM      4  N   UNL     1       1.054   1.982   0.002  0.00  0.00    +0.000 NA
ATOM      5  C   UNL     1       0.727   0.662   0.002  0.00  0.00    +0.000 A 
ATOM      6  C   UNL     1      -0.888  -1.148   0.002  0.00  0.00    +0.000 A 
ATOM      7  C   UNL     1       1.723  -0.320   0.000  0.00  0.00    +0.000 A 
ATOM      8  C   UNL     1      -1.696   1.126   0.001  0.00  0.00    +0.000 A 
ATOM      9  C   UNL     1      -2.985   0.739  -0.001  0.00  0.00    +0.000 A 
ATOM     10  C   UNL     1      -2.318  -1.619   0.001  0.00  0.00    +0.000 A 
ATOM     11  C   UNL     1      -3.282  -0.685  -0.000  0.00  0.00    +0.000 A 
ATOM     12  C   UNL     1       1.349  -1.755  -0.000  0.00  0.00    +0.000 A 
ATOM     13  C   UNL     1       3.068   0.059  -0.002  0.00  0.00    +0.000 A 
ATOM     14  C   UNL     1      -4.136   1.692  -0.003  0.00  0.00    +0.000 C 
ATOM     15  C   UNL     1       3.398   1.406  -0.002  0.00  0.00    +0.000 A 
ATOM     16  C   UNL     1       2.363   2.320   0.000  0.00  0.00    +0.000 A 
ENDROOT
TORSDOF 0
