REMARK  Name = 36005523
REMARK  7 active torsions:
REMARK  status: ('A' for Active; 'I' for Inactive)
REMARK    1  A    between atoms: N_2  and  C_6
REMARK    2  A    between atoms: N_3  and  C_15
REMARK    3  A    between atoms: N_3  and  C_16
REMARK    4  A    between atoms: C_5  and  C_6
REMARK    5  A    between atoms: C_5  and  C_7
REMARK    6  A    between atoms: C_5  and  C_8
REMARK    7  A    between atoms: C_9  and  C_10
REMARK                            x       y       z     vdW  Elec       q    Type
REMARK                         _______ _______ _______ _____ _____    ______ ____
ROOT
ATOM      1  N   UNL     1      -4.175  -0.439  -0.056  0.00  0.00    +0.000 N 
ATOM      2  N   UNL     1      -2.451   1.206  -0.073  0.00  0.00    +0.000 NA
ATOM      3  C   UNL     1      -0.140   0.508   0.047  0.00  0.00    +0.000 A 
ATOM      4  C   UNL     1      -2.800  -0.099  -0.021  0.00  0.00    +0.000 A 
ATOM      5  C   UNL     1      -0.537  -0.824   0.098  0.00  0.00    +0.000 A 
ATOM      6  C   UNL     1      -1.891  -1.141   0.064  0.00  0.00    +0.000 A 
ATOM      7  C   UNL     1      -1.127   1.476  -0.037  0.00  0.00    +0.000 A 
ATOM      8  C   UNL     1      -4.583  -1.825  -0.002  0.00  0.00    +0.000 C 
ATOM      9  C   UNL     1      -5.178   0.599  -0.136  0.00  0.00    +0.000 C 
ENDROOT
BRANCH   3  12
ATOM     10  O   UNL     1       1.664   1.920  -0.458  0.00  0.00    +0.000 OA
ATOM     11  N   UNL     1       2.139  -0.015   0.725  0.00  0.00    +0.000 N 
ATOM     12  C   UNL     1       1.298   0.879   0.082  0.00  0.00    +0.000 C 
ATOM     13  H   UNL     1       1.766  -0.835   1.190  0.00  0.00    +0.000 HD
BRANCH  11  14
ATOM     14  C   UNL     1       3.557   0.202   0.819  0.00  0.00    +0.000 C 
BRANCH  14  15
ATOM     15  C   UNL     1       4.320  -0.409  -0.362  0.00  0.00    +0.000 C 
ATOM     16  C   UNL     1       4.083  -1.919  -0.414  0.00  0.00    +0.000 C 
ATOM     17  C   UNL     1       5.820  -0.119  -0.275  0.00  0.00    +0.000 C 
ENDBRANCH  14  15
ENDBRANCH  11  14
ENDBRANCH   3  12
TORSDOF 3
