REMARK  Name = 36005343
REMARK  5 active torsions:
REMARK  status: ('A' for Active; 'I' for Inactive)
REMARK    1  A    between atoms: N_2  and  C_11
REMARK    2  A    between atoms: N_2  and  C_12
REMARK    3  A    between atoms: N_4  and  C_13
REMARK    4  A    between atoms: C_6  and  C_10
REMARK    5  A    between atoms: C_13  and  C_14
REMARK                            x       y       z     vdW  Elec       q    Type
REMARK                         _______ _______ _______ _____ _____    ______ ____
ROOT
ATOM      1  N   UNL     1       3.866  -0.122  -0.269  0.00  0.00    +0.000 N 
ATOM      2  N   UNL     1       1.770  -1.162   0.183  0.00  0.00    +0.000 NA
ATOM      3  C   UNL     1       2.467  -0.029  -0.060  0.00  0.00    +0.000 A 
ATOM      4  C   UNL     1      -0.223   0.197   0.335  0.00  0.00    +0.000 A 
ATOM      5  C   UNL     1       1.899   1.233  -0.120  0.00  0.00    +0.000 A 
ATOM      6  C   UNL     1       0.528   1.340   0.082  0.00  0.00    +0.000 A 
ATOM      7  C   UNL     1       0.440  -1.019   0.375  0.00  0.00    +0.000 A 
ATOM      8  C   UNL     1       4.642   1.069  -0.532  0.00  0.00    +0.000 C 
ATOM      9  C   UNL     1       4.526  -1.407  -0.213  0.00  0.00    +0.000 C 
ENDROOT
BRANCH   4  12
ATOM     10  O   UNL     1      -2.175   1.322   0.986  0.00  0.00    +0.000 OA
ATOM     11  N   UNL     1      -2.414  -0.857   0.227  0.00  0.00    +0.000 N 
ATOM     12  C   UNL     1      -1.657   0.277   0.551  0.00  0.00    +0.000 C 
ATOM     13  H   UNL     1      -1.962  -1.665  -0.189  0.00  0.00    +0.000 HD
BRANCH  11  14
ATOM     14  C   UNL     1      -3.851  -0.925   0.363  0.00  0.00    +0.000 C 
BRANCH  14  15
ATOM     15  C   UNL     1      -4.484  -0.472  -0.911  0.00  0.00    +0.000 C 
ATOM     16  C   UNL     1      -5.336   0.555  -0.996  0.00  0.00    +0.000 C 
ENDBRANCH  14  15
ENDBRANCH  11  14
ENDBRANCH   4  12
TORSDOF 3
