REMARK  Name = 36005251
REMARK  8 active torsions:
REMARK  status: ('A' for Active; 'I' for Inactive)
REMARK    1  A    between atoms: N_2  and  C_7
REMARK    2  A    between atoms: N_3  and  C_16
REMARK    3  A    between atoms: N_3  and  C_17
REMARK    4  A    between atoms: C_5  and  C_6
REMARK    5  A    between atoms: C_5  and  C_8
REMARK    6  A    between atoms: C_5  and  C_9
REMARK    7  A    between atoms: C_6  and  C_7
REMARK    8  A    between atoms: C_10  and  C_11
REMARK                            x       y       z     vdW  Elec       q    Type
REMARK                         _______ _______ _______ _____ _____    ______ ____
ROOT
ATOM      1  O   UNL     1       1.118  -2.352   0.553  0.00  0.00    +0.000 OA
ATOM      2  N   UNL     1       1.843  -0.583  -0.761  0.00  0.00    +0.000 N 
ATOM      3  C   UNL     1       0.895  -1.298  -0.038  0.00  0.00    +0.000 C 
ATOM      4  H   UNL     1       1.579   0.255  -1.268  0.00  0.00    +0.000 HD
ENDROOT
BRANCH   3   7
ATOM      5  N   UNL     1      -4.346   0.758   0.042  0.00  0.00    +0.000 N 
ATOM      6  N   UNL     1      -2.860  -1.099   0.179  0.00  0.00    +0.000 NA
ATOM      7  C   UNL     1      -0.478  -0.733  -0.020  0.00  0.00    +0.000 A 
ATOM      8  C   UNL     1      -3.030   0.233   0.023  0.00  0.00    +0.000 A 
ATOM      9  C   UNL     1      -0.694   0.632  -0.178  0.00  0.00    +0.000 A 
ATOM     10  C   UNL     1      -1.585  -1.548   0.154  0.00  0.00    +0.000 A 
ATOM     11  C   UNL     1      -1.992   1.132  -0.157  0.00  0.00    +0.000 A 
ATOM     12  C   UNL     1      -4.566   2.178  -0.122  0.00  0.00    +0.000 C 
ATOM     13  C   UNL     1      -5.479  -0.124   0.218  0.00  0.00    +0.000 C 
ENDBRANCH   3   7
BRANCH   2  14
ATOM     14  C   UNL     1       3.207  -1.014  -0.892  0.00  0.00    +0.000 C 
BRANCH  14  15
ATOM     15  C   UNL     1       4.102  -0.465   0.217  0.00  0.00    +0.000 C 
BRANCH  15  16
ATOM     16  C   UNL     1       4.156   1.073   0.310  0.00  0.00    +0.000 C 
ATOM     17  C   UNL     1       4.687   1.652  -1.004  0.00  0.00    +0.000 C 
ATOM     18  C   UNL     1       5.021   1.558   1.474  0.00  0.00    +0.000 C 
ENDBRANCH  15  16
ENDBRANCH  14  15
ENDBRANCH   2  14
TORSDOF 4
