REMARK  Name = 36545212
REMARK  8 active torsions:
REMARK  status: ('A' for Active; 'I' for Inactive)
REMARK    1  A    between atoms: N_2  and  C_8
REMARK    2  A    between atoms: N_2  and  C_11
REMARK    3  A    between atoms: C_5  and  C_6
REMARK    4  A    between atoms: C_5  and  C_7
REMARK    5  A    between atoms: C_6  and  C_8
REMARK    6  A    between atoms: C_7  and  C_9
REMARK    7  A    between atoms: C_9  and  C_10
REMARK    8  A    between atoms: C_12  and  C_14
REMARK                            x       y       z     vdW  Elec       q    Type
REMARK                         _______ _______ _______ _____ _____    ______ ____
ROOT
ATOM      1  N   UNL     1       2.149   1.753   0.177  0.00  0.00    +0.000 NA
ATOM      2  C   UNL     1       1.536   0.570  -0.051  0.00  0.00    +0.000 A 
ATOM      3  C   UNL     1       2.176  -0.658  -0.003  0.00  0.00    +0.000 A 
ATOM      4  C   UNL     1       3.533  -0.672   0.298  0.00  0.00    +0.000 A 
ATOM      5  C   UNL     1       4.199   0.524   0.539  0.00  0.00    +0.000 A 
ATOM      6  C   UNL     1       3.469   1.699   0.466  0.00  0.00    +0.000 A 
ENDROOT
BRANCH   3   9
ATOM      7  O   UNL     1       1.426  -2.400  -1.399  0.00  0.00    +0.000 OA
ATOM      8  N   UNL     1       0.916  -2.569   0.830  0.00  0.00    +0.000 N 
ATOM      9  C   UNL     1       1.488  -1.916  -0.256  0.00  0.00    +0.000 C 
ATOM     10  H   UNL     1       0.962  -2.192   1.772  0.00  0.00    +0.000 HD
ATOM     11  H   UNL     1       0.429  -3.452   0.712  0.00  0.00    +0.000 HD
ENDBRANCH   3   9
BRANCH   2  12
ATOM     12  N   UNL     1       0.183   0.593  -0.353  0.00  0.00    +0.000 N 
ATOM     13  H   UNL     1      -0.185  -0.216  -0.843  0.00  0.00    +0.000 HD
BRANCH  12  14
ATOM     14  C   UNL     1      -0.600   1.803  -0.434  0.00  0.00    +0.000 C 
BRANCH  14  15
ATOM     15  C   UNL     1      -2.036   1.492  -0.847  0.00  0.00    +0.000 C 
BRANCH  15  16
ATOM     16  C   UNL     1      -2.761   0.598   0.165  0.00  0.00    +0.000 C 
BRANCH  16  17
ATOM     17  C   UNL     1      -4.216   0.363  -0.249  0.00  0.00    +0.000 C 
BRANCH  17  18
ATOM     18  C   UNL     1      -4.998  -0.500   0.744  0.00  0.00    +0.000 C 
ATOM     19  C   UNL     1      -6.462  -0.679   0.373  0.00  0.00    +0.000 C 
ENDBRANCH  17  18
ENDBRANCH  16  17
ENDBRANCH  15  16
ENDBRANCH  14  15
ENDBRANCH  12  14
ENDBRANCH   2  12
TORSDOF 7
