REMARK  Name = 36545136
REMARK  4 active torsions:
REMARK  status: ('A' for Active; 'I' for Inactive)
REMARK    1  A    between atoms: N_2  and  C_11
REMARK    2  A    between atoms: N_2  and  C_12
REMARK    3  A    between atoms: C_5  and  C_11
REMARK    4  A    between atoms: C_13  and  C_15
REMARK                            x       y       z     vdW  Elec       q    Type
REMARK                         _______ _______ _______ _____ _____    ______ ____
ROOT
ATOM      1  N   UNL     1       1.738   1.858  -0.192  0.00  0.00    +0.000 NA
ATOM      2  C   UNL     1       1.487   0.545   0.008  0.00  0.00    +0.000 A 
ATOM      3  C   UNL     1       2.469  -0.431   0.072  0.00  0.00    +0.000 A 
ATOM      4  C   UNL     1       3.793  -0.034  -0.078  0.00  0.00    +0.000 A 
ATOM      5  C   UNL     1       3.037   2.207  -0.333  0.00  0.00    +0.000 A 
ATOM      6  C   UNL     1       4.090   1.308  -0.284  0.00  0.00    +0.000 A 
ENDROOT
BRANCH   3   9
ATOM      7  O   UNL     1       2.093  -2.320   1.429  0.00  0.00    +0.000 OA
ATOM      8  N   UNL     1       1.945  -2.630  -0.838  0.00  0.00    +0.000 N 
ATOM      9  C   UNL     1       2.167  -1.840   0.285  0.00  0.00    +0.000 C 
ATOM     10  H   UNL     1       1.993  -2.254  -1.780  0.00  0.00    +0.000 HD
ATOM     11  H   UNL     1       1.725  -3.616  -0.748  0.00  0.00    +0.000 HD
ENDBRANCH   3   9
BRANCH   2  12
ATOM     12  N   UNL     1       0.163   0.155   0.153  0.00  0.00    +0.000 N 
ATOM     13  H   UNL     1      -0.002  -0.753   0.576  0.00  0.00    +0.000 HD
BRANCH  12  14
ATOM     14  C   UNL     1      -0.951   1.064   0.107  0.00  0.00    +0.000 C 
BRANCH  14  15
ATOM     15  C   UNL     1      -2.256   0.293   0.297  0.00  0.00    +0.000 C 
ATOM     16  C   UNL     1      -3.386   1.237   0.729  0.00  0.00    +0.000 C 
ATOM     17  C   UNL     1      -2.632  -0.458  -0.987  0.00  0.00    +0.000 C 
ATOM     18  C   UNL     1      -4.714   0.497   0.874  0.00  0.00    +0.000 C 
ATOM     19  C   UNL     1      -3.962  -1.195  -0.840  0.00  0.00    +0.000 C 
ATOM     20  C   UNL     1      -5.081  -0.255  -0.402  0.00  0.00    +0.000 C 
ENDBRANCH  14  15
ENDBRANCH  12  14
ENDBRANCH   2  12
TORSDOF 4
