REMARK  Name = 36832583
REMARK  8 active torsions:
REMARK  status: ('A' for Active; 'I' for Inactive)
REMARK    1  A    between atoms: N_2  and  C_7
REMARK    2  A    between atoms: N_2  and  C_11
REMARK    3  A    between atoms: C_5  and  C_6
REMARK    4  A    between atoms: C_5  and  C_8
REMARK    5  A    between atoms: C_5  and  C_9
REMARK    6  A    between atoms: C_5  and  C_10
REMARK    7  A    between atoms: C_6  and  C_7
REMARK    8  A    between atoms: C_12  and  C_14
REMARK                            x       y       z     vdW  Elec       q    Type
REMARK                         _______ _______ _______ _____ _____    ______ ____
ROOT
ATOM      1  N   UNL     1       1.125   1.800  -0.020  0.00  0.00    +0.000 NA
ATOM      2  C   UNL     1       1.155   0.449   0.005  0.00  0.00    +0.000 A 
ATOM      3  C   UNL     1       2.320  -0.301   0.027  0.00  0.00    +0.000 A 
ATOM      4  C   UNL     1       3.532   0.380   0.022  0.00  0.00    +0.000 A 
ATOM      5  C   UNL     1       2.323   2.427  -0.024  0.00  0.00    +0.000 A 
ATOM      6  C   UNL     1       3.542   1.770  -0.004  0.00  0.00    +0.000 A 
ENDROOT
BRANCH   3   9
ATOM      7  O   UNL     1       2.297  -2.386   1.122  0.00  0.00    +0.000 OA
ATOM      8  N   UNL     1       2.326  -2.423  -1.171  0.00  0.00    +0.000 N 
ATOM      9  C   UNL     1       2.320  -1.757   0.051  0.00  0.00    +0.000 C 
ATOM     10  H   UNL     1       2.336  -1.926  -2.056  0.00  0.00    +0.000 HD
ATOM     11  H   UNL     1       2.320  -3.437  -1.213  0.00  0.00    +0.000 HD
ENDBRANCH   3   9
BRANCH   2  12
ATOM     12  N   UNL     1      -0.057  -0.222   0.007  0.00  0.00    +0.000 N 
ATOM     13  H   UNL     1      -0.044  -1.198  -0.273  0.00  0.00    +0.000 HD
BRANCH  12  14
ATOM     14  C   UNL     1      -1.340   0.441  -0.014  0.00  0.00    +0.000 C 
BRANCH  14  15
ATOM     15  C   UNL     1      -2.456  -0.605   0.030  0.00  0.00    +0.000 C 
BRANCH  15  16
ATOM     16  C   UNL     1      -3.904  -0.045   0.012  0.00  0.00    +0.000 C 
ATOM     17  C   UNL     1      -4.181   0.819   1.253  0.00  0.00    +0.000 C 
ATOM     18  C   UNL     1      -4.064   0.835  -1.242  0.00  0.00    +0.000 C 
ATOM     19  C   UNL     1      -4.938  -1.182  -0.054  0.00  0.00    +0.000 C 
ENDBRANCH  15  16
ENDBRANCH  14  15
ENDBRANCH  12  14
ENDBRANCH   2  12
TORSDOF 5
