REMARK  Name = 36834371
REMARK  5 active torsions:
REMARK  status: ('A' for Active; 'I' for Inactive)
REMARK    1  A    between atoms: N_2  and  C_11
REMARK    2  A    between atoms: N_2  and  C_12
REMARK    3  A    between atoms: C_5  and  C_10
REMARK    4  A    between atoms: C_10  and  C_11
REMARK    5  A    between atoms: C_13  and  C_15
REMARK                            x       y       z     vdW  Elec       q    Type
REMARK                         _______ _______ _______ _____ _____    ______ ____
ROOT
ATOM      1  N   UNL     1      -1.724  -1.838   0.178  0.00  0.00    +0.000 NA
ATOM      2  C   UNL     1      -1.433  -0.524   0.311  0.00  0.00    +0.000 A 
ATOM      3  C   UNL     1      -2.257   0.501  -0.125  0.00  0.00    +0.000 A 
ATOM      4  C   UNL     1      -3.458   0.156  -0.735  0.00  0.00    +0.000 A 
ATOM      5  C   UNL     1      -2.900  -2.135  -0.420  0.00  0.00    +0.000 A 
ATOM      6  C   UNL     1      -3.792  -1.185  -0.889  0.00  0.00    +0.000 A 
ENDROOT
BRANCH   3   9
ATOM      7  O   UNL     1      -2.232   2.543   1.049  0.00  0.00    +0.000 OA
ATOM      8  N   UNL     1      -1.199   2.514  -0.999  0.00  0.00    +0.000 N 
ATOM      9  C   UNL     1      -1.914   1.908   0.029  0.00  0.00    +0.000 C 
ATOM     10  H   UNL     1      -0.924   2.009  -1.835  0.00  0.00    +0.000 HD
ATOM     11  H   UNL     1      -0.928   3.490  -0.941  0.00  0.00    +0.000 HD
ENDBRANCH   3   9
BRANCH   2  12
ATOM     12  N   UNL     1      -0.233  -0.188   0.918  0.00  0.00    +0.000 N 
ATOM     13  H   UNL     1      -0.158   0.748   1.303  0.00  0.00    +0.000 HD
BRANCH  12  14
ATOM     14  C   UNL     1       0.713  -1.158   1.415  0.00  0.00    +0.000 C 
BRANCH  14  15
ATOM     15  C   UNL     1       2.084  -0.518   1.619  0.00  0.00    +0.000 C 
BRANCH  15  16
ATOM     16  C   UNL     1       2.685   0.019   0.332  0.00  0.00    +0.000 C 
ATOM     17  C   UNL     1       4.049   0.673   0.532  0.00  0.00    +0.000 C 
ATOM     18  C   UNL     1       2.995  -1.073  -0.688  0.00  0.00    +0.000 C 
ATOM     19  C   UNL     1       4.651   0.711  -0.870  0.00  0.00    +0.000 C 
ATOM     20  C   UNL     1       3.964  -0.405  -1.658  0.00  0.00    +0.000 C 
ENDBRANCH  15  16
ENDBRANCH  14  15
ENDBRANCH  12  14
ENDBRANCH   2  12
TORSDOF 5
