REMARK  Name = 379035
REMARK  0 active torsions:
REMARK  status: ('A' for Active; 'I' for Inactive)
REMARK                            x       y       z     vdW  Elec       q    Type
REMARK                         _______ _______ _______ _____ _____    ______ ____
ROOT
ATOM      1  O   UNL     1      -0.057   2.737  -0.601  0.00  0.00    +0.000 OA
ATOM      2  N   UNL     1       1.614   1.448   0.260  0.00  0.00    +0.000 N 
ATOM      3  N   UNL     1       2.041   0.281   0.841  0.00  0.00    +0.000 N 
ATOM      4  N   UNL     1       0.893  -1.331  -0.517  0.00  0.00    +0.000 NA
ATOM      5  N   UNL     1      -1.333  -1.754  -0.149  0.00  0.00    +0.000 NA
ATOM      6  N   UNL     1       3.186  -1.446  -0.123  0.00  0.00    +0.000 N 
ATOM      7  C   UNL     1      -0.669   0.557  -0.034  0.00  0.00    +0.000 A 
ATOM      8  C   UNL     1      -0.372  -0.795  -0.216  0.00  0.00    +0.000 A 
ATOM      9  C   UNL     1       0.317   1.655  -0.147  0.00  0.00    +0.000 C 
ATOM     10  C   UNL     1      -1.998   0.916   0.225  0.00  0.00    +0.000 A 
ATOM     11  C   UNL     1       1.963  -0.841   0.044  0.00  0.00    +0.000 C 
ATOM     12  C   UNL     1      -2.983  -0.059   0.306  0.00  0.00    +0.000 A 
ATOM     13  C   UNL     1      -2.602  -1.369   0.112  0.00  0.00    +0.000 A 
ATOM     14  H   UNL     1       2.320   2.174   0.196  0.00  0.00    +0.000 HD
ATOM     15  H   UNL     1       2.847   0.404   1.446  0.00  0.00    +0.000 HD
ATOM     16  H   UNL     1       3.284  -2.285  -0.685  0.00  0.00    +0.000 HD
ATOM     17  H   UNL     1       4.026  -1.071   0.304  0.00  0.00    +0.000 HD
ENDROOT
TORSDOF 0
