REMARK  Name = 39543584
REMARK  8 active torsions:
REMARK  status: ('A' for Active; 'I' for Inactive)
REMARK    1  A    between atoms: N_2  and  C_5
REMARK    2  A    between atoms: N_3  and  C_16
REMARK    3  A    between atoms: N_3  and  C_17
REMARK    4  A    between atoms: C_5  and  C_6
REMARK    5  A    between atoms: C_5  and  C_7
REMARK    6  A    between atoms: C_5  and  C_8
REMARK    7  A    between atoms: C_6  and  C_9
REMARK    8  A    between atoms: C_10  and  C_11
REMARK                            x       y       z     vdW  Elec       q    Type
REMARK                         _______ _______ _______ _____ _____    ______ ____
ROOT
ATOM      1  O   UNL     1      -1.645  -1.561  -0.981  0.00  0.00    +0.000 OA
ATOM      2  N   UNL     1      -2.018   0.532  -0.057  0.00  0.00    +0.000 N 
ATOM      3  C   UNL     1      -1.228  -0.516  -0.489  0.00  0.00    +0.000 C 
ATOM      4  H   UNL     1      -1.599   1.330   0.409  0.00  0.00    +0.000 HD
ENDROOT
BRANCH   3   7
ATOM      5  N   UNL     1       4.305   0.268   0.208  0.00  0.00    +0.000 N 
ATOM      6  N   UNL     1       2.121   1.166  -0.108  0.00  0.00    +0.000 NA
ATOM      7  C   UNL     1       0.235  -0.334  -0.304  0.00  0.00    +0.000 A 
ATOM      8  C   UNL     1       1.081  -1.428  -0.156  0.00  0.00    +0.000 A 
ATOM      9  C   UNL     1       0.800   0.931  -0.273  0.00  0.00    +0.000 A 
ATOM     10  C   UNL     1       2.911   0.079   0.032  0.00  0.00    +0.000 A 
ATOM     11  C   UNL     1       2.446  -1.226   0.015  0.00  0.00    +0.000 A 
ATOM     12  C   UNL     1       5.180  -0.873   0.361  0.00  0.00    +0.000 C 
ATOM     13  C   UNL     1       4.861   1.603   0.227  0.00  0.00    +0.000 C 
ENDBRANCH   3   7
BRANCH   2  14
ATOM     14  C   UNL     1      -3.468   0.494  -0.146  0.00  0.00    +0.000 C 
ATOM     15  C   UNL     1      -4.020   1.812   0.419  0.00  0.00    +0.000 C 
ATOM     16  C   UNL     1      -3.881   0.374  -1.620  0.00  0.00    +0.000 C 
BRANCH  14  17
ATOM     17  C   UNL     1      -4.022  -0.680   0.695  0.00  0.00    +0.000 C 
ATOM     18  C   UNL     1      -3.657  -0.641   2.175  0.00  0.00    +0.000 C 
ENDBRANCH  14  17
ENDBRANCH   2  14
TORSDOF 3
