REMARK  Name = 39543574
REMARK  7 active torsions:
REMARK  status: ('A' for Active; 'I' for Inactive)
REMARK    1  A    between atoms: N_2  and  C_5
REMARK    2  A    between atoms: N_3  and  C_15
REMARK    3  A    between atoms: N_3  and  C_16
REMARK    4  A    between atoms: C_5  and  C_6
REMARK    5  A    between atoms: C_5  and  C_7
REMARK    6  A    between atoms: C_5  and  C_8
REMARK    7  A    between atoms: C_9  and  C_10
REMARK                            x       y       z     vdW  Elec       q    Type
REMARK                         _______ _______ _______ _____ _____    ______ ____
ROOT
ATOM      1  N   UNL     1       4.097  -0.276  -0.081  0.00  0.00    +0.000 N 
ATOM      2  N   UNL     1       2.234   1.206  -0.184  0.00  0.00    +0.000 NA
ATOM      3  C   UNL     1       0.002   0.331   0.127  0.00  0.00    +0.000 A 
ATOM      4  C   UNL     1       0.519  -0.948   0.298  0.00  0.00    +0.000 A 
ATOM      5  C   UNL     1       2.700  -0.052  -0.013  0.00  0.00    +0.000 A 
ATOM      6  C   UNL     1       0.893   1.365  -0.110  0.00  0.00    +0.000 A 
ATOM      7  C   UNL     1       1.893  -1.152   0.229  0.00  0.00    +0.000 A 
ATOM      8  C   UNL     1       4.630  -1.608   0.098  0.00  0.00    +0.000 C 
ATOM      9  C   UNL     1       4.999   0.826  -0.337  0.00  0.00    +0.000 C 
ENDROOT
BRANCH   3  12
ATOM     10  O   UNL     1      -1.864   1.696   0.520  0.00  0.00    +0.000 OA
ATOM     11  N   UNL     1      -2.267  -0.489  -0.143  0.00  0.00    +0.000 N 
ATOM     12  C   UNL     1      -1.461   0.582   0.196  0.00  0.00    +0.000 C 
ATOM     13  H   UNL     1      -1.856  -1.361  -0.460  0.00  0.00    +0.000 HD
BRANCH  11  14
ATOM     14  C   UNL     1      -3.716  -0.395  -0.148  0.00  0.00    +0.000 C 
ATOM     15  C   UNL     1      -4.307  -1.712  -0.662  0.00  0.00    +0.000 C 
ATOM     16  C   UNL     1      -4.206  -0.128   1.279  0.00  0.00    +0.000 C 
ATOM     17  C   UNL     1      -4.145   0.754  -1.068  0.00  0.00    +0.000 C 
ENDBRANCH  11  14
ENDBRANCH   3  12
TORSDOF 2
