REMARK  Name = 42943676
REMARK  3 active torsions:
REMARK  status: ('A' for Active; 'I' for Inactive)
REMARK    1  A    between atoms: N_2  and  C_11
REMARK    2  A    between atoms: C_5  and  C_10
REMARK    3  A    between atoms: C_12  and  C_14
REMARK                            x       y       z     vdW  Elec       q    Type
REMARK                         _______ _______ _______ _____ _____    ______ ____
ROOT
ATOM      1  N   UNL     1       1.393   1.836   0.226  0.00  0.00    +0.000 NA
ATOM      2  C   UNL     1       0.844   0.618   0.022  0.00  0.00    +0.000 A 
ATOM      3  C   UNL     1       1.567  -0.564  -0.003  0.00  0.00    +0.000 A 
ATOM      4  C   UNL     1       2.941  -0.492   0.195  0.00  0.00    +0.000 A 
ATOM      5  C   UNL     1       2.732   1.868   0.414  0.00  0.00    +0.000 A 
ATOM      6  C   UNL     1       3.543   0.744   0.408  0.00  0.00    +0.000 A 
ENDROOT
BRANCH   2   7
ATOM      7  N   UNL     1      -0.540   0.553  -0.179  0.00  0.00    +0.000 N 
ATOM      8  C   UNL     1      -2.726  -0.271   0.627  0.00  0.00    +0.000 C 
ATOM      9  C   UNL     1      -3.407   0.512  -0.500  0.00  0.00    +0.000 C 
ATOM     10  C   UNL     1      -1.389   0.381   1.010  0.00  0.00    +0.000 C 
ATOM     11  C   UNL     1      -2.472   0.635  -1.698  0.00  0.00    +0.000 C 
ATOM     12  C   UNL     1      -1.139   1.269  -1.310  0.00  0.00    +0.000 C 
ATOM     13  C   UNL     1      -3.645  -0.374   1.843  0.00  0.00    +0.000 C 
ENDBRANCH   2   7
BRANCH   3  16
ATOM     14  O   UNL     1       0.512  -2.544   0.716  0.00  0.00    +0.000 OA
ATOM     15  N   UNL     1       0.839  -2.308  -1.542  0.00  0.00    +0.000 N 
ATOM     16  C   UNL     1       0.946  -1.863  -0.228  0.00  0.00    +0.000 C 
ATOM     17  H   UNL     1       1.180  -1.760  -2.325  0.00  0.00    +0.000 HD
ATOM     18  H   UNL     1       0.409  -3.201  -1.756  0.00  0.00    +0.000 HD
ENDBRANCH   3  16
TORSDOF 2
