REMARK  Name = 42943682
REMARK  4 active torsions:
REMARK  status: ('A' for Active; 'I' for Inactive)
REMARK    1  A    between atoms: N_2  and  C_12
REMARK    2  A    between atoms: C_5  and  C_10
REMARK    3  A    between atoms: C_6  and  C_11
REMARK    4  A    between atoms: C_13  and  C_15
REMARK                            x       y       z     vdW  Elec       q    Type
REMARK                         _______ _______ _______ _____ _____    ______ ____
ROOT
ATOM      1  N   UNL     1       1.606   1.845   0.104  0.00  0.00    +0.000 NA
ATOM      2  C   UNL     1       1.003   0.637   0.040  0.00  0.00    +0.000 A 
ATOM      3  C   UNL     1       1.684  -0.570   0.026  0.00  0.00    +0.000 A 
ATOM      4  C   UNL     1       3.073  -0.534   0.083  0.00  0.00    +0.000 A 
ATOM      5  C   UNL     1       2.957   1.840   0.157  0.00  0.00    +0.000 A 
ATOM      6  C   UNL     1       3.729   0.690   0.150  0.00  0.00    +0.000 A 
ENDROOT
BRANCH   2   7
ATOM      7  N   UNL     1      -0.394   0.610  -0.019  0.00  0.00    +0.000 N 
ATOM      8  C   UNL     1      -2.546  -0.089   0.969  0.00  0.00    +0.000 C 
ATOM      9  C   UNL     1      -2.404   0.648  -1.464  0.00  0.00    +0.000 C 
ATOM     10  C   UNL     1      -3.268   0.597  -0.197  0.00  0.00    +0.000 C 
ATOM     11  C   UNL     1      -1.173   0.551   1.223  0.00  0.00    +0.000 C 
ATOM     12  C   UNL     1      -1.037   1.275  -1.161  0.00  0.00    +0.000 C 
ATOM     13  C   UNL     1      -3.402  -0.042   2.234  0.00  0.00    +0.000 C 
ATOM     14  C   UNL     1      -2.251  -0.732  -2.113  0.00  0.00    +0.000 C 
ENDBRANCH   2   7
BRANCH   3  17
ATOM     15  O   UNL     1       0.761  -2.397  -1.138  0.00  0.00    +0.000 OA
ATOM     16  N   UNL     1       0.656  -2.471   1.151  0.00  0.00    +0.000 N 
ATOM     17  C   UNL     1       1.006  -1.857  -0.046  0.00  0.00    +0.000 C 
ATOM     18  H   UNL     1       0.857  -2.049   2.053  0.00  0.00    +0.000 HD
ATOM     19  H   UNL     1       0.186  -3.370   1.159  0.00  0.00    +0.000 HD
ENDBRANCH   3  17
TORSDOF 2
