REMARK  Name = 43093725
REMARK  12 active torsions:
REMARK  status: ('A' for Active; 'I' for Inactive)
REMARK    1  A    between atoms: N_2  and  C_9
REMARK    2  A    between atoms: N_2  and  C_10
REMARK    3  A    between atoms: N_2  and  C_11
REMARK    4  A    between atoms: N_3  and  C_8
REMARK    5  A    between atoms: N_3  and  C_13
REMARK    6  A    between atoms: C_6  and  C_7
REMARK    7  A    between atoms: C_6  and  C_8
REMARK    8  A    between atoms: C_7  and  C_9
REMARK    9  A    between atoms: C_8  and  C_12
REMARK   10  A    between atoms: C_10  and  C_14
REMARK   11  A    between atoms: C_11  and  C_15
REMARK   12  A    between atoms: C_16  and  C_18
REMARK                            x       y       z     vdW  Elec       q    Type
REMARK                         _______ _______ _______ _____ _____    ______ ____
ROOT
ATOM      1  N   UNL     1      -1.168   0.654  -0.557  0.00  0.00    +0.000 N 
ATOM      2  H   UNL     1      -0.977   0.094  -1.382  0.00  0.00    +0.000 HD
ENDROOT
BRANCH   1   4
ATOM      3  N   UNL     1      -2.848   1.360   0.912  0.00  0.00    +0.000 NA
ATOM      4  C   UNL     1      -2.341   0.386   0.124  0.00  0.00    +0.000 A 
ATOM      5  C   UNL     1      -2.923  -0.861  -0.039  0.00  0.00    +0.000 A 
ATOM      6  C   UNL     1      -4.101  -1.125   0.651  0.00  0.00    +0.000 A 
ATOM      7  C   UNL     1      -3.994   1.068   1.567  0.00  0.00    +0.000 A 
ATOM      8  C   UNL     1      -4.654  -0.147   1.472  0.00  0.00    +0.000 A 
BRANCH   5  11
ATOM      9  O   UNL     1      -2.648  -1.973  -2.097  0.00  0.00    +0.000 OA
ATOM     10  N   UNL     1      -1.443  -2.777  -0.318  0.00  0.00    +0.000 N 
ATOM     11  C   UNL     1      -2.351  -1.893  -0.893  0.00  0.00    +0.000 C 
ATOM     12  H   UNL     1      -1.182  -2.720   0.661  0.00  0.00    +0.000 HD
ATOM     13  H   UNL     1      -1.009  -3.510  -0.869  0.00  0.00    +0.000 HD
ENDBRANCH   5  11
ENDBRANCH   1   4
BRANCH   1  14
ATOM     14  C   UNL     1      -0.463   1.917  -0.471  0.00  0.00    +0.000 C 
ATOM     15  C   UNL     1      -1.181   2.936  -1.350  0.00  0.00    +0.000 C 
BRANCH  14  16
ATOM     16  C   UNL     1       0.996   1.742  -0.914  0.00  0.00    +0.000 C 
BRANCH  16  17
ATOM     17  C   UNL     1       1.738   0.685  -0.088  0.00  0.00    +0.000 C 
BRANCH  17  18
ATOM     18  C   UNL     1       3.166   0.492  -0.597  0.00  0.00    +0.000 C 
BRANCH  18  19
ATOM     19  N   UNL     1       3.863  -0.502   0.211  0.00  0.00    +0.000 NA
BRANCH  19  20
ATOM     20  C   UNL     1       4.342   0.095   1.460  0.00  0.00    +0.000 C 
ATOM     21  C   UNL     1       5.013  -0.945   2.342  0.00  0.00    +0.000 C 
ENDBRANCH  19  20
BRANCH  19  22
ATOM     22  C   UNL     1       4.980  -1.083  -0.535  0.00  0.00    +0.000 C 
ATOM     23  C   UNL     1       6.017  -0.028  -0.881  0.00  0.00    +0.000 C 
ENDBRANCH  19  22
ENDBRANCH  18  19
ENDBRANCH  17  18
ENDBRANCH  16  17
ENDBRANCH  14  16
ENDBRANCH   1  14
TORSDOF 9
