REMARK  Name = 43093671
REMARK  6 active torsions:
REMARK  status: ('A' for Active; 'I' for Inactive)
REMARK    1  A    between atoms: N_2  and  C_5
REMARK    2  A    between atoms: N_2  and  C_8
REMARK    3  A    between atoms: C_5  and  C_6
REMARK    4  A    between atoms: C_5  and  C_7
REMARK    5  A    between atoms: C_6  and  C_9
REMARK    6  A    between atoms: C_10  and  C_12
REMARK                            x       y       z     vdW  Elec       q    Type
REMARK                         _______ _______ _______ _____ _____    ______ ____
ROOT
ATOM      1  N   UNL     1       0.310  -1.798   0.236  0.00  0.00    +0.000 NA
ATOM      2  C   UNL     1       0.244  -0.467   0.011  0.00  0.00    +0.000 A 
ATOM      3  C   UNL     1       1.350   0.367  -0.035  0.00  0.00    +0.000 A 
ATOM      4  C   UNL     1       2.603  -0.202   0.163  0.00  0.00    +0.000 A 
ATOM      5  C   UNL     1       2.711  -1.568   0.397  0.00  0.00    +0.000 A 
ATOM      6  C   UNL     1       1.545  -2.316   0.423  0.00  0.00    +0.000 A 
ENDROOT
BRANCH   3   9
ATOM      7  O   UNL     1       1.273   2.265  -1.428  0.00  0.00    +0.000 OA
ATOM      8  N   UNL     1       1.100   2.632   0.829  0.00  0.00    +0.000 N 
ATOM      9  C   UNL     1       1.247   1.800  -0.276  0.00  0.00    +0.000 C 
ATOM     10  H   UNL     1       1.068   2.269   1.777  0.00  0.00    +0.000 HD
ATOM     11  H   UNL     1       1.017   3.637   0.719  0.00  0.00    +0.000 HD
ENDBRANCH   3   9
BRANCH   2  12
ATOM     12  N   UNL     1      -1.006   0.092  -0.182  0.00  0.00    +0.000 N 
ATOM     13  H   UNL     1      -1.042   0.979  -0.674  0.00  0.00    +0.000 HD
BRANCH  12  14
ATOM     14  C   UNL     1      -2.237  -0.670  -0.158  0.00  0.00    +0.000 C 
ATOM     15  C   UNL     1      -2.383  -1.401  -1.488  0.00  0.00    +0.000 C 
BRANCH  14  16
ATOM     16  C   UNL     1      -3.432   0.258   0.092  0.00  0.00    +0.000 C 
ATOM     17  C   UNL     1      -3.325   1.009   1.413  0.00  0.00    +0.000 C 
ENDBRANCH  14  16
ENDBRANCH  12  14
ENDBRANCH   2  12
TORSDOF 4
