REMARK  Name = 43107908
REMARK  7 active torsions:
REMARK  status: ('A' for Active; 'I' for Inactive)
REMARK    1  A    between atoms: N_2  and  C_5
REMARK    2  A    between atoms: N_2  and  C_9
REMARK    3  A    between atoms: C_5  and  C_6
REMARK    4  A    between atoms: C_5  and  C_8
REMARK    5  A    between atoms: C_6  and  C_7
REMARK    6  A    between atoms: C_7  and  C_10
REMARK    7  A    between atoms: C_11  and  C_13
REMARK                            x       y       z     vdW  Elec       q    Type
REMARK                         _______ _______ _______ _____ _____    ______ ____
ROOT
ATOM      1  N   UNL     1       0.943  -1.760   0.354  0.00  0.00    +0.000 NA
ATOM      2  C   UNL     1       0.653  -0.486   0.006  0.00  0.00    +0.000 A 
ATOM      3  C   UNL     1       1.581   0.543  -0.015  0.00  0.00    +0.000 A 
ATOM      4  C   UNL     1       2.891   0.245   0.344  0.00  0.00    +0.000 A 
ATOM      5  C   UNL     1       2.227  -2.011   0.697  0.00  0.00    +0.000 A 
ATOM      6  C   UNL     1       3.228  -1.054   0.708  0.00  0.00    +0.000 A 
ENDROOT
BRANCH   3   9
ATOM      7  O   UNL     1       1.296   2.285  -1.574  0.00  0.00    +0.000 OA
ATOM      8  N   UNL     1       0.822   2.770   0.616  0.00  0.00    +0.000 N 
ATOM      9  C   UNL     1       1.238   1.907  -0.392  0.00  0.00    +0.000 C 
ATOM     10  H   UNL     1       0.760   2.476   1.586  0.00  0.00    +0.000 HD
ATOM     11  H   UNL     1       0.564   3.729   0.409  0.00  0.00    +0.000 HD
ENDBRANCH   3   9
BRANCH   2  12
ATOM     12  N   UNL     1      -0.653  -0.197  -0.347  0.00  0.00    +0.000 N 
ATOM     13  H   UNL     1      -0.802   0.628  -0.919  0.00  0.00    +0.000 HD
BRANCH  12  14
ATOM     14  C   UNL     1      -1.714  -1.182  -0.365  0.00  0.00    +0.000 C 
ATOM     15  C   UNL     1      -1.580  -2.020  -1.632  0.00  0.00    +0.000 C 
BRANCH  14  16
ATOM     16  C   UNL     1      -3.083  -0.489  -0.307  0.00  0.00    +0.000 C 
BRANCH  16  17
ATOM     17  C   UNL     1      -3.249   0.378   0.944  0.00  0.00    +0.000 C 
ATOM     18  C   UNL     1      -4.603   1.071   0.963  0.00  0.00    +0.000 C 
ENDBRANCH  16  17
ENDBRANCH  14  16
ENDBRANCH  12  14
ENDBRANCH   2  12
TORSDOF 5
