REMARK  Name = 43137144
REMARK  9 active torsions:
REMARK  status: ('A' for Active; 'I' for Inactive)
REMARK    1  A    between atoms: N_2  and  C_6
REMARK    2  A    between atoms: N_2  and  C_7
REMARK    3  A    between atoms: N_2  and  C_9
REMARK    4  A    between atoms: N_4  and  C_12
REMARK    5  A    between atoms: C_6  and  C_10
REMARK    6  A    between atoms: C_6  and  C_11
REMARK    7  A    between atoms: C_7  and  C_8
REMARK    8  A    between atoms: C_8  and  C_12
REMARK    9  A    between atoms: C_13  and  C_15
REMARK                            x       y       z     vdW  Elec       q    Type
REMARK                         _______ _______ _______ _____ _____    ______ ____
ROOT
ATOM      1  N   UNL     1      -1.039   0.257   1.866  0.00  0.00    +0.000 NA
ATOM      2  C   UNL     1      -0.728   0.200   0.551  0.00  0.00    +0.000 A 
ATOM      3  C   UNL     1      -1.452  -0.519  -0.387  0.00  0.00    +0.000 A 
ATOM      4  C   UNL     1      -2.567  -1.224   0.053  0.00  0.00    +0.000 A 
ATOM      5  C   UNL     1      -2.129  -0.441   2.256  0.00  0.00    +0.000 A 
ATOM      6  C   UNL     1      -2.918  -1.190   1.398  0.00  0.00    +0.000 A 
ENDROOT
BRANCH   3   9
ATOM      7  O   UNL     1      -0.336  -1.439  -2.246  0.00  0.00    +0.000 OA
ATOM      8  N   UNL     1      -1.640   0.408  -2.632  0.00  0.00    +0.000 N 
ATOM      9  C   UNL     1      -1.092  -0.561  -1.797  0.00  0.00    +0.000 C 
ATOM     10  H   UNL     1      -2.264   1.128  -2.284  0.00  0.00    +0.000 HD
ATOM     11  H   UNL     1      -1.426   0.423  -3.624  0.00  0.00    +0.000 HD
ENDBRANCH   3   9
BRANCH   2  12
ATOM     12  N   UNL     1       0.397   0.913   0.116  0.00  0.00    +0.000 N 
BRANCH  12  13
ATOM     13  C   UNL     1       0.453   2.366   0.287  0.00  0.00    +0.000 C 
ATOM     14  C   UNL     1       0.567   3.029  -1.080  0.00  0.00    +0.000 C 
ATOM     15  C   UNL     1       1.634   2.728   1.178  0.00  0.00    +0.000 C 
ENDBRANCH  12  13
BRANCH  12  16
ATOM     16  C   UNL     1       1.514   0.248  -0.512  0.00  0.00    +0.000 C 
BRANCH  16  17
ATOM     17  C   UNL     1       2.138  -0.780   0.428  0.00  0.00    +0.000 C 
BRANCH  17  18
ATOM     18  C   UNL     1       3.325  -1.507  -0.205  0.00  0.00    +0.000 C 
BRANCH  18  19
ATOM     19  N   UNL     1       3.872  -2.488   0.727  0.00  0.00    +0.000 NA
ATOM     20  H   UNL     1       4.196  -2.016   1.570  0.00  0.00    +0.000 HD
ATOM     21  H   UNL     1       4.692  -2.927   0.312  0.00  0.00    +0.000 HD
ENDBRANCH  18  19
ENDBRANCH  17  18
ENDBRANCH  16  17
ENDBRANCH  12  16
ENDBRANCH   2  12
TORSDOF 7
