REMARK  Name = 43137124
REMARK  8 active torsions:
REMARK  status: ('A' for Active; 'I' for Inactive)
REMARK    1  A    between atoms: N_2  and  C_6
REMARK    2  A    between atoms: N_2  and  C_8
REMARK    3  A    between atoms: N_2  and  C_9
REMARK    4  A    between atoms: N_4  and  C_10
REMARK    5  A    between atoms: C_6  and  C_7
REMARK    6  A    between atoms: C_7  and  C_10
REMARK    7  A    between atoms: C_8  and  C_12
REMARK    8  A    between atoms: C_11  and  C_14
REMARK                            x       y       z     vdW  Elec       q    Type
REMARK                         _______ _______ _______ _____ _____    ______ ____
ROOT
ATOM      1  N   UNL     1       0.243   1.677   0.641  0.00  0.00    +0.000 NA
ATOM      2  C   UNL     1       0.516   0.403   0.282  0.00  0.00    +0.000 A 
ATOM      3  C   UNL     1       1.672   0.012  -0.374  0.00  0.00    +0.000 A 
ATOM      4  C   UNL     1       2.610   0.992  -0.680  0.00  0.00    +0.000 A 
ATOM      5  C   UNL     1       1.178   2.602   0.327  0.00  0.00    +0.000 A 
ATOM      6  C   UNL     1       2.365   2.314  -0.327  0.00  0.00    +0.000 A 
ENDROOT
BRANCH   3   9
ATOM      7  O   UNL     1       1.591  -1.815  -1.859  0.00  0.00    +0.000 OA
ATOM      8  N   UNL     1       2.606  -2.173   0.166  0.00  0.00    +0.000 N 
ATOM      9  C   UNL     1       1.936  -1.370  -0.751  0.00  0.00    +0.000 C 
ATOM     10  H   UNL     1       2.905  -1.824   1.071  0.00  0.00    +0.000 HD
ATOM     11  H   UNL     1       2.820  -3.141  -0.047  0.00  0.00    +0.000 HD
ENDBRANCH   3   9
BRANCH   2  12
ATOM     12  N   UNL     1      -0.435  -0.580   0.591  0.00  0.00    +0.000 N 
BRANCH  12  13
ATOM     13  C   UNL     1      -0.365  -1.289   1.870  0.00  0.00    +0.000 C 
ATOM     14  C   UNL     1      -1.152  -0.538   2.927  0.00  0.00    +0.000 C 
ENDBRANCH  12  13
BRANCH  12  15
ATOM     15  C   UNL     1      -1.501  -0.911  -0.325  0.00  0.00    +0.000 C 
BRANCH  15  16
ATOM     16  C   UNL     1      -2.639   0.102  -0.230  0.00  0.00    +0.000 C 
BRANCH  16  17
ATOM     17  C   UNL     1      -3.788  -0.216  -1.189  0.00  0.00    +0.000 C 
BRANCH  17  18
ATOM     18  N   UNL     1      -4.837   0.790  -1.071  0.00  0.00    +0.000 NA
ATOM     19  H   UNL     1      -5.205   0.792  -0.120  0.00  0.00    +0.000 HD
ATOM     20  H   UNL     1      -5.617   0.537  -1.678  0.00  0.00    +0.000 HD
ENDBRANCH  17  18
ENDBRANCH  16  17
ENDBRANCH  15  16
ENDBRANCH  12  15
ENDBRANCH   2  12
TORSDOF 7
