REMARK  Name = 43137154
REMARK  7 active torsions:
REMARK  status: ('A' for Active; 'I' for Inactive)
REMARK    1  A    between atoms: N_2  and  C_6
REMARK    2  A    between atoms: N_2  and  C_9
REMARK    3  A    between atoms: N_2  and  C_10
REMARK    4  A    between atoms: N_4  and  C_13
REMARK    5  A    between atoms: C_9  and  C_11
REMARK    6  A    between atoms: C_11  and  C_13
REMARK    7  A    between atoms: C_12  and  C_15
REMARK                            x       y       z     vdW  Elec       q    Type
REMARK                         _______ _______ _______ _____ _____    ______ ____
ROOT
ATOM      1  N   UNL     1       1.112  -0.553   1.854  0.00  0.00    +0.000 NA
ATOM      2  C   UNL     1       0.723  -0.160   0.621  0.00  0.00    +0.000 A 
ATOM      3  C   UNL     1       1.331  -0.573  -0.554  0.00  0.00    +0.000 A 
ATOM      4  C   UNL     1       2.408  -1.447  -0.456  0.00  0.00    +0.000 A 
ATOM      5  C   UNL     1       2.162  -1.403   1.910  0.00  0.00    +0.000 A 
ATOM      6  C   UNL     1       2.838  -1.875   0.796  0.00  0.00    +0.000 A 
ENDROOT
BRANCH   3   9
ATOM      7  O   UNL     1       1.368   0.880  -2.407  0.00  0.00    +0.000 OA
ATOM      8  N   UNL     1      -0.080  -0.895  -2.514  0.00  0.00    +0.000 N 
ATOM      9  C   UNL     1       0.888  -0.132  -1.869  0.00  0.00    +0.000 C 
ATOM     10  H   UNL     1      -0.471  -1.734  -2.098  0.00  0.00    +0.000 HD
ATOM     11  H   UNL     1      -0.422  -0.635  -3.433  0.00  0.00    +0.000 HD
ENDBRANCH   3   9
BRANCH   2  12
ATOM     12  N   UNL     1      -0.378   0.731   0.529  0.00  0.00    +0.000 N 
BRANCH  12  13
ATOM     13  C   UNL     1      -0.235   2.069  -0.100  0.00  0.00    +0.000 C 
ATOM     14  C   UNL     1      -0.631   3.320   0.628  0.00  0.00    +0.000 C 
ATOM     15  C   UNL     1       0.817   3.036   0.357  0.00  0.00    +0.000 C 
ENDBRANCH  12  13
BRANCH  12  16
ATOM     16  C   UNL     1      -1.675   0.351   1.037  0.00  0.00    +0.000 C 
BRANCH  16  17
ATOM     17  C   UNL     1      -2.412  -0.544   0.043  0.00  0.00    +0.000 C 
BRANCH  17  18
ATOM     18  C   UNL     1      -3.791  -0.969   0.550  0.00  0.00    +0.000 C 
BRANCH  18  19
ATOM     19  N   UNL     1      -4.443  -1.835  -0.426  0.00  0.00    +0.000 NA
ATOM     20  H   UNL     1      -4.563  -1.331  -1.305  0.00  0.00    +0.000 HD
ATOM     21  H   UNL     1      -5.380  -2.067  -0.100  0.00  0.00    +0.000 HD
ENDBRANCH  18  19
ENDBRANCH  17  18
ENDBRANCH  16  17
ENDBRANCH  12  16
ENDBRANCH   2  12
TORSDOF 7
