REMARK  Name = 43137133
REMARK  9 active torsions:
REMARK  status: ('A' for Active; 'I' for Inactive)
REMARK    1  A    between atoms: N_2  and  C_6
REMARK    2  A    between atoms: N_2  and  C_7
REMARK    3  A    between atoms: N_2  and  C_10
REMARK    4  A    between atoms: N_4  and  C_11
REMARK    5  A    between atoms: C_6  and  C_8
REMARK    6  A    between atoms: C_7  and  C_9
REMARK    7  A    between atoms: C_8  and  C_11
REMARK    8  A    between atoms: C_9  and  C_13
REMARK    9  A    between atoms: C_12  and  C_15
REMARK                            x       y       z     vdW  Elec       q    Type
REMARK                         _______ _______ _______ _____ _____    ______ ____
ROOT
ATOM      1  N   UNL     1       0.329  -0.260  -1.762  0.00  0.00    +0.000 NA
ATOM      2  C   UNL     1       0.587  -0.076  -0.448  0.00  0.00    +0.000 A 
ATOM      3  C   UNL     1       1.791  -0.396   0.158  0.00  0.00    +0.000 A 
ATOM      4  C   UNL     1       2.795  -0.941  -0.635  0.00  0.00    +0.000 A 
ATOM      5  C   UNL     1       1.328  -0.791  -2.502  0.00  0.00    +0.000 A 
ATOM      6  C   UNL     1       2.567  -1.145  -1.992  0.00  0.00    +0.000 A 
ENDROOT
BRANCH   3   9
ATOM      7  O   UNL     1       2.498   0.889   2.001  0.00  0.00    +0.000 OA
ATOM      8  N   UNL     1       1.727  -1.224   2.449  0.00  0.00    +0.000 N 
ATOM      9  C   UNL     1       2.039  -0.185   1.578  0.00  0.00    +0.000 C 
ATOM     10  H   UNL     1       1.347  -2.106   2.122  0.00  0.00    +0.000 HD
ATOM     11  H   UNL     1       1.873  -1.128   3.449  0.00  0.00    +0.000 HD
ENDBRANCH   3   9
BRANCH   2  12
ATOM     12  N   UNL     1      -0.429   0.475   0.345  0.00  0.00    +0.000 N 
BRANCH  12  13
ATOM     13  C   UNL     1      -1.403  -0.359   1.008  0.00  0.00    +0.000 C 
BRANCH  13  14
ATOM     14  C   UNL     1      -2.505  -0.788   0.042  0.00  0.00    +0.000 C 
BRANCH  14  15
ATOM     15  C   UNL     1      -3.555  -1.677   0.710  0.00  0.00    +0.000 C 
BRANCH  15  16
ATOM     16  N   UNL     1      -4.572  -2.072  -0.259  0.00  0.00    +0.000 NA
ATOM     17  H   UNL     1      -5.038  -1.243  -0.624  0.00  0.00    +0.000 HD
ATOM     18  H   UNL     1      -5.291  -2.621   0.211  0.00  0.00    +0.000 HD
ENDBRANCH  15  16
ENDBRANCH  14  15
ENDBRANCH  13  14
ENDBRANCH  12  13
BRANCH  12  19
ATOM     19  C   UNL     1      -0.524   1.927   0.509  0.00  0.00    +0.000 C 
BRANCH  19  20
ATOM     20  C   UNL     1      -1.254   2.557  -0.672  0.00  0.00    +0.000 C 
ATOM     21  C   UNL     1      -1.419   4.064  -0.529  0.00  0.00    +0.000 C 
ENDBRANCH  19  20
ENDBRANCH  12  19
ENDBRANCH   2  12
TORSDOF 8
