REMARK  Name = 43132057
REMARK  7 active torsions:
REMARK  status: ('A' for Active; 'I' for Inactive)
REMARK    1  A    between atoms: O_1  and  C_8
REMARK    2  A    between atoms: O_1  and  C_15
REMARK    3  A    between atoms: N_3  and  C_7
REMARK    4  A    between atoms: N_3  and  C_9
REMARK    5  A    between atoms: C_6  and  C_7
REMARK    6  A    between atoms: C_6  and  C_8
REMARK    7  A    between atoms: C_10  and  C_13
REMARK                            x       y       z     vdW  Elec       q    Type
REMARK                         _______ _______ _______ _____ _____    ______ ____
ROOT
ATOM      1  N   UNL     1      -1.136  -1.872   0.007  0.00  0.00    +0.000 NA
ATOM      2  C   UNL     1      -0.819  -0.572   0.199  0.00  0.00    +0.000 A 
ATOM      3  C   UNL     1      -1.689   0.481  -0.035  0.00  0.00    +0.000 A 
ATOM      4  C   UNL     1      -2.966   0.181  -0.494  0.00  0.00    +0.000 A 
ATOM      5  C   UNL     1      -3.330  -1.145  -0.703  0.00  0.00    +0.000 A 
ATOM      6  C   UNL     1      -2.387  -2.125  -0.440  0.00  0.00    +0.000 A 
ENDROOT
BRANCH   3   9
ATOM      7  O   UNL     1      -1.482   2.426   1.279  0.00  0.00    +0.000 OA
ATOM      8  N   UNL     1      -0.750   2.561  -0.890  0.00  0.00    +0.000 N 
ATOM      9  C   UNL     1      -1.317   1.873   0.178  0.00  0.00    +0.000 C 
ATOM     10  H   UNL     1      -0.600   2.124  -1.793  0.00  0.00    +0.000 HD
ATOM     11  H   UNL     1      -0.466   3.530  -0.795  0.00  0.00    +0.000 HD
ENDBRANCH   3   9
BRANCH   2  12
ATOM     12  N   UNL     1       0.457  -0.280   0.654  0.00  0.00    +0.000 N 
ATOM     13  H   UNL     1       0.578   0.617   1.115  0.00  0.00    +0.000 HD
BRANCH  12  14
ATOM     14  C   UNL     1       1.456  -1.282   0.935  0.00  0.00    +0.000 C 
BRANCH  14  15
ATOM     15  C   UNL     1       2.748  -0.641   1.430  0.00  0.00    +0.000 C 
BRANCH  15  16
ATOM     16  C   UNL     1       3.357   0.324   0.419  0.00  0.00    +0.000 C 
BRANCH  16  17
ATOM     17  O   UNL     1       3.631  -0.386  -0.782  0.00  0.00    +0.000 OA
ATOM     18  C   UNL     1       4.226   0.456  -1.760  0.00  0.00    +0.000 C 
ENDBRANCH  16  17
ENDBRANCH  15  16
ENDBRANCH  14  15
ENDBRANCH  12  14
ENDBRANCH   2  12
TORSDOF 6
