REMARK  Name = 43131443
REMARK  7 active torsions:
REMARK  status: ('A' for Active; 'I' for Inactive)
REMARK    1  A    between atoms: N_2  and  C_5
REMARK    2  A    between atoms: N_2  and  C_10
REMARK    3  A    between atoms: C_5  and  C_6
REMARK    4  A    between atoms: C_5  and  C_7
REMARK    5  A    between atoms: C_6  and  C_8
REMARK    6  A    between atoms: C_6  and  C_9
REMARK    7  A    between atoms: C_11  and  C_13
REMARK                            x       y       z     vdW  Elec       q    Type
REMARK                         _______ _______ _______ _____ _____    ______ ____
ROOT
ATOM      1  N   UNL     1      -0.149  -1.695   0.308  0.00  0.00    +0.000 NA
ATOM      2  C   UNL     1      -0.437  -0.376   0.243  0.00  0.00    +0.000 A 
ATOM      3  C   UNL     1      -1.699   0.131  -0.021  0.00  0.00    +0.000 A 
ATOM      4  C   UNL     1      -2.732  -0.776  -0.234  0.00  0.00    +0.000 A 
ATOM      5  C   UNL     1      -1.178  -2.546   0.096  0.00  0.00    +0.000 A 
ATOM      6  C   UNL     1      -2.475  -2.141  -0.176  0.00  0.00    +0.000 A 
ENDROOT
BRANCH   3   9
ATOM      7  O   UNL     1      -2.304   2.201   0.925  0.00  0.00    +0.000 OA
ATOM      8  N   UNL     1      -1.848   2.185  -1.322  0.00  0.00    +0.000 N 
ATOM      9  C   UNL     1      -1.978   1.558  -0.087  0.00  0.00    +0.000 C 
ATOM     10  H   UNL     1      -1.574   1.678  -2.158  0.00  0.00    +0.000 HD
ATOM     11  H   UNL     1      -2.024   3.179  -1.424  0.00  0.00    +0.000 HD
ENDBRANCH   3   9
BRANCH   2  12
ATOM     12  N   UNL     1       0.596   0.519   0.453  0.00  0.00    +0.000 N 
ATOM     13  H   UNL     1       0.470   1.465   0.108  0.00  0.00    +0.000 HD
BRANCH  12  14
ATOM     14  C   UNL     1       1.959   0.116   0.738  0.00  0.00    +0.000 C 
ATOM     15  C   UNL     1       2.670   1.251   1.472  0.00  0.00    +0.000 C 
BRANCH  14  16
ATOM     16  C   UNL     1       2.688  -0.321  -0.553  0.00  0.00    +0.000 C 
ATOM     17  C   UNL     1       2.815   0.789  -1.601  0.00  0.00    +0.000 C 
ATOM     18  C   UNL     1       4.074  -0.898  -0.241  0.00  0.00    +0.000 C 
ENDBRANCH  14  16
ENDBRANCH  12  14
ENDBRANCH   2  12
TORSDOF 4
