REMARK  Name = 43167671
REMARK  2 active torsions:
REMARK  status: ('A' for Active; 'I' for Inactive)
REMARK    1  A    between atoms: N_3  and  C_6
REMARK    2  A    between atoms: C_14  and  C_16
REMARK                            x       y       z     vdW  Elec       q    Type
REMARK                         _______ _______ _______ _____ _____    ______ ____
ROOT
ATOM      1  N   UNL     1      -1.297  -0.663   0.327  0.00  0.00    +0.000 N 
ATOM      2  N   UNL     1       0.557   0.769   0.533  0.00  0.00    +0.000 NA
ATOM      3  C   UNL     1       0.063  -0.448   0.213  0.00  0.00    +0.000 A 
ATOM      4  C   UNL     1       0.839  -1.508  -0.228  0.00  0.00    +0.000 A 
ATOM      5  C   UNL     1       2.209  -1.306  -0.347  0.00  0.00    +0.000 A 
ATOM      6  C   UNL     1       2.755  -0.068  -0.027  0.00  0.00    +0.000 A 
ATOM      7  C   UNL     1       1.894   0.928   0.404  0.00  0.00    +0.000 A 
ATOM      8  H   UNL     1      -1.675  -1.457  -0.179  0.00  0.00    +0.000 HD
ENDROOT
BRANCH   1  10
ATOM      9  N   UNL     1      -4.686   0.173  -0.827  0.00  0.00    +0.000 NA
ATOM     10  C   UNL     1      -2.232   0.350   0.774  0.00  0.00    +0.000 C 
ATOM     11  C   UNL     1      -3.510  -0.312   1.292  0.00  0.00    +0.000 C 
ATOM     12  C   UNL     1      -2.545   1.325  -0.364  0.00  0.00    +0.000 C 
ATOM     13  C   UNL     1      -4.382  -0.860   0.162  0.00  0.00    +0.000 C 
ATOM     14  C   UNL     1      -3.466   0.717  -1.423  0.00  0.00    +0.000 C 
ATOM     15  H   UNL     1      -5.270  -0.226  -1.562  0.00  0.00    +0.000 HD
ENDBRANCH   1  10
BRANCH   6  18
ATOM     16  O   UNL     1       4.961  -0.710  -0.544  0.00  0.00    +0.000 OA
ATOM     17  N   UNL     1       4.656   1.439   0.196  0.00  0.00    +0.000 N 
ATOM     18  C   UNL     1       4.182   0.174  -0.142  0.00  0.00    +0.000 C 
ATOM     19  H   UNL     1       4.091   2.211   0.525  0.00  0.00    +0.000 HD
ATOM     20  H   UNL     1       5.649   1.637   0.119  0.00  0.00    +0.000 HD
ENDBRANCH   6  18
TORSDOF 2
