REMARK  Name = 43252545
REMARK  8 active torsions:
REMARK  status: ('A' for Active; 'I' for Inactive)
REMARK    1  A    between atoms: N_2  and  C_11
REMARK    2  A    between atoms: N_3  and  C_14
REMARK    3  A    between atoms: N_5  and  C_17
REMARK    4  A    between atoms: C_11  and  C_12
REMARK    5  A    between atoms: C_12  and  C_13
REMARK    6  A    between atoms: C_13  and  C_15
REMARK    7  A    between atoms: C_15  and  C_17
REMARK    8  A    between atoms: C_16  and  C_19
REMARK                            x       y       z     vdW  Elec       q    Type
REMARK                         _______ _______ _______ _____ _____    ______ ____
ROOT
ATOM      1  N   UNL     1      -1.369   0.027   0.574  0.00  0.00    +0.000 NA
ATOM      2  N   UNL     1       1.435   0.382   0.161  0.00  0.00    +0.000 N 
ATOM      3  C   UNL     1      -0.832   0.189  -0.782  0.00  0.00    +0.000 C 
ATOM      4  C   UNL     1      -0.399  -0.688   1.413  0.00  0.00    +0.000 C 
ATOM      5  C   UNL     1       0.474   0.987  -0.766  0.00  0.00    +0.000 C 
ATOM      6  C   UNL     1       0.921   0.082   1.503  0.00  0.00    +0.000 C 
ENDROOT
BRANCH   2   8
ATOM      7  N   UNL     1       3.190   1.952   0.137  0.00  0.00    +0.000 NA
ATOM      8  C   UNL     1       2.799   0.662   0.027  0.00  0.00    +0.000 A 
ATOM      9  C   UNL     1       3.666  -0.393  -0.208  0.00  0.00    +0.000 A 
ATOM     10  C   UNL     1       5.020  -0.106  -0.338  0.00  0.00    +0.000 A 
ATOM     11  C   UNL     1       4.514   2.192   0.005  0.00  0.00    +0.000 A 
ATOM     12  C   UNL     1       5.461   1.208  -0.231  0.00  0.00    +0.000 A 
BRANCH   9  15
ATOM     13  O   UNL     1       3.127  -2.508   0.676  0.00  0.00    +0.000 OA
ATOM     14  N   UNL     1       2.867  -2.237  -1.586  0.00  0.00    +0.000 N 
ATOM     15  C   UNL     1       3.215  -1.773  -0.321  0.00  0.00    +0.000 C 
ATOM     16  H   UNL     1       2.924  -1.648  -2.410  0.00  0.00    +0.000 HD
ATOM     17  H   UNL     1       2.540  -3.188  -1.721  0.00  0.00    +0.000 HD
ENDBRANCH   9  15
ENDBRANCH   2   8
BRANCH   1  18
ATOM     18  C   UNL     1      -2.643  -0.690   0.540  0.00  0.00    +0.000 C 
BRANCH  18  19
ATOM     19  C   UNL     1      -3.780   0.265   0.179  0.00  0.00    +0.000 C 
BRANCH  19  20
ATOM     20  C   UNL     1      -5.125  -0.464   0.146  0.00  0.00    +0.000 C 
BRANCH  20  21
ATOM     21  C   UNL     1      -6.261   0.481  -0.250  0.00  0.00    +0.000 C 
BRANCH  21  22
ATOM     22  C   UNL     1      -7.607  -0.241  -0.246  0.00  0.00    +0.000 C 
BRANCH  22  23
ATOM     23  N   UNL     1      -8.674   0.673  -0.635  0.00  0.00    +0.000 NA
ATOM     24  H   UNL     1      -8.722   1.446   0.028  0.00  0.00    +0.000 HD
ATOM     25  H   UNL     1      -9.570   0.191  -0.578  0.00  0.00    +0.000 HD
ENDBRANCH  22  23
ENDBRANCH  21  22
ENDBRANCH  20  21
ENDBRANCH  19  20
ENDBRANCH  18  19
ENDBRANCH   1  18
TORSDOF 8
