REMARK  Name = 43251496
REMARK  6 active torsions:
REMARK  status: ('A' for Active; 'I' for Inactive)
REMARK    1  A    between atoms: N_2  and  C_12
REMARK    2  A    between atoms: N_3  and  C_14
REMARK    3  A    between atoms: N_5  and  C_15
REMARK    4  A    between atoms: C_12  and  C_13
REMARK    5  A    between atoms: C_13  and  C_15
REMARK    6  A    between atoms: C_16  and  C_18
REMARK                            x       y       z     vdW  Elec       q    Type
REMARK                         _______ _______ _______ _____ _____    ______ ____
ROOT
ATOM      1  N   UNL     1       2.391   0.402  -0.464  0.00  0.00    +0.000 NA
ATOM      2  N   UNL     1      -0.843   0.613   0.021  0.00  0.00    +0.000 N 
ATOM      3  C   UNL     1       2.134   1.453   0.523  0.00  0.00    +0.000 C 
ATOM      4  C   UNL     1       1.226  -0.383  -0.880  0.00  0.00    +0.000 C 
ATOM      5  C   UNL     1       1.052   1.161   1.567  0.00  0.00    +0.000 C 
ATOM      6  C   UNL     1      -0.031   0.436  -1.187  0.00  0.00    +0.000 C 
ATOM      7  C   UNL     1      -0.358   1.499   1.084  0.00  0.00    +0.000 C 
ENDROOT
BRANCH   2   9
ATOM      8  N   UNL     1      -2.901   1.699  -0.372  0.00  0.00    +0.000 NA
ATOM      9  C   UNL     1      -2.242   0.550  -0.103  0.00  0.00    +0.000 A 
ATOM     10  C   UNL     1      -2.860  -0.679   0.060  0.00  0.00    +0.000 A 
ATOM     11  C   UNL     1      -4.244  -0.733  -0.062  0.00  0.00    +0.000 A 
ATOM     12  C   UNL     1      -4.246   1.608  -0.483  0.00  0.00    +0.000 A 
ATOM     13  C   UNL     1      -4.958   0.428  -0.338  0.00  0.00    +0.000 A 
BRANCH  10  16
ATOM     14  O   UNL     1      -1.907  -2.260   1.522  0.00  0.00    +0.000 OA
ATOM     15  N   UNL     1      -1.681  -2.662  -0.724  0.00  0.00    +0.000 N 
ATOM     16  C   UNL     1      -2.122  -1.900   0.353  0.00  0.00    +0.000 C 
ATOM     17  H   UNL     1      -1.853  -2.387  -1.686  0.00  0.00    +0.000 HD
ATOM     18  H   UNL     1      -1.166  -3.523  -0.577  0.00  0.00    +0.000 HD
ENDBRANCH  10  16
ENDBRANCH   2   9
BRANCH   1  19
ATOM     19  C   UNL     1       3.468  -0.489  -0.030  0.00  0.00    +0.000 C 
BRANCH  19  20
ATOM     20  C   UNL     1       4.829   0.136  -0.342  0.00  0.00    +0.000 C 
BRANCH  20  21
ATOM     21  C   UNL     1       6.004  -0.753   0.073  0.00  0.00    +0.000 C 
BRANCH  21  22
ATOM     22  N   UNL     1       7.289  -0.129  -0.218  0.00  0.00    +0.000 NA
ATOM     23  H   UNL     1       7.366   0.047  -1.219  0.00  0.00    +0.000 HD
ATOM     24  H   UNL     1       8.040  -0.776   0.018  0.00  0.00    +0.000 HD
ENDBRANCH  21  22
ENDBRANCH  20  21
ENDBRANCH  19  20
ENDBRANCH   1  19
TORSDOF 6
