REMARK  Name = 43252498
REMARK  5 active torsions:
REMARK  status: ('A' for Active; 'I' for Inactive)
REMARK    1  A    between atoms: N_2  and  C_11
REMARK    2  A    between atoms: N_3  and  C_12
REMARK    3  A    between atoms: N_5  and  C_13
REMARK    4  A    between atoms: C_11  and  C_13
REMARK    5  A    between atoms: C_14  and  C_16
REMARK                            x       y       z     vdW  Elec       q    Type
REMARK                         _______ _______ _______ _____ _____    ______ ____
ROOT
ATOM      1  N   UNL     1      -2.641   0.461  -0.222  0.00  0.00    +0.000 NA
ATOM      2  N   UNL     1       0.212   0.484  -0.089  0.00  0.00    +0.000 N 
ATOM      3  C   UNL     1      -1.839   0.444  -1.452  0.00  0.00    +0.000 C 
ATOM      4  C   UNL     1      -1.942  -0.272   0.840  0.00  0.00    +0.000 C 
ATOM      5  C   UNL     1      -0.474   1.101  -1.228  0.00  0.00    +0.000 C 
ATOM      6  C   UNL     1      -0.581   0.361   1.140  0.00  0.00    +0.000 C 
ENDROOT
BRANCH   2   8
ATOM      7  N   UNL     1       2.115   1.855   0.129  0.00  0.00    +0.000 NA
ATOM      8  C   UNL     1       1.601   0.608   0.034  0.00  0.00    +0.000 A 
ATOM      9  C   UNL     1       2.363  -0.549   0.049  0.00  0.00    +0.000 A 
ATOM     10  C   UNL     1       3.742  -0.417   0.169  0.00  0.00    +0.000 A 
ATOM     11  C   UNL     1       3.459   1.943   0.244  0.00  0.00    +0.000 A 
ATOM     12  C   UNL     1       4.309   0.849   0.269  0.00  0.00    +0.000 A 
BRANCH   9  15
ATOM     13  O   UNL     1       1.419  -2.509   0.950  0.00  0.00    +0.000 OA
ATOM     14  N   UNL     1       1.623  -2.414  -1.332  0.00  0.00    +0.000 N 
ATOM     15  C   UNL     1       1.780  -1.879  -0.058  0.00  0.00    +0.000 C 
ATOM     16  H   UNL     1       1.904  -1.910  -2.167  0.00  0.00    +0.000 HD
ATOM     17  H   UNL     1       1.216  -3.334  -1.465  0.00  0.00    +0.000 HD
ENDBRANCH   9  15
ENDBRANCH   2   8
BRANCH   1  18
ATOM     18  C   UNL     1      -3.961  -0.119  -0.463  0.00  0.00    +0.000 C 
BRANCH  18  19
ATOM     19  C   UNL     1      -4.932   0.309   0.634  0.00  0.00    +0.000 C 
BRANCH  19  20
ATOM     20  N   UNL     1      -6.254  -0.256   0.384  0.00  0.00    +0.000 NA
ATOM     21  H   UNL     1      -6.881   0.002   1.145  0.00  0.00    +0.000 HD
ATOM     22  H   UNL     1      -6.199  -1.274   0.392  0.00  0.00    +0.000 HD
ENDBRANCH  19  20
ENDBRANCH  18  19
ENDBRANCH   1  18
TORSDOF 5
