REMARK  Name = 43252523
REMARK  7 active torsions:
REMARK  status: ('A' for Active; 'I' for Inactive)
REMARK    1  A    between atoms: N_2  and  C_12
REMARK    2  A    between atoms: N_3  and  C_14
REMARK    3  A    between atoms: N_5  and  C_16
REMARK    4  A    between atoms: C_12  and  C_13
REMARK    5  A    between atoms: C_13  and  C_15
REMARK    6  A    between atoms: C_15  and  C_16
REMARK    7  A    between atoms: C_17  and  C_19
REMARK                            x       y       z     vdW  Elec       q    Type
REMARK                         _______ _______ _______ _____ _____    ______ ____
ROOT
ATOM      1  N   UNL     1      -2.171  -0.822   0.605  0.00  0.00    +0.000 NA
ATOM      2  N   UNL     1       0.960   0.091   0.619  0.00  0.00    +0.000 N 
ATOM      3  C   UNL     1      -1.648  -1.463   1.816  0.00  0.00    +0.000 C 
ATOM      4  C   UNL     1      -1.163  -0.687  -0.454  0.00  0.00    +0.000 C 
ATOM      5  C   UNL     1      -0.493  -0.716   2.485  0.00  0.00    +0.000 C 
ATOM      6  C   UNL     1      -0.197   0.472  -0.191  0.00  0.00    +0.000 C 
ATOM      7  C   UNL     1       0.835  -0.841   1.740  0.00  0.00    +0.000 C 
ENDROOT
BRANCH   2   9
ATOM      8  N   UNL     1       2.550   1.800   0.931  0.00  0.00    +0.000 NA
ATOM      9  C   UNL     1       2.214   0.638   0.327  0.00  0.00    +0.000 A 
ATOM     10  C   UNL     1       3.034  -0.040  -0.561  0.00  0.00    +0.000 A 
ATOM     11  C   UNL     1       4.279   0.510  -0.846  0.00  0.00    +0.000 A 
ATOM     12  C   UNL     1       3.767   2.304   0.629  0.00  0.00    +0.000 A 
ATOM     13  C   UNL     1       4.660   1.704  -0.244  0.00  0.00    +0.000 A 
BRANCH  10  16
ATOM     14  O   UNL     1       2.882  -2.388  -0.663  0.00  0.00    +0.000 OA
ATOM     15  N   UNL     1       1.979  -1.216  -2.415  0.00  0.00    +0.000 N 
ATOM     16  C   UNL     1       2.645  -1.291  -1.196  0.00  0.00    +0.000 C 
ATOM     17  H   UNL     1       1.770  -0.329  -2.862  0.00  0.00    +0.000 HD
ATOM     18  H   UNL     1       1.677  -2.056  -2.897  0.00  0.00    +0.000 HD
ENDBRANCH  10  16
ENDBRANCH   2   9
BRANCH   1  19
ATOM     19  C   UNL     1      -3.324  -1.582   0.110  0.00  0.00    +0.000 C 
BRANCH  19  20
ATOM     20  C   UNL     1      -4.207  -0.757  -0.828  0.00  0.00    +0.000 C 
BRANCH  20  21
ATOM     21  C   UNL     1      -4.789   0.499  -0.172  0.00  0.00    +0.000 C 
BRANCH  21  22
ATOM     22  C   UNL     1      -5.637   1.294  -1.165  0.00  0.00    +0.000 C 
BRANCH  22  23
ATOM     23  N   UNL     1      -6.177   2.490  -0.528  0.00  0.00    +0.000 NA
ATOM     24  H   UNL     1      -6.768   2.223   0.258  0.00  0.00    +0.000 HD
ATOM     25  H   UNL     1      -6.781   2.980  -1.186  0.00  0.00    +0.000 HD
ENDBRANCH  22  23
ENDBRANCH  21  22
ENDBRANCH  20  21
ENDBRANCH  19  20
ENDBRANCH   1  19
TORSDOF 7
