REMARK  Name = 43252507
REMARK  5 active torsions:
REMARK  status: ('A' for Active; 'I' for Inactive)
REMARK    1  A    between atoms: N_2  and  C_12
REMARK    2  A    between atoms: N_3  and  C_13
REMARK    3  A    between atoms: N_5  and  C_14
REMARK    4  A    between atoms: C_12  and  C_14
REMARK    5  A    between atoms: C_15  and  C_17
REMARK                            x       y       z     vdW  Elec       q    Type
REMARK                         _______ _______ _______ _____ _____    ______ ____
ROOT
ATOM      1  N   UNL     1      -2.818   0.546   0.088  0.00  0.00    +0.000 NA
ATOM      2  N   UNL     1       0.441   0.658   0.063  0.00  0.00    +0.000 N 
ATOM      3  C   UNL     1      -2.503   1.207   1.359  0.00  0.00    +0.000 C 
ATOM      4  C   UNL     1      -1.788  -0.410  -0.333  0.00  0.00    +0.000 C 
ATOM      5  C   UNL     1      -1.210   2.022   1.350  0.00  0.00    +0.000 C 
ATOM      6  C   UNL     1      -0.562   0.284  -0.934  0.00  0.00    +0.000 C 
ATOM      7  C   UNL     1       0.057   1.169   1.379  0.00  0.00    +0.000 C 
ENDROOT
BRANCH   2   9
ATOM      8  N   UNL     1       2.408   1.598  -0.827  0.00  0.00    +0.000 NA
ATOM      9  C   UNL     1       1.800   0.538  -0.250  0.00  0.00    +0.000 A 
ATOM     10  C   UNL     1       2.437  -0.656   0.045  0.00  0.00    +0.000 A 
ATOM     11  C   UNL     1       3.786  -0.769  -0.271  0.00  0.00    +0.000 A 
ATOM     12  C   UNL     1       3.720   1.451  -1.120  0.00  0.00    +0.000 A 
ATOM     13  C   UNL     1       4.447   0.300  -0.865  0.00  0.00    +0.000 A 
BRANCH  10  16
ATOM     14  O   UNL     1       1.692  -1.903   1.899  0.00  0.00    +0.000 OA
ATOM     15  N   UNL     1       1.152  -2.714  -0.176  0.00  0.00    +0.000 N 
ATOM     16  C   UNL     1       1.753  -1.783   0.664  0.00  0.00    +0.000 C 
ATOM     17  H   UNL     1       1.185  -2.629  -1.187  0.00  0.00    +0.000 HD
ATOM     18  H   UNL     1       0.655  -3.514   0.202  0.00  0.00    +0.000 HD
ENDBRANCH  10  16
ENDBRANCH   2   9
BRANCH   1  19
ATOM     19  C   UNL     1      -4.117  -0.128   0.198  0.00  0.00    +0.000 C 
BRANCH  19  20
ATOM     20  C   UNL     1      -4.707  -0.362  -1.189  0.00  0.00    +0.000 C 
BRANCH  20  21
ATOM     21  N   UNL     1      -5.989  -1.048  -1.081  0.00  0.00    +0.000 NA
ATOM     22  H   UNL     1      -6.402  -1.143  -2.008  0.00  0.00    +0.000 HD
ATOM     23  H   UNL     1      -6.638  -0.481  -0.536  0.00  0.00    +0.000 HD
ENDBRANCH  20  21
ENDBRANCH  19  20
ENDBRANCH   1  19
TORSDOF 5
