REMARK  Name = 43251302
REMARK  6 active torsions:
REMARK  status: ('A' for Active; 'I' for Inactive)
REMARK    1  A    between atoms: N_2  and  C_11
REMARK    2  A    between atoms: N_3  and  C_13
REMARK    3  A    between atoms: N_5  and  C_14
REMARK    4  A    between atoms: C_11  and  C_12
REMARK    5  A    between atoms: C_12  and  C_14
REMARK    6  A    between atoms: C_15  and  C_17
REMARK                            x       y       z     vdW  Elec       q    Type
REMARK                         _______ _______ _______ _____ _____    ______ ____
ROOT
ATOM      1  N   UNL     1      -2.246   0.102   0.425  0.00  0.00    +0.000 NA
ATOM      2  N   UNL     1       0.580   0.391   0.125  0.00  0.00    +0.000 N 
ATOM      3  C   UNL     1      -1.648   0.213  -0.911  0.00  0.00    +0.000 C 
ATOM      4  C   UNL     1      -1.327  -0.606   1.326  0.00  0.00    +0.000 C 
ATOM      5  C   UNL     1      -0.328   0.987  -0.860  0.00  0.00    +0.000 C 
ATOM      6  C   UNL     1       0.003   0.141   1.451  0.00  0.00    +0.000 C 
ENDROOT
BRANCH   2   8
ATOM      7  N   UNL     1       2.365   1.927   0.129  0.00  0.00    +0.000 NA
ATOM      8  C   UNL     1       1.954   0.642   0.042  0.00  0.00    +0.000 A 
ATOM      9  C   UNL     1       2.808  -0.436  -0.124  0.00  0.00    +0.000 A 
ATOM     10  C   UNL     1       4.173  -0.179  -0.208  0.00  0.00    +0.000 A 
ATOM     11  C   UNL     1       3.698   2.138   0.043  0.00  0.00    +0.000 A 
ATOM     12  C   UNL     1       4.634   1.130  -0.123  0.00  0.00    +0.000 A 
BRANCH   9  15
ATOM     13  O   UNL     1       2.193  -2.515   0.797  0.00  0.00    +0.000 OA
ATOM     14  N   UNL     1       2.029  -2.304  -1.481  0.00  0.00    +0.000 N 
ATOM     15  C   UNL     1       2.335  -1.810  -0.217  0.00  0.00    +0.000 C 
ATOM     16  H   UNL     1       2.130  -1.740  -2.319  0.00  0.00    +0.000 HD
ATOM     17  H   UNL     1       1.688  -3.252  -1.603  0.00  0.00    +0.000 HD
ENDBRANCH   9  15
ENDBRANCH   2   8
BRANCH   1  18
ATOM     18  C   UNL     1      -3.531  -0.592   0.355  0.00  0.00    +0.000 C 
BRANCH  18  19
ATOM     19  C   UNL     1      -4.634   0.381  -0.065  0.00  0.00    +0.000 C 
BRANCH  19  20
ATOM     20  C   UNL     1      -6.014  -0.276  -0.142  0.00  0.00    +0.000 C 
BRANCH  20  21
ATOM     21  N   UNL     1      -7.044   0.665  -0.562  0.00  0.00    +0.000 NA
ATOM     22  H   UNL     1      -7.099   1.433   0.106  0.00  0.00    +0.000 HD
ATOM     23  H   UNL     1      -7.953   0.203  -0.542  0.00  0.00    +0.000 HD
ENDBRANCH  20  21
ENDBRANCH  19  20
ENDBRANCH  18  19
ENDBRANCH   1  18
TORSDOF 6
