REMARK  Name = 43252516
REMARK  7 active torsions:
REMARK  status: ('A' for Active; 'I' for Inactive)
REMARK    1  A    between atoms: N_2  and  C_11
REMARK    2  A    between atoms: N_3  and  C_13
REMARK    3  A    between atoms: N_5  and  C_16
REMARK    4  A    between atoms: C_11  and  C_12
REMARK    5  A    between atoms: C_12  and  C_14
REMARK    6  A    between atoms: C_14  and  C_16
REMARK    7  A    between atoms: C_15  and  C_18
REMARK                            x       y       z     vdW  Elec       q    Type
REMARK                         _______ _______ _______ _____ _____    ______ ____
ROOT
ATOM      1  N   UNL     1      -1.807   0.130   0.514  0.00  0.00    +0.000 NA
ATOM      2  N   UNL     1       1.012   0.399   0.144  0.00  0.00    +0.000 N 
ATOM      3  C   UNL     1      -1.241   0.237  -0.837  0.00  0.00    +0.000 C 
ATOM      4  C   UNL     1      -0.872  -0.584   1.392  0.00  0.00    +0.000 C 
ATOM      5  C   UNL     1       0.085   1.001  -0.819  0.00  0.00    +0.000 C 
ATOM      6  C   UNL     1       0.466   0.154   1.484  0.00  0.00    +0.000 C 
ENDROOT
BRANCH   2   8
ATOM      7  N   UNL     1       2.808   1.922   0.103  0.00  0.00    +0.000 NA
ATOM      8  C   UNL     1       2.386   0.640   0.028  0.00  0.00    +0.000 A 
ATOM      9  C   UNL     1       3.228  -0.444  -0.159  0.00  0.00    +0.000 A 
ATOM     10  C   UNL     1       4.591  -0.197  -0.276  0.00  0.00    +0.000 A 
ATOM     11  C   UNL     1       4.140   2.124  -0.015  0.00  0.00    +0.000 A 
ATOM     12  C   UNL     1       5.064   1.109  -0.204  0.00  0.00    +0.000 A 
BRANCH   9  15
ATOM     13  O   UNL     1       2.621  -2.518   0.778  0.00  0.00    +0.000 OA
ATOM     14  N   UNL     1       2.402  -2.307  -1.495  0.00  0.00    +0.000 N 
ATOM     15  C   UNL     1       2.743  -1.815  -0.239  0.00  0.00    +0.000 C 
ATOM     16  H   UNL     1       2.486  -1.744  -2.335  0.00  0.00    +0.000 HD
ATOM     17  H   UNL     1       2.052  -3.252  -1.607  0.00  0.00    +0.000 HD
ENDBRANCH   9  15
ENDBRANCH   2   8
BRANCH   1  18
ATOM     18  C   UNL     1      -3.099  -0.555   0.476  0.00  0.00    +0.000 C 
BRANCH  18  19
ATOM     19  C   UNL     1      -4.235   0.371   0.037  0.00  0.00    +0.000 C 
BRANCH  19  20
ATOM     20  C   UNL     1      -5.602  -0.320  -0.014  0.00  0.00    +0.000 C 
BRANCH  20  21
ATOM     21  C   UNL     1      -6.698   0.662  -0.431  0.00  0.00    +0.000 C 
BRANCH  21  22
ATOM     22  N   UNL     1      -7.992  -0.009  -0.467  0.00  0.00    +0.000 NA
ATOM     23  H   UNL     1      -7.966  -0.769  -1.145  0.00  0.00    +0.000 HD
ATOM     24  H   UNL     1      -8.702   0.644  -0.796  0.00  0.00    +0.000 HD
ENDBRANCH  21  22
ENDBRANCH  20  21
ENDBRANCH  19  20
ENDBRANCH  18  19
ENDBRANCH   1  18
TORSDOF 7
