REMARK  Name = 43275312
REMARK  4 active torsions:
REMARK  status: ('A' for Active; 'I' for Inactive)
REMARK    1  A    between atoms: N_2  and  C_9
REMARK    2  A    between atoms: N_2  and  C_10
REMARK    3  A    between atoms: C_5  and  C_9
REMARK    4  A    between atoms: C_11  and  C_13
REMARK                            x       y       z     vdW  Elec       q    Type
REMARK                         _______ _______ _______ _____ _____    ______ ____
ROOT
ATOM      1  N   UNL     1       0.988  -1.865  -0.039  0.00  0.00    +0.000 NA
ATOM      2  C   UNL     1       0.835  -0.524   0.053  0.00  0.00    +0.000 A 
ATOM      3  C   UNL     1       1.885   0.380   0.020  0.00  0.00    +0.000 A 
ATOM      4  C   UNL     1       3.174  -0.124  -0.116  0.00  0.00    +0.000 A 
ATOM      5  C   UNL     1       2.255  -2.317  -0.170  0.00  0.00    +0.000 A 
ATOM      6  C   UNL     1       3.371  -1.497  -0.214  0.00  0.00    +0.000 A 
ENDROOT
BRANCH   3   9
ATOM      7  O   UNL     1       1.704   2.395   1.225  0.00  0.00    +0.000 OA
ATOM      8  N   UNL     1       1.502   2.532  -1.055  0.00  0.00    +0.000 N 
ATOM      9  C   UNL     1       1.689   1.819   0.124  0.00  0.00    +0.000 C 
ATOM     10  H   UNL     1       1.494   2.079  -1.964  0.00  0.00    +0.000 HD
ATOM     11  H   UNL     1       1.367   3.538  -1.041  0.00  0.00    +0.000 HD
ENDBRANCH   3   9
BRANCH   2  12
ATOM     12  N   UNL     1      -0.452  -0.030   0.191  0.00  0.00    +0.000 N 
ATOM     13  H   UNL     1      -0.599   0.946  -0.043  0.00  0.00    +0.000 HD
BRANCH  12  14
ATOM     14  C   UNL     1      -1.630  -0.864   0.238  0.00  0.00    +0.000 C 
BRANCH  14  15
ATOM     15  C   UNL     1      -2.876  -0.025   0.433  0.00  0.00    +0.000 C 
ATOM     16  C   UNL     1      -3.419   0.632  -0.853  0.00  0.00    +0.000 C 
ATOM     17  C   UNL     1      -4.193  -0.827   0.488  0.00  0.00    +0.000 C 
ATOM     18  C   UNL     1      -4.834   0.317  -0.325  0.00  0.00    +0.000 C 
ENDBRANCH  14  15
ENDBRANCH  12  14
ENDBRANCH   2  12
TORSDOF 4
