REMARK  Name = 43319529
REMARK  7 active torsions:
REMARK  status: ('A' for Active; 'I' for Inactive)
REMARK    1  A    between atoms: N_2  and  C_6
REMARK    2  A    between atoms: N_2  and  C_12
REMARK    3  A    between atoms: N_2  and  C_13
REMARK    4  A    between atoms: N_4  and  C_16
REMARK    5  A    between atoms: C_12  and  C_14
REMARK    6  A    between atoms: C_14  and  C_16
REMARK    7  A    between atoms: C_15  and  C_18
REMARK                            x       y       z     vdW  Elec       q    Type
REMARK                         _______ _______ _______ _____ _____    ______ ____
ROOT
ATOM      1  N   UNL     1       0.294  -0.023   0.097  0.00  0.00    +0.000 N 
ENDROOT
BRANCH   1   3
ATOM      2  N   UNL     1      -0.965   0.803   1.908  0.00  0.00    +0.000 NA
ATOM      3  C   UNL     1      -0.877   0.573   0.578  0.00  0.00    +0.000 A 
ATOM      4  C   UNL     1      -1.873   0.889  -0.331  0.00  0.00    +0.000 A 
ATOM      5  C   UNL     1      -3.034   1.480   0.154  0.00  0.00    +0.000 A 
ATOM      6  C   UNL     1      -2.108   1.379   2.343  0.00  0.00    +0.000 A 
ATOM      7  C   UNL     1      -3.162   1.733   1.516  0.00  0.00    +0.000 A 
BRANCH   4  10
ATOM      8  O   UNL     1      -2.139  -0.437  -2.260  0.00  0.00    +0.000 OA
ATOM      9  N   UNL     1      -1.190   1.631  -2.550  0.00  0.00    +0.000 N 
ATOM     10  C   UNL     1      -1.748   0.631  -1.759  0.00  0.00    +0.000 C 
ATOM     11  H   UNL     1      -0.872   2.512  -2.159  0.00  0.00    +0.000 HD
ATOM     12  H   UNL     1      -1.083   1.506  -3.551  0.00  0.00    +0.000 HD
ENDBRANCH   4  10
ENDBRANCH   1   3
BRANCH   1  13
ATOM     13  C   UNL     1       1.585   0.607   0.275  0.00  0.00    +0.000 C 
ATOM     14  C   UNL     1       2.492  -0.300   1.109  0.00  0.00    +0.000 C 
ATOM     15  C   UNL     1       2.199   0.903  -1.095  0.00  0.00    +0.000 C 
ATOM     16  C   UNL     1       3.898   0.280   1.238  0.00  0.00    +0.000 C 
ATOM     17  C   UNL     1       3.606   1.482  -0.964  0.00  0.00    +0.000 C 
ATOM     18  C   UNL     1       4.510   0.580  -0.128  0.00  0.00    +0.000 C 
ENDBRANCH   1  13
BRANCH   1  19
ATOM     19  C   UNL     1       0.239  -1.309  -0.594  0.00  0.00    +0.000 C 
BRANCH  19  20
ATOM     20  C   UNL     1      -0.335  -2.395   0.315  0.00  0.00    +0.000 C 
BRANCH  20  21
ATOM     21  C   UNL     1      -0.411  -3.757  -0.377  0.00  0.00    +0.000 C 
BRANCH  21  22
ATOM     22  N   UNL     1      -0.980  -4.751   0.526  0.00  0.00    +0.000 NA
ATOM     23  H   UNL     1      -0.390  -4.842   1.352  0.00  0.00    +0.000 HD
ATOM     24  H   UNL     1      -0.977  -5.662   0.070  0.00  0.00    +0.000 HD
ENDBRANCH  21  22
ENDBRANCH  20  21
ENDBRANCH  19  20
ENDBRANCH   1  19
TORSDOF 7
