REMARK  Name = 43319525
REMARK  7 active torsions:
REMARK  status: ('A' for Active; 'I' for Inactive)
REMARK    1  A    between atoms: N_2  and  C_6
REMARK    2  A    between atoms: N_2  and  C_11
REMARK    3  A    between atoms: N_2  and  C_12
REMARK    4  A    between atoms: N_4  and  C_15
REMARK    5  A    between atoms: C_11  and  C_13
REMARK    6  A    between atoms: C_13  and  C_15
REMARK    7  A    between atoms: C_14  and  C_17
REMARK                            x       y       z     vdW  Elec       q    Type
REMARK                         _______ _______ _______ _____ _____    ______ ____
ROOT
ATOM      1  N   UNL     1       0.428  -0.021  -0.114  0.00  0.00    +0.000 N 
ENDROOT
BRANCH   1   3
ATOM      2  N   UNL     1      -1.191   0.795  -1.619  0.00  0.00    +0.000 NA
ATOM      3  C   UNL     1      -0.910   0.059  -0.520  0.00  0.00    +0.000 A 
ATOM      4  C   UNL     1      -1.863  -0.616   0.226  0.00  0.00    +0.000 A 
ATOM      5  C   UNL     1      -3.189  -0.530  -0.182  0.00  0.00    +0.000 A 
ATOM      6  C   UNL     1      -2.491   0.856  -1.984  0.00  0.00    +0.000 A 
ATOM      7  C   UNL     1      -3.518   0.218  -1.307  0.00  0.00    +0.000 A 
BRANCH   4  10
ATOM      8  O   UNL     1      -1.235  -2.604   1.323  0.00  0.00    +0.000 OA
ATOM      9  N   UNL     1      -1.534  -0.748   2.636  0.00  0.00    +0.000 N 
ATOM     10  C   UNL     1      -1.530  -1.400   1.407  0.00  0.00    +0.000 C 
ATOM     11  H   UNL     1      -1.769   0.235   2.724  0.00  0.00    +0.000 HD
ATOM     12  H   UNL     1      -1.301  -1.244   3.490  0.00  0.00    +0.000 HD
ENDBRANCH   4  10
ENDBRANCH   1   3
BRANCH   1  13
ATOM     13  C   UNL     1       1.297  -1.060  -0.601  0.00  0.00    +0.000 C 
ATOM     14  C   UNL     1       2.524  -0.480  -1.289  0.00  0.00    +0.000 C 
ATOM     15  C   UNL     1       1.902  -1.870   0.536  0.00  0.00    +0.000 C 
ATOM     16  C   UNL     1       3.541  -1.617  -1.255  0.00  0.00    +0.000 C 
ATOM     17  C   UNL     1       3.135  -2.516  -0.086  0.00  0.00    +0.000 C 
ENDBRANCH   1  13
BRANCH   1  18
ATOM     18  C   UNL     1       0.974   0.965   0.818  0.00  0.00    +0.000 C 
BRANCH  18  19
ATOM     19  C   UNL     1       0.887   2.374   0.236  0.00  0.00    +0.000 C 
BRANCH  19  20
ATOM     20  C   UNL     1       1.448   3.435   1.185  0.00  0.00    +0.000 C 
BRANCH  20  21
ATOM     21  N   UNL     1       1.324   4.761   0.590  0.00  0.00    +0.000 NA
ATOM     22  H   UNL     1       1.852   4.797  -0.281  0.00  0.00    +0.000 HD
ATOM     23  H   UNL     1       1.748   5.450   1.210  0.00  0.00    +0.000 HD
ENDBRANCH  20  21
ENDBRANCH  19  20
ENDBRANCH  18  19
ENDBRANCH   1  18
TORSDOF 7
