REMARK  Name = 43317132
REMARK  4 active torsions:
REMARK  status: ('A' for Active; 'I' for Inactive)
REMARK    1  A    between atoms: N_2  and  C_10
REMARK    2  A    between atoms: N_2  and  C_11
REMARK    3  A    between atoms: C_5  and  C_10
REMARK    4  A    between atoms: C_12  and  C_14
REMARK                            x       y       z     vdW  Elec       q    Type
REMARK                         _______ _______ _______ _____ _____    ______ ____
ROOT
ATOM      1  N   UNL     1      -1.405   1.873   0.087  0.00  0.00    +0.000 NA
ATOM      2  C   UNL     1      -1.166   0.549  -0.051  0.00  0.00    +0.000 A 
ATOM      3  C   UNL     1      -2.154  -0.422  -0.039  0.00  0.00    +0.000 A 
ATOM      4  C   UNL     1      -3.471  -0.009   0.126  0.00  0.00    +0.000 A 
ATOM      5  C   UNL     1      -2.697   2.236   0.246  0.00  0.00    +0.000 A 
ATOM      6  C   UNL     1      -3.756   1.344   0.272  0.00  0.00    +0.000 A 
ENDROOT
BRANCH   3   9
ATOM      7  O   UNL     1      -1.825  -2.380  -1.308  0.00  0.00    +0.000 OA
ATOM      8  N   UNL     1      -1.617  -2.575   0.968  0.00  0.00    +0.000 N 
ATOM      9  C   UNL     1      -1.865  -1.842  -0.188  0.00  0.00    +0.000 C 
ATOM     10  H   UNL     1      -1.637  -2.151   1.890  0.00  0.00    +0.000 HD
ATOM     11  H   UNL     1      -1.404  -3.566   0.922  0.00  0.00    +0.000 HD
ENDBRANCH   3   9
BRANCH   2  12
ATOM     12  N   UNL     1       0.150   0.144  -0.213  0.00  0.00    +0.000 N 
ATOM     13  H   UNL     1       0.297  -0.771  -0.626  0.00  0.00    +0.000 HD
BRANCH  12  14
ATOM     14  C   UNL     1       1.270   1.052  -0.243  0.00  0.00    +0.000 C 
BRANCH  14  15
ATOM     15  C   UNL     1       2.565   0.277  -0.414  0.00  0.00    +0.000 C 
ATOM     16  C   UNL     1       3.801   1.169  -0.442  0.00  0.00    +0.000 C 
ATOM     17  C   UNL     1       2.864  -0.659   0.752  0.00  0.00    +0.000 C 
ATOM     18  C   UNL     1       4.956   0.213  -0.155  0.00  0.00    +0.000 C 
ATOM     19  C   UNL     1       4.350  -0.969   0.603  0.00  0.00    +0.000 C 
ENDBRANCH  14  15
ENDBRANCH  12  14
ENDBRANCH   2  12
TORSDOF 4
