REMARK  Name = 43372293
REMARK  8 active torsions:
REMARK  status: ('A' for Active; 'I' for Inactive)
REMARK    1  A    between atoms: N_2  and  C_6
REMARK    2  A    between atoms: N_2  and  C_11
REMARK    3  A    between atoms: C_5  and  C_6
REMARK    4  A    between atoms: C_5  and  C_7
REMARK    5  A    between atoms: C_6  and  C_8
REMARK    6  A    between atoms: C_7  and  C_9
REMARK    7  A    between atoms: C_7  and  C_10
REMARK    8  A    between atoms: C_12  and  C_14
REMARK                            x       y       z     vdW  Elec       q    Type
REMARK                         _______ _______ _______ _____ _____    ______ ____
ROOT
ATOM      1  N   UNL     1      -1.116  -1.766  -0.252  0.00  0.00    +0.000 NA
ATOM      2  C   UNL     1      -0.864  -0.477   0.069  0.00  0.00    +0.000 A 
ATOM      3  C   UNL     1      -1.799   0.541  -0.018  0.00  0.00    +0.000 A 
ATOM      4  C   UNL     1      -3.076   0.216  -0.463  0.00  0.00    +0.000 A 
ATOM      5  C   UNL     1      -2.368  -2.044  -0.680  0.00  0.00    +0.000 A 
ATOM      6  C   UNL     1      -3.374  -1.099  -0.802  0.00  0.00    +0.000 A 
ENDROOT
BRANCH   3   9
ATOM      7  O   UNL     1      -1.647   2.343   1.491  0.00  0.00    +0.000 OA
ATOM      8  N   UNL     1      -1.012   2.752  -0.675  0.00  0.00    +0.000 N 
ATOM      9  C   UNL     1      -1.496   1.922   0.332  0.00  0.00    +0.000 C 
ATOM     10  H   UNL     1      -0.874   2.423  -1.625  0.00  0.00    +0.000 HD
ATOM     11  H   UNL     1      -0.778   3.721  -0.485  0.00  0.00    +0.000 HD
ENDBRANCH   3   9
BRANCH   2  12
ATOM     12  N   UNL     1       0.410  -0.161   0.508  0.00  0.00    +0.000 N 
ATOM     13  H   UNL     1       0.508   0.686   1.059  0.00  0.00    +0.000 HD
BRANCH  12  14
ATOM     14  C   UNL     1       1.474  -1.132   0.643  0.00  0.00    +0.000 C 
ATOM     15  C   UNL     1       1.246  -1.940   1.918  0.00  0.00    +0.000 C 
BRANCH  14  16
ATOM     16  C   UNL     1       2.835  -0.420   0.686  0.00  0.00    +0.000 C 
BRANCH  16  17
ATOM     17  C   UNL     1       3.149   0.465  -0.538  0.00  0.00    +0.000 C 
ATOM     18  C   UNL     1       3.146  -0.391  -1.808  0.00  0.00    +0.000 C 
ATOM     19  C   UNL     1       4.490   1.189  -0.409  0.00  0.00    +0.000 C 
ENDBRANCH  16  17
ENDBRANCH  14  16
ENDBRANCH  12  14
ENDBRANCH   2  12
TORSDOF 5
