REMARK  Name = 43420783
REMARK  6 active torsions:
REMARK  status: ('A' for Active; 'I' for Inactive)
REMARK    1  A    between atoms: N_3  and  C_7
REMARK    2  A    between atoms: N_3  and  C_9
REMARK    3  A    between atoms: N_4  and  C_8
REMARK    4  A    between atoms: C_7  and  C_8
REMARK    5  A    between atoms: C_10  and  C_14
REMARK    6  A    between atoms: C_12  and  C_16
REMARK                            x       y       z     vdW  Elec       q    Type
REMARK                         _______ _______ _______ _____ _____    ______ ____
ROOT
ATOM      1  N   UNL     1      -1.421   1.881   0.010  0.00  0.00    +0.000 NA
ATOM      2  C   UNL     1      -1.151   0.571  -0.188  0.00  0.00    +0.000 A 
ATOM      3  C   UNL     1      -2.050  -0.453   0.062  0.00  0.00    +0.000 A 
ATOM      4  C   UNL     1      -3.307  -0.111   0.547  0.00  0.00    +0.000 A 
ATOM      5  C   UNL     1      -3.623   1.225   0.763  0.00  0.00    +0.000 A 
ATOM      6  C   UNL     1      -2.654   2.175   0.482  0.00  0.00    +0.000 A 
ENDROOT
BRANCH   3   9
ATOM      7  O   UNL     1      -1.933  -2.402  -1.256  0.00  0.00    +0.000 OA
ATOM      8  N   UNL     1      -1.163  -2.563   0.898  0.00  0.00    +0.000 N 
ATOM      9  C   UNL     1      -1.727  -1.856  -0.158  0.00  0.00    +0.000 C 
ATOM     10  H   UNL     1      -0.980  -2.131   1.799  0.00  0.00    +0.000 HD
ATOM     11  H   UNL     1      -0.912  -3.541   0.798  0.00  0.00    +0.000 HD
ENDBRANCH   3   9
BRANCH   2  12
ATOM     12  N   UNL     1       0.105   0.238  -0.669  0.00  0.00    +0.000 N 
ATOM     13  H   UNL     1       0.411  -0.720  -0.538  0.00  0.00    +0.000 HD
BRANCH  12  14
ATOM     14  C   UNL     1       1.131   1.209  -0.969  0.00  0.00    +0.000 C 
BRANCH  14  15
ATOM     15  C   UNL     1       2.389   0.514  -1.467  0.00  0.00    +0.000 C 
BRANCH  15  17
ATOM     16  O   UNL     1       4.344   1.115   0.595  0.00  0.00    +0.000 OA
ATOM     17  N   UNL     1       2.935  -0.389  -0.489  0.00  0.00    +0.000 N 
ATOM     18  C   UNL     1       3.870  -0.010   0.463  0.00  0.00    +0.000 C 
ATOM     19  C   UNL     1       4.253  -1.144   1.377  0.00  0.00    +0.000 C 
ATOM     20  H   UNL     1       2.605  -1.350  -0.499  0.00  0.00    +0.000 HD
ENDBRANCH  15  17
ENDBRANCH  14  15
ENDBRANCH  12  14
ENDBRANCH   2  12
TORSDOF 5
