REMARK  Name = 43533557
REMARK  5 active torsions:
REMARK  status: ('A' for Active; 'I' for Inactive)
REMARK    1  A    between atoms: N_2  and  C_8
REMARK    2  A    between atoms: N_2  and  C_10
REMARK    3  A    between atoms: C_5  and  C_8
REMARK    4  A    between atoms: C_8  and  C_9
REMARK    5  A    between atoms: C_11  and  C_13
REMARK                            x       y       z     vdW  Elec       q    Type
REMARK                         _______ _______ _______ _____ _____    ______ ____
ROOT
ATOM      1  N   UNL     1       0.554  -1.793   0.133  0.00  0.00    +0.000 NA
ATOM      2  C   UNL     1       0.553  -0.450  -0.021  0.00  0.00    +0.000 A 
ATOM      3  C   UNL     1       1.688   0.341   0.061  0.00  0.00    +0.000 A 
ATOM      4  C   UNL     1       2.902  -0.287   0.317  0.00  0.00    +0.000 A 
ATOM      5  C   UNL     1       1.752  -2.368   0.380  0.00  0.00    +0.000 A 
ATOM      6  C   UNL     1       2.943  -1.667   0.481  0.00  0.00    +0.000 A 
ENDROOT
BRANCH   3   9
ATOM      7  O   UNL     1       1.497   2.546   0.866  0.00  0.00    +0.000 OA
ATOM      8  N   UNL     1       1.825   2.293  -1.389  0.00  0.00    +0.000 N 
ATOM      9  C   UNL     1       1.655   1.788  -0.105  0.00  0.00    +0.000 C 
ATOM     10  H   UNL     1       1.962   1.689  -2.193  0.00  0.00    +0.000 HD
ATOM     11  H   UNL     1       1.817   3.293  -1.562  0.00  0.00    +0.000 HD
ENDBRANCH   3   9
BRANCH   2  12
ATOM     12  N   UNL     1      -0.659   0.169  -0.272  0.00  0.00    +0.000 N 
ATOM     13  H   UNL     1      -0.625   1.083  -0.712  0.00  0.00    +0.000 HD
BRANCH  12  14
ATOM     14  C   UNL     1      -1.914  -0.544  -0.381  0.00  0.00    +0.000 C 
ATOM     15  C   UNL     1      -2.020  -1.188  -1.733  0.00  0.00    +0.000 C 
BRANCH  14  16
ATOM     16  C   UNL     1      -3.062   0.425  -0.129  0.00  0.00    +0.000 C 
ATOM     17  C   UNL     1      -3.396   0.817   1.280  0.00  0.00    +0.000 C 
ATOM     18  C   UNL     1      -4.321  -0.081   0.512  0.00  0.00    +0.000 C 
ENDBRANCH  14  16
ENDBRANCH  12  14
ENDBRANCH   2  12
TORSDOF 4
