REMARK  Name = 43553707
REMARK  5 active torsions:
REMARK  status: ('A' for Active; 'I' for Inactive)
REMARK    1  A    between atoms: N_3  and  C_7
REMARK    2  A    between atoms: N_3  and  C_9
REMARK    3  A    between atoms: C_7  and  C_8
REMARK    4  A    between atoms: C_8  and  C_12
REMARK    5  A    between atoms: C_10  and  C_14
REMARK                            x       y       z     vdW  Elec       q    Type
REMARK                         _______ _______ _______ _____ _____    ______ ____
ROOT
ATOM      1  N   UNL     1      -0.836   1.803   0.000  0.00  0.00    +0.000 NA
ATOM      2  C   UNL     1      -0.867   0.451  -0.024  0.00  0.00    +0.000 A 
ATOM      3  C   UNL     1      -2.033  -0.298  -0.019  0.00  0.00    +0.000 A 
ATOM      4  C   UNL     1      -3.244   0.383   0.011  0.00  0.00    +0.000 A 
ATOM      5  C   UNL     1      -3.253   1.773   0.036  0.00  0.00    +0.000 A 
ATOM      6  C   UNL     1      -2.033   2.430   0.030  0.00  0.00    +0.000 A 
ENDROOT
BRANCH   3   9
ATOM      7  O   UNL     1      -2.035  -2.384  -1.113  0.00  0.00    +0.000 OA
ATOM      8  N   UNL     1      -2.014  -2.419   1.179  0.00  0.00    +0.000 N 
ATOM      9  C   UNL     1      -2.034  -1.754  -0.042  0.00  0.00    +0.000 C 
ATOM     10  H   UNL     1      -2.005  -1.922   2.064  0.00  0.00    +0.000 HD
ATOM     11  H   UNL     1      -2.007  -3.433   1.222  0.00  0.00    +0.000 HD
ENDBRANCH   3   9
BRANCH   2  12
ATOM     12  N   UNL     1       0.344  -0.221  -0.051  0.00  0.00    +0.000 N 
ATOM     13  H   UNL     1       0.330  -1.185  -0.368  0.00  0.00    +0.000 HD
BRANCH  12  14
ATOM     14  C   UNL     1       1.628   0.441  -0.058  0.00  0.00    +0.000 C 
BRANCH  14  15
ATOM     15  C   UNL     1       2.754  -0.584  -0.024  0.00  0.00    +0.000 C 
BRANCH  15  18
ATOM     16  O   UNL     1       4.347   1.249   0.021  0.00  0.00    +0.000 OA
ATOM     17  N   UNL     1       5.138  -0.909   0.042  0.00  0.00    +0.000 N 
ATOM     18  C   UNL     1       4.138   0.039   0.011  0.00  0.00    +0.000 C 
ATOM     19  H   UNL     1       4.942  -1.905   0.036  0.00  0.00    +0.000 HD
ATOM     20  H   UNL     1       6.115  -0.637   0.071  0.00  0.00    +0.000 HD
ENDBRANCH  15  18
ENDBRANCH  14  15
ENDBRANCH  12  14
ENDBRANCH   2  12
TORSDOF 5
