REMARK  Name = 43598821
REMARK  3 active torsions:
REMARK  status: ('A' for Active; 'I' for Inactive)
REMARK    1  A    between atoms: N_2  and  C_6
REMARK    2  A    between atoms: N_3  and  C_7
REMARK    3  A    between atoms: C_12  and  C_14
REMARK                            x       y       z     vdW  Elec       q    Type
REMARK                         _______ _______ _______ _____ _____    ______ ____
ROOT
ATOM      1  N   UNL     1       1.828   1.169   0.188  0.00  0.00    +0.000 N 
ATOM      2  N   UNL     1      -0.471   1.689  -0.156  0.00  0.00    +0.000 NA
ATOM      3  C   UNL     1       0.472   0.762   0.124  0.00  0.00    +0.000 A 
ATOM      4  C   UNL     1       0.200  -0.576   0.356  0.00  0.00    +0.000 A 
ATOM      5  C   UNL     1      -1.126  -0.990   0.297  0.00  0.00    +0.000 A 
ATOM      6  C   UNL     1      -2.125  -0.066   0.012  0.00  0.00    +0.000 A 
ATOM      7  C   UNL     1      -1.749   1.249  -0.205  0.00  0.00    +0.000 A 
ATOM      8  H   UNL     1       1.990   2.156   0.018  0.00  0.00    +0.000 HD
ENDROOT
BRANCH   6  11
ATOM      9  O   UNL     1      -3.868  -1.644   0.152  0.00  0.00    +0.000 OA
ATOM     10  N   UNL     1      -4.464   0.513  -0.348  0.00  0.00    +0.000 N 
ATOM     11  C   UNL     1      -3.519  -0.468  -0.057  0.00  0.00    +0.000 C 
ATOM     12  H   UNL     1      -4.264   1.489  -0.525  0.00  0.00    +0.000 HD
ATOM     13  H   UNL     1      -5.447   0.261  -0.395  0.00  0.00    +0.000 HD
ENDBRANCH   6  11
BRANCH   1  14
ATOM     14  C   UNL     1       2.930   0.266   0.488  0.00  0.00    +0.000 C 
ATOM     15  C   UNL     1       3.584  -0.549  -0.589  0.00  0.00    +0.000 C 
ATOM     16  C   UNL     1       4.333   0.579   0.058  0.00  0.00    +0.000 C 
BRANCH  15  17
ATOM     17  N   UNL     1       3.975  -1.935  -0.322  0.00  0.00    +0.000 NA
ATOM     18  H   UNL     1       4.715  -2.219  -0.963  0.00  0.00    +0.000 HD
ATOM     19  H   UNL     1       3.191  -2.560  -0.501  0.00  0.00    +0.000 HD
ENDBRANCH  15  17
ENDBRANCH   1  14
TORSDOF 3
