REMARK  Name = 43599315
REMARK  3 active torsions:
REMARK  status: ('A' for Active; 'I' for Inactive)
REMARK    1  A    between atoms: N_2  and  C_6
REMARK    2  A    between atoms: N_3  and  C_7
REMARK    3  A    between atoms: C_13  and  C_15
REMARK                            x       y       z     vdW  Elec       q    Type
REMARK                         _______ _______ _______ _____ _____    ______ ____
ROOT
ATOM      1  N   UNL     1       1.481   0.651   0.378  0.00  0.00    +0.000 N 
ATOM      2  N   UNL     1      -0.699   1.486  -0.023  0.00  0.00    +0.000 NA
ATOM      3  C   UNL     1       0.104   0.431   0.238  0.00  0.00    +0.000 A 
ATOM      4  C   UNL     1      -0.348  -0.872   0.379  0.00  0.00    +0.000 A 
ATOM      5  C   UNL     1      -1.712  -1.106   0.244  0.00  0.00    +0.000 A 
ATOM      6  C   UNL     1      -2.570  -0.045  -0.025  0.00  0.00    +0.000 A 
ATOM      7  C   UNL     1      -2.019   1.220  -0.148  0.00  0.00    +0.000 A 
ATOM      8  H   UNL     1       1.772   1.613   0.237  0.00  0.00    +0.000 HD
ENDROOT
BRANCH   6  11
ATOM      9  O   UNL     1      -4.505  -1.387  -0.044  0.00  0.00    +0.000 OA
ATOM     10  N   UNL     1      -4.797   0.853  -0.439  0.00  0.00    +0.000 N 
ATOM     11  C   UNL     1      -3.999  -0.257  -0.170  0.00  0.00    +0.000 C 
ATOM     12  H   UNL     1      -4.466   1.802  -0.550  0.00  0.00    +0.000 HD
ATOM     13  H   UNL     1      -5.800   0.734  -0.538  0.00  0.00    +0.000 HD
ENDBRANCH   6  11
BRANCH   1  14
ATOM     14  C   UNL     1       2.491  -0.326   0.662  0.00  0.00    +0.000 C 
ATOM     15  C   UNL     1       4.126   0.243  -0.575  0.00  0.00    +0.000 C 
ATOM     16  C   UNL     1       3.868   0.310   0.945  0.00  0.00    +0.000 C 
ATOM     17  C   UNL     1       3.115  -0.922  -0.617  0.00  0.00    +0.000 C 
BRANCH  15  18
ATOM     18  N   UNL     1       5.464  -0.280  -0.807  0.00  0.00    +0.000 NA
ATOM     19  H   UNL     1       6.206   0.380  -0.577  0.00  0.00    +0.000 HD
ATOM     20  H   UNL     1       5.630  -0.563  -1.772  0.00  0.00    +0.000 HD
ENDBRANCH  15  18
ENDBRANCH   1  14
TORSDOF 3
