REMARK  Name = 43599608
REMARK  6 active torsions:
REMARK  status: ('A' for Active; 'I' for Inactive)
REMARK    1  A    between atoms: N_2  and  C_6
REMARK    2  A    between atoms: N_2  and  C_9
REMARK    3  A    between atoms: N_3  and  C_11
REMARK    4  A    between atoms: C_9  and  C_10
REMARK    5  A    between atoms: C_10  and  C_11
REMARK    6  A    between atoms: C_15  and  C_17
REMARK                            x       y       z     vdW  Elec       q    Type
REMARK                         _______ _______ _______ _____ _____    ______ ____
ROOT
ATOM      1  N   UNL     1       0.616  -1.111  -0.569  0.00  0.00    +0.000 N 
ATOM      2  N   UNL     1      -1.319  -0.053  -1.397  0.00  0.00    +0.000 NA
ATOM      3  C   UNL     1      -0.683  -0.667  -0.375  0.00  0.00    +0.000 A 
ATOM      4  C   UNL     1      -1.248  -0.885   0.871  0.00  0.00    +0.000 A 
ATOM      5  C   UNL     1      -2.550  -0.445   1.081  0.00  0.00    +0.000 A 
ATOM      6  C   UNL     1      -3.237   0.191   0.053  0.00  0.00    +0.000 A 
ATOM      7  C   UNL     1      -2.583   0.361  -1.156  0.00  0.00    +0.000 A 
ATOM      8  H   UNL     1       1.009  -0.963  -1.491  0.00  0.00    +0.000 HD
ENDROOT
BRANCH   6  11
ATOM      9  O   UNL     1      -5.187   0.531   1.330  0.00  0.00    +0.000 OA
ATOM     10  N   UNL     1      -5.222   1.292  -0.833  0.00  0.00    +0.000 N 
ATOM     11  C   UNL     1      -4.597   0.664   0.242  0.00  0.00    +0.000 C 
ATOM     12  H   UNL     1      -4.812   1.443  -1.746  0.00  0.00    +0.000 HD
ATOM     13  H   UNL     1      -6.171   1.638  -0.726  0.00  0.00    +0.000 HD
ENDBRANCH   6  11
BRANCH   1  14
ATOM     14  C   UNL     1       1.395  -1.778   0.447  0.00  0.00    +0.000 C 
BRANCH  14  15
ATOM     15  C   UNL     1       2.752  -2.209  -0.109  0.00  0.00    +0.000 C 
BRANCH  15  16
ATOM     16  C   UNL     1       3.645  -1.056  -0.577  0.00  0.00    +0.000 C 
BRANCH  16  17
ATOM     17  N   UNL     1       3.985  -0.152   0.516  0.00  0.00    +0.000 NA
ATOM     18  H   UNL     1       4.415  -0.681   1.274  0.00  0.00    +0.000 HD
BRANCH  17  19
ATOM     19  C   UNL     1       4.898   0.924   0.079  0.00  0.00    +0.000 C 
ATOM     20  C   UNL     1       4.994   2.194   0.873  0.00  0.00    +0.000 C 
ATOM     21  C   UNL     1       4.340   2.201  -0.478  0.00  0.00    +0.000 C 
ENDBRANCH  17  19
ENDBRANCH  16  17
ENDBRANCH  15  16
ENDBRANCH  14  15
ENDBRANCH   1  14
TORSDOF 6
