REMARK  Name = 43598820
REMARK  4 active torsions:
REMARK  status: ('A' for Active; 'I' for Inactive)
REMARK    1  A    between atoms: N_2  and  C_6
REMARK    2  A    between atoms: N_2  and  C_9
REMARK    3  A    between atoms: N_3  and  C_7
REMARK    4  A    between atoms: C_10  and  C_12
REMARK                            x       y       z     vdW  Elec       q    Type
REMARK                         _______ _______ _______ _____ _____    ______ ____
ROOT
ATOM      1  N   UNL     1       0.160   1.600  -0.255  0.00  0.00    +0.000 NA
ATOM      2  C   UNL     1      -0.245   0.312  -0.198  0.00  0.00    +0.000 A 
ATOM      3  C   UNL     1      -1.557  -0.081   0.014  0.00  0.00    +0.000 A 
ATOM      4  C   UNL     1      -2.515   0.913   0.177  0.00  0.00    +0.000 A 
ATOM      5  C   UNL     1      -0.800   2.539  -0.092  0.00  0.00    +0.000 A 
ATOM      6  C   UNL     1      -2.138   2.251   0.124  0.00  0.00    +0.000 A 
ENDROOT
BRANCH   3   9
ATOM      7  O   UNL     1      -2.299  -2.098  -0.948  0.00  0.00    +0.000 OA
ATOM      8  N   UNL     1      -1.940  -2.104   1.317  0.00  0.00    +0.000 N 
ATOM      9  C   UNL     1      -1.962  -1.478   0.074  0.00  0.00    +0.000 C 
ATOM     10  H   UNL     1      -1.660  -1.615   2.161  0.00  0.00    +0.000 HD
ATOM     11  H   UNL     1      -2.207  -3.078   1.415  0.00  0.00    +0.000 HD
ENDBRANCH   3   9
BRANCH   2  12
ATOM     12  N   UNL     1       0.738  -0.696  -0.362  0.00  0.00    +0.000 N 
ATOM     13  H   UNL     1       0.386  -1.615  -0.612  0.00  0.00    +0.000 HD
BRANCH  12  14
ATOM     14  C   UNL     1       2.149  -0.419  -0.591  0.00  0.00    +0.000 C 
ATOM     15  C   UNL     1       3.088  -0.172   0.553  0.00  0.00    +0.000 C 
ATOM     16  C   UNL     1       3.205  -1.431  -0.256  0.00  0.00    +0.000 C 
BRANCH  15  17
ATOM     17  N   UNL     1       4.117   0.865   0.443  0.00  0.00    +0.000 NA
ATOM     18  H   UNL     1       4.883   0.666   1.084  0.00  0.00    +0.000 HD
ATOM     19  H   UNL     1       3.736   1.766   0.730  0.00  0.00    +0.000 HD
ENDBRANCH  15  17
ENDBRANCH  12  14
ENDBRANCH   2  12
TORSDOF 4
