REMARK  Name = 43599607
REMARK  7 active torsions:
REMARK  status: ('A' for Active; 'I' for Inactive)
REMARK    1  A    between atoms: N_2  and  C_6
REMARK    2  A    between atoms: N_2  and  C_9
REMARK    3  A    between atoms: N_3  and  C_11
REMARK    4  A    between atoms: N_3  and  C_12
REMARK    5  A    between atoms: C_9  and  C_10
REMARK    6  A    between atoms: C_10  and  C_11
REMARK    7  A    between atoms: C_13  and  C_15
REMARK                            x       y       z     vdW  Elec       q    Type
REMARK                         _______ _______ _______ _____ _____    ______ ____
ROOT
ATOM      1  N   UNL     1       1.763   1.726  -0.662  0.00  0.00    +0.000 NA
ATOM      2  C   UNL     1       1.382   0.643   0.052  0.00  0.00    +0.000 A 
ATOM      3  C   UNL     1       2.068  -0.560   0.060  0.00  0.00    +0.000 A 
ATOM      4  C   UNL     1       3.220  -0.659  -0.714  0.00  0.00    +0.000 A 
ATOM      5  C   UNL     1       2.886   1.593  -1.402  0.00  0.00    +0.000 A 
ATOM      6  C   UNL     1       3.643   0.434  -1.461  0.00  0.00    +0.000 A 
ENDROOT
BRANCH   3   9
ATOM      7  O   UNL     1       2.006  -1.880   2.010  0.00  0.00    +0.000 OA
ATOM      8  N   UNL     1       0.763  -2.611   0.227  0.00  0.00    +0.000 N 
ATOM      9  C   UNL     1       1.631  -1.712   0.837  0.00  0.00    +0.000 C 
ATOM     10  H   UNL     1       0.439  -2.485  -0.727  0.00  0.00    +0.000 HD
ATOM     11  H   UNL     1       0.421  -3.426   0.725  0.00  0.00    +0.000 HD
ENDBRANCH   3   9
BRANCH   2  12
ATOM     12  N   UNL     1       0.232   0.748   0.818  0.00  0.00    +0.000 N 
ATOM     13  H   UNL     1       0.144   0.096   1.591  0.00  0.00    +0.000 HD
BRANCH  12  14
ATOM     14  C   UNL     1      -0.573   1.943   0.897  0.00  0.00    +0.000 C 
BRANCH  14  15
ATOM     15  C   UNL     1      -1.811   1.705   1.761  0.00  0.00    +0.000 C 
BRANCH  15  16
ATOM     16  C   UNL     1      -2.711   0.561   1.283  0.00  0.00    +0.000 C 
BRANCH  16  17
ATOM     17  N   UNL     1      -3.179   0.769  -0.082  0.00  0.00    +0.000 NA
ATOM     18  H   UNL     1      -3.715   1.635  -0.135  0.00  0.00    +0.000 HD
BRANCH  17  19
ATOM     19  C   UNL     1      -3.995  -0.363  -0.566  0.00  0.00    +0.000 C 
ATOM     20  C   UNL     1      -3.327  -1.623  -1.034  0.00  0.00    +0.000 C 
ATOM     21  C   UNL     1      -3.998  -0.716  -2.025  0.00  0.00    +0.000 C 
ENDBRANCH  17  19
ENDBRANCH  16  17
ENDBRANCH  15  16
ENDBRANCH  14  15
ENDBRANCH  12  14
ENDBRANCH   2  12
TORSDOF 7
