REMARK  Name = 43599314
REMARK  4 active torsions:
REMARK  status: ('A' for Active; 'I' for Inactive)
REMARK    1  A    between atoms: N_2  and  C_6
REMARK    2  A    between atoms: N_2  and  C_10
REMARK    3  A    between atoms: N_3  and  C_7
REMARK    4  A    between atoms: C_11  and  C_13
REMARK                            x       y       z     vdW  Elec       q    Type
REMARK                         _______ _______ _______ _____ _____    ______ ____
ROOT
ATOM      1  N   UNL     1      -0.375  -1.730   0.173  0.00  0.00    +0.000 NA
ATOM      2  C   UNL     1      -0.586  -0.395   0.157  0.00  0.00    +0.000 A 
ATOM      3  C   UNL     1      -1.833   0.192   0.015  0.00  0.00    +0.000 A 
ATOM      4  C   UNL     1      -2.935  -0.646  -0.119  0.00  0.00    +0.000 A 
ATOM      5  C   UNL     1      -1.470  -2.513   0.041  0.00  0.00    +0.000 A 
ATOM      6  C   UNL     1      -2.758  -2.025  -0.107  0.00  0.00    +0.000 A 
ENDROOT
BRANCH   3   9
ATOM      7  O   UNL     1      -2.224   2.273   1.046  0.00  0.00    +0.000 OA
ATOM      8  N   UNL     1      -1.970   2.280  -1.233  0.00  0.00    +0.000 N 
ATOM      9  C   UNL     1      -2.029   1.635  -0.002  0.00  0.00    +0.000 C 
ATOM     10  H   UNL     1      -1.804   1.776  -2.099  0.00  0.00    +0.000 HD
ATOM     11  H   UNL     1      -2.093   3.284  -1.302  0.00  0.00    +0.000 HD
ENDBRANCH   3   9
BRANCH   2  12
ATOM     12  N   UNL     1       0.530   0.443   0.290  0.00  0.00    +0.000 N 
ATOM     13  H   UNL     1       0.321   1.376   0.636  0.00  0.00    +0.000 HD
BRANCH  12  14
ATOM     14  C   UNL     1       1.898   0.048   0.447  0.00  0.00    +0.000 C 
ATOM     15  C   UNL     1       3.776   0.260  -0.529  0.00  0.00    +0.000 C 
ATOM     16  C   UNL     1       2.880   1.225   0.274  0.00  0.00    +0.000 C 
ATOM     17  C   UNL     1       2.497  -0.541  -0.848  0.00  0.00    +0.000 C 
BRANCH  15  18
ATOM     18  N   UNL     1       4.599  -0.505   0.395  0.00  0.00    +0.000 NA
ATOM     19  H   UNL     1       5.346   0.040   0.825  0.00  0.00    +0.000 HD
ATOM     20  H   UNL     1       5.053  -1.312  -0.033  0.00  0.00    +0.000 HD
ENDBRANCH  15  18
ENDBRANCH  12  14
ENDBRANCH   2  12
TORSDOF 4
