REMARK  Name = 44122614
REMARK  2 active torsions:
REMARK  status: ('A' for Active; 'I' for Inactive)
REMARK    1  A    between atoms: N_4  and  C_9
REMARK    2  A    between atoms: C_6  and  C_11
REMARK                            x       y       z     vdW  Elec       q    Type
REMARK                         _______ _______ _______ _____ _____    ______ ____
ROOT
ATOM      1 BR   UNL     1       2.606  -2.138  -0.002  0.00  0.00    +0.000 Br
ATOM      2  N   UNL     1       0.873   1.660   0.002  0.00  0.00    +0.000 NA
ATOM      3  C   UNL     1      -0.921   0.039  -0.002  0.00  0.00    +0.000 A 
ATOM      4  C   UNL     1       0.005  -0.998  -0.003  0.00  0.00    +0.000 A 
ATOM      5  C   UNL     1       1.365  -0.707  -0.001  0.00  0.00    +0.000 A 
ATOM      6  C   UNL     1       1.744   0.626   0.001  0.00  0.00    +0.000 A 
ATOM      7  C   UNL     1      -0.441   1.339   0.000  0.00  0.00    +0.000 A 
ENDROOT
BRANCH   3  10
ATOM      8  O   UNL     1      -2.790  -1.395   0.010  0.00  0.00    +0.000 OA
ATOM      9  N   UNL     1      -3.216   0.859  -0.003  0.00  0.00    +0.000 N 
ATOM     10  C   UNL     1      -2.348  -0.231  -0.004  0.00  0.00    +0.000 C 
ATOM     11  H   UNL     1      -2.938   1.832  -0.010  0.00  0.00    +0.000 HD
ATOM     12  H   UNL     1      -4.218   0.698   0.002  0.00  0.00    +0.000 HD
ENDBRANCH   3  10
BRANCH   6  13
ATOM     13  N   UNL     1       3.124   0.946   0.003  0.00  0.00    +0.000 N 
ATOM     14  H   UNL     1       3.769   0.282   0.413  0.00  0.00    +0.000 HD
ATOM     15  H   UNL     1       3.370   1.928   0.014  0.00  0.00    +0.000 HD
ENDBRANCH   6  13
TORSDOF 2
