REMARK  Name = 44180375
REMARK  3 active torsions:
REMARK  status: ('A' for Active; 'I' for Inactive)
REMARK    1  A    between atoms: N_4  and  C_12
REMARK    2  A    between atoms: C_6  and  C_7
REMARK    3  A    between atoms: C_7  and  C_12
REMARK                            x       y       z     vdW  Elec       q    Type
REMARK                         _______ _______ _______ _____ _____    ______ ____
ROOT
ATOM      1  O   UNL     1      -0.678   2.603   0.024  0.00  0.00    +0.000 OA
ATOM      2  N   UNL     1       1.093   1.189   0.303  0.00  0.00    +0.000 N 
ATOM      3  N   UNL     1      -3.345  -0.666  -0.242  0.00  0.00    +0.000 NA
ATOM      4  N   UNL     1      -3.106   1.664  -0.276  0.00  0.00    +0.000 N 
ATOM      5  C   UNL     1       1.633  -0.076   0.412  0.00  0.00    +0.000 A 
ATOM      6  C   UNL     1      -0.586  -1.014   0.139  0.00  0.00    +0.000 A 
ATOM      7  C   UNL     1      -1.137   0.267   0.028  0.00  0.00    +0.000 A 
ATOM      8  C   UNL     1       0.855  -1.167   0.338  0.00  0.00    +0.000 A 
ATOM      9  C   UNL     1      -0.256   1.455   0.114  0.00  0.00    +0.000 A 
ATOM     10  C   UNL     1      -2.506   0.390  -0.159  0.00  0.00    +0.000 A 
ATOM     11  C   UNL     1      -1.429  -2.120   0.057  0.00  0.00    +0.000 A 
ATOM     12  C   UNL     1      -2.785  -1.893  -0.132  0.00  0.00    +0.000 A 
ATOM     13  H   UNL     1       1.729   1.979   0.364  0.00  0.00    +0.000 HD
ATOM     14  H   UNL     1      -2.692   2.442   0.222  0.00  0.00    +0.000 HD
ATOM     15  H   UNL     1      -4.109   1.681  -0.419  0.00  0.00    +0.000 HD
ENDROOT
BRANCH   5  16
ATOM     16  C   UNL     1       3.115  -0.146   0.614  0.00  0.00    +0.000 C 
BRANCH  16  17
ATOM     17  C   UNL     1       3.846  -0.212  -0.720  0.00  0.00    +0.000 C 
BRANCH  17  18
ATOM     18  N   UNL     1       5.287  -0.273  -0.498  0.00  0.00    +0.000 NA
ATOM     19  H   UNL     1       5.763  -0.365  -1.394  0.00  0.00    +0.000 HD
ATOM     20  H   UNL     1       5.517  -1.111   0.035  0.00  0.00    +0.000 HD
ENDBRANCH  17  18
ENDBRANCH  16  17
ENDBRANCH   5  16
TORSDOF 3
