REMARK  Name = 44769660
REMARK  5 active torsions:
REMARK  status: ('A' for Active; 'I' for Inactive)
REMARK    1  A    between atoms: N_2  and  C_5
REMARK    2  A    between atoms: N_4  and  C_14
REMARK    3  A    between atoms: C_5  and  C_6
REMARK    4  A    between atoms: C_6  and  C_8
REMARK    5  A    between atoms: C_10  and  C_13
REMARK                            x       y       z     vdW  Elec       q    Type
REMARK                         _______ _______ _______ _____ _____    ______ ____
ROOT
ATOM      1  N   UNL     1       2.456   0.711  -0.110  0.00  0.00    +0.000 N 
ATOM      2  N   UNL     1       0.226   1.457  -0.257  0.00  0.00    +0.000 NA
ATOM      3  C   UNL     1       1.098   0.435  -0.103  0.00  0.00    +0.000 A 
ATOM      4  C   UNL     1       0.720  -0.887   0.065  0.00  0.00    +0.000 A 
ATOM      5  C   UNL     1      -1.566  -0.156  -0.081  0.00  0.00    +0.000 A 
ATOM      6  C   UNL     1      -0.639  -1.180   0.074  0.00  0.00    +0.000 A 
ATOM      7  C   UNL     1      -1.087   1.134  -0.242  0.00  0.00    +0.000 A 
ATOM      8  H   UNL     1       2.724   1.681  -0.236  0.00  0.00    +0.000 HD
ENDROOT
BRANCH   5  11
ATOM      9  O   UNL     1      -3.425  -1.548  -0.407  0.00  0.00    +0.000 OA
ATOM     10  N   UNL     1      -3.838   0.607   0.343  0.00  0.00    +0.000 N 
ATOM     11  C   UNL     1      -2.993  -0.429  -0.074  0.00  0.00    +0.000 C 
ATOM     12  C   UNL     1      -5.276   0.482   0.427  0.00  0.00    +0.000 C 
ATOM     13  H   UNL     1      -3.442   1.476   0.684  0.00  0.00    +0.000 HD
ENDBRANCH   5  11
BRANCH   1  14
ATOM     14  C   UNL     1       3.479  -0.294   0.046  0.00  0.00    +0.000 C 
BRANCH  14  15
ATOM     15  C   UNL     1       4.865   0.342   0.055  0.00  0.00    +0.000 C 
ATOM     16  C   UNL     1       5.980  -0.674   0.263  0.00  0.00    +0.000 C 
ENDBRANCH  14  15
ENDBRANCH   1  14
TORSDOF 3
