REMARK  Name = 44764063
REMARK  9 active torsions:
REMARK  status: ('A' for Active; 'I' for Inactive)
REMARK    1  A    between atoms: N_2  and  C_7
REMARK    2  A    between atoms: N_3  and  C_9
REMARK    3  A    between atoms: C_5  and  C_6
REMARK    4  A    between atoms: C_5  and  C_7
REMARK    5  A    between atoms: C_6  and  C_8
REMARK    6  A    between atoms: C_8  and  C_10
REMARK    7  A    between atoms: C_9  and  C_14
REMARK    8  A    between atoms: C_9  and  C_15
REMARK    9  A    between atoms: C_11  and  C_12
REMARK                            x       y       z     vdW  Elec       q    Type
REMARK                         _______ _______ _______ _____ _____    ______ ____
ROOT
ATOM      1  N   UNL     1       4.066  -0.024   0.073  0.00  0.00    +0.000 N 
ATOM      2  N   UNL     1       1.767  -0.508  -0.321  0.00  0.00    +0.000 NA
ATOM      3  C   UNL     1       0.105   1.199   0.087  0.00  0.00    +0.000 A 
ATOM      4  C   UNL     1       2.708   0.379   0.073  0.00  0.00    +0.000 A 
ATOM      5  C   UNL     1       1.101   2.084   0.485  0.00  0.00    +0.000 A 
ATOM      6  C   UNL     1       2.430   1.674   0.481  0.00  0.00    +0.000 A 
ATOM      7  C   UNL     1       0.487  -0.074  -0.304  0.00  0.00    +0.000 A 
ATOM      8  H   UNL     1       4.688   0.517   0.668  0.00  0.00    +0.000 HD
ENDROOT
BRANCH   3  11
ATOM      9  O   UNL     1      -1.697   2.498   0.840  0.00  0.00    +0.000 OA
ATOM     10  N   UNL     1      -2.144   0.946  -0.826  0.00  0.00    +0.000 N 
ATOM     11  C   UNL     1      -1.323   1.607   0.081  0.00  0.00    +0.000 C 
ATOM     12  H   UNL     1      -1.757   0.256  -1.462  0.00  0.00    +0.000 HD
BRANCH  10  13
ATOM     13  C   UNL     1      -3.543   1.245  -0.968  0.00  0.00    +0.000 C 
BRANCH  13  14
ATOM     14  C   UNL     1      -4.396   0.392  -0.037  0.00  0.00    +0.000 C 
BRANCH  14  15
ATOM     15  C   UNL     1      -4.221  -1.098  -0.331  0.00  0.00    +0.000 C 
BRANCH  15  16
ATOM     16  C   UNL     1      -5.105  -1.952   0.577  0.00  0.00    +0.000 C 
ATOM     17  C   UNL     1      -4.909  -3.436   0.311  0.00  0.00    +0.000 C 
ENDBRANCH  15  16
ENDBRANCH  14  15
ENDBRANCH  13  14
ENDBRANCH  10  13
ENDBRANCH   3  11
BRANCH   1  18
ATOM     18  C   UNL     1       4.483  -1.329  -0.324  0.00  0.00    +0.000 C 
ATOM     19  C   UNL     1       5.955  -1.296  -0.714  0.00  0.00    +0.000 C 
ATOM     20  C   UNL     1       4.232  -2.305   0.817  0.00  0.00    +0.000 C 
ENDBRANCH   1  18
TORSDOF 6
