REMARK  Name = 44764071
REMARK  10 active torsions:
REMARK  status: ('A' for Active; 'I' for Inactive)
REMARK    1  A    between atoms: N_2  and  C_7
REMARK    2  A    between atoms: N_3  and  C_13
REMARK    3  A    between atoms: C_5  and  C_6
REMARK    4  A    between atoms: C_5  and  C_7
REMARK    5  A    between atoms: C_6  and  C_8
REMARK    6  A    between atoms: C_6  and  C_9
REMARK    7  A    between atoms: C_7  and  C_10
REMARK    8  A    between atoms: C_11  and  C_12
REMARK    9  A    between atoms: C_13  and  C_18
REMARK   10  A    between atoms: C_13  and  C_19
REMARK                            x       y       z     vdW  Elec       q    Type
REMARK                         _______ _______ _______ _____ _____    ______ ____
ROOT
ATOM      1  N   UNL     1       4.123   0.315  -0.763  0.00  0.00    +0.000 N 
ATOM      2  N   UNL     1       2.495  -0.328   0.854  0.00  0.00    +0.000 NA
ATOM      3  C   UNL     1       0.220  -0.743   0.150  0.00  0.00    +0.000 A 
ATOM      4  C   UNL     1       2.793  -0.048  -0.435  0.00  0.00    +0.000 A 
ATOM      5  C   UNL     1       0.565  -0.449  -1.164  0.00  0.00    +0.000 A 
ATOM      6  C   UNL     1       1.213  -0.669   1.114  0.00  0.00    +0.000 A 
ATOM      7  C   UNL     1       1.874  -0.094  -1.470  0.00  0.00    +0.000 A 
ATOM      8  H   UNL     1       4.240   0.827  -1.632  0.00  0.00    +0.000 HD
ENDROOT
BRANCH   3  11
ATOM      9  O   UNL     1      -1.362  -1.820   1.505  0.00  0.00    +0.000 OA
ATOM     10  N   UNL     1      -2.167  -0.634  -0.318  0.00  0.00    +0.000 N 
ATOM     11  C   UNL     1      -1.170  -1.126   0.510  0.00  0.00    +0.000 C 
ATOM     12  H   UNL     1      -1.934  -0.062  -1.123  0.00  0.00    +0.000 HD
BRANCH  10  13
ATOM     13  C   UNL     1      -3.567  -0.897  -0.086  0.00  0.00    +0.000 C 
ATOM     14  C   UNL     1      -3.958  -2.216  -0.748  0.00  0.00    +0.000 C 
BRANCH  13  15
ATOM     15  C   UNL     1      -4.448   0.251  -0.605  0.00  0.00    +0.000 C 
BRANCH  15  16
ATOM     16  C   UNL     1      -4.096   1.647  -0.046  0.00  0.00    +0.000 C 
ATOM     17  C   UNL     1      -4.217   1.715   1.477  0.00  0.00    +0.000 C 
ATOM     18  C   UNL     1      -5.006   2.701  -0.683  0.00  0.00    +0.000 C 
ENDBRANCH  15  16
ENDBRANCH  13  15
ENDBRANCH  10  13
ENDBRANCH   3  11
BRANCH   1  19
ATOM     19  C   UNL     1       5.162   0.398   0.212  0.00  0.00    +0.000 C 
ATOM     20  C   UNL     1       6.516   0.288  -0.477  0.00  0.00    +0.000 C 
ATOM     21  C   UNL     1       5.032   1.710   0.973  0.00  0.00    +0.000 C 
ENDBRANCH   1  19
TORSDOF 5
