REMARK  Name = 44769615
REMARK  6 active torsions:
REMARK  status: ('A' for Active; 'I' for Inactive)
REMARK    1  A    between atoms: N_2  and  C_5
REMARK    2  A    between atoms: N_2  and  C_6
REMARK    3  A    between atoms: N_4  and  C_14
REMARK    4  A    between atoms: C_5  and  C_7
REMARK    5  A    between atoms: C_5  and  C_8
REMARK    6  A    between atoms: C_9  and  C_11
REMARK                            x       y       z     vdW  Elec       q    Type
REMARK                         _______ _______ _______ _____ _____    ______ ____
ROOT
ATOM      1  N   UNL     1       1.101   1.678  -0.307  0.00  0.00    +0.000 NA
ATOM      2  C   UNL     1       0.396   0.547  -0.080  0.00  0.00    +0.000 A 
ATOM      3  C   UNL     1      -0.980   0.508   0.076  0.00  0.00    +0.000 A 
ATOM      4  C   UNL     1      -1.679   1.708  -0.007  0.00  0.00    +0.000 A 
ATOM      5  C   UNL     1      -0.989   2.893  -0.240  0.00  0.00    +0.000 A 
ATOM      6  C   UNL     1       0.388   2.824  -0.382  0.00  0.00    +0.000 A 
ENDROOT
BRANCH   3   9
ATOM      7  O   UNL     1      -2.401  -0.855   1.349  0.00  0.00    +0.000 OA
ATOM      8  N   UNL     1      -1.613  -1.726  -0.650  0.00  0.00    +0.000 N 
ATOM      9  C   UNL     1      -1.712  -0.727   0.323  0.00  0.00    +0.000 C 
ATOM     10  C   UNL     1      -2.298  -2.996  -0.561  0.00  0.00    +0.000 C 
ATOM     11  H   UNL     1      -1.021  -1.568  -1.460  0.00  0.00    +0.000 HD
ENDBRANCH   3   9
BRANCH   2  12
ATOM     12  N   UNL     1       1.099  -0.645   0.004  0.00  0.00    +0.000 N 
ATOM     13  H   UNL     1       0.647  -1.411   0.493  0.00  0.00    +0.000 HD
BRANCH  12  14
ATOM     14  C   UNL     1       2.531  -0.742  -0.139  0.00  0.00    +0.000 C 
ATOM     15  C   UNL     1       2.929  -2.161  -0.527  0.00  0.00    +0.000 C 
ATOM     16  C   UNL     1       3.228  -0.305   1.143  0.00  0.00    +0.000 C 
ENDBRANCH  12  14
ENDBRANCH   2  12
TORSDOF 3
