REMARK  Name = 45079619
REMARK  0 active torsions:
REMARK  status: ('A' for Active; 'I' for Inactive)
REMARK                            x       y       z     vdW  Elec       q    Type
REMARK                         _______ _______ _______ _____ _____    ______ ____
ROOT
ATOM      1  O   UNL     1       2.752  -0.639   0.000  0.00  0.00    +0.000 OA
ATOM      2  N   UNL     1       1.259   1.243   0.000  0.00  0.00    +0.000 N 
ATOM      3  N   UNL     1      -1.279   1.321   0.000  0.00  0.00    +0.000 NA
ATOM      4  C   UNL     1       0.328  -0.481  -0.000  0.00  0.00    +0.000 A 
ATOM      5  C   UNL     1      -0.049   0.830  -0.000  0.00  0.00    +0.000 A 
ATOM      6  C   UNL     1       1.702  -0.058   0.000  0.00  0.00    +0.000 C 
ATOM      7  C   UNL     1      -0.586  -1.485   0.000  0.00  0.00    +0.000 A 
ATOM      8  C   UNL     1      -1.918  -1.058   0.000  0.00  0.00    +0.000 A 
ATOM      9  C   UNL     1      -2.208   0.326   0.000  0.00  0.00    +0.000 A 
ATOM     10  H   UNL     1       1.694   2.154   0.000  0.00  0.00    +0.000 HD
ENDROOT
TORSDOF 0
