REMARK  Name = 45079607
REMARK  2 active torsions:
REMARK  status: ('A' for Active; 'I' for Inactive)
REMARK    1  A    between atoms: N_3  and  C_6
REMARK    2  A    between atoms: C_5  and  C_10
REMARK                            x       y       z     vdW  Elec       q    Type
REMARK                         _______ _______ _______ _____ _____    ______ ____
ROOT
ATOM      1  N   UNL     1       0.239   1.435  -0.001  0.00  0.00    +0.000 NA
ATOM      2  C   UNL     1      -1.023  -0.627   0.001  0.00  0.00    +0.000 A 
ATOM      3  C   UNL     1       0.165   0.085   0.000  0.00  0.00    +0.000 A 
ATOM      4  C   UNL     1      -2.213   0.092   0.001  0.00  0.00    +0.000 A 
ATOM      5  C   UNL     1      -2.178   1.482   0.000  0.00  0.00    +0.000 A 
ATOM      6  C   UNL     1      -0.938   2.100  -0.001  0.00  0.00    +0.000 A 
ENDROOT
BRANCH   3   8
ATOM      7  O   UNL     1       3.043   1.046  -0.001  0.00  0.00    +0.000 OA
ATOM      8  N   UNL     1       1.373  -0.628   0.001  0.00  0.00    +0.000 N 
ATOM      9  C   UNL     1       2.662  -0.116   0.001  0.00  0.00    +0.000 C 
ATOM     10  H   UNL     1       1.315  -1.641   0.002  0.00  0.00    +0.000 HD
ENDBRANCH   3   8
BRANCH   2  12
ATOM     11  O   UNL     1      -0.059  -2.787  -0.001  0.00  0.00    +0.000 OA
ATOM     12  C   UNL     1      -1.070  -2.083  -0.000  0.00  0.00    +0.000 C 
ENDBRANCH   2  12
TORSDOF 2
