REMARK  Name = 45081094
REMARK  2 active torsions:
REMARK  status: ('A' for Active; 'I' for Inactive)
REMARK    1  A    between atoms: C_5  and  C_7
REMARK    2  A    between atoms: C_7  and  C_11
REMARK                            x       y       z     vdW  Elec       q    Type
REMARK                         _______ _______ _______ _____ _____    ______ ____
ROOT
ATOM      1  N   UNL     1       1.720   1.271  -0.006  0.00  0.00    +0.000 NA
ATOM      2  N   UNL     1       3.895   0.298   0.013  0.00  0.00    +0.000 N 
ATOM      3  C   UNL     1      -0.224  -0.165  -0.007  0.00  0.00    +0.000 A 
ATOM      4  C   UNL     1       0.596  -1.288   0.005  0.00  0.00    +0.000 A 
ATOM      5  C   UNL     1       0.382   1.081  -0.012  0.00  0.00    +0.000 A 
ATOM      6  C   UNL     1       1.977  -1.133   0.012  0.00  0.00    +0.000 A 
ATOM      7  C   UNL     1       2.485   0.156   0.006  0.00  0.00    +0.000 A 
ATOM      8  H   UNL     1       4.451  -0.433   0.440  0.00  0.00    +0.000 HD
ATOM      9  H   UNL     1       4.262   1.241   0.015  0.00  0.00    +0.000 HD
ENDROOT
BRANCH   3  11
ATOM     10  O   UNL     1      -2.201  -1.424  -0.022  0.00  0.00    +0.000 OA
ATOM     11  C   UNL     1      -1.671  -0.294  -0.014  0.00  0.00    +0.000 C 
BRANCH  11  13
ATOM     12 BR   UNL     1      -4.425   0.530   0.051  0.00  0.00    +0.000 Br
ATOM     13  C   UNL     1      -2.534   0.970  -0.028  0.00  0.00    +0.000 C 
ENDBRANCH  11  13
ENDBRANCH   3  11
TORSDOF 2
