REMARK  Name = 45084631
REMARK  3 active torsions:
REMARK  status: ('A' for Active; 'I' for Inactive)
REMARK    1  A    between atoms: N_3  and  C_7
REMARK    2  A    between atoms: C_6  and  C_10
REMARK    3  A    between atoms: C_9  and  C_12
REMARK                            x       y       z     vdW  Elec       q    Type
REMARK                         _______ _______ _______ _____ _____    ______ ____
ROOT
ATOM      1  N   UNL     1      -0.286   1.999  -0.017  0.00  0.00    +0.000 NA
ATOM      2  C   UNL     1       0.783  -0.170   0.022  0.00  0.00    +0.000 A 
ATOM      3  C   UNL     1       0.816   1.215   0.003  0.00  0.00    +0.000 A 
ATOM      4  C   UNL     1      -0.461  -0.791   0.020  0.00  0.00    +0.000 A 
ATOM      5  C   UNL     1      -1.617  -0.019   0.000  0.00  0.00    +0.000 A 
ATOM      6  C   UNL     1      -1.477   1.359  -0.018  0.00  0.00    +0.000 A 
ENDROOT
BRANCH   2   9
ATOM      7  O   UNL     1       2.504  -1.345   1.119  0.00  0.00    +0.000 OA
ATOM      8  N   UNL     1       2.534  -1.369  -1.174  0.00  0.00    +0.000 N 
ATOM      9  C   UNL     1       1.988  -0.987   0.047  0.00  0.00    +0.000 C 
ATOM     10  H   UNL     1       2.123  -1.091  -2.059  0.00  0.00    +0.000 HD
ATOM     11  H   UNL     1       3.370  -1.943  -1.215  0.00  0.00    +0.000 HD
ENDBRANCH   2   9
BRANCH   3  12
ATOM     12  N   UNL     1       2.081   1.855   0.005  0.00  0.00    +0.000 N 
ATOM     13  H   UNL     1       2.854   1.400   0.473  0.00  0.00    +0.000 HD
ATOM     14  H   UNL     1       2.074   2.868  -0.013  0.00  0.00    +0.000 HD
ENDBRANCH   3  12
BRANCH   5  16
ATOM     15  N   UNL     1      -3.958  -1.122  -0.005  0.00  0.00    +0.000 NA
ATOM     16  C   UNL     1      -2.908  -0.627  -0.003  0.00  0.00    +0.000 C 
ENDBRANCH   5  16
TORSDOF 3
