REMARK  Name = 47080109
REMARK  10 active torsions:
REMARK  status: ('A' for Active; 'I' for Inactive)
REMARK    1  A    between atoms: N_2  and  C_5
REMARK    2  A    between atoms: N_3  and  C_12
REMARK    3  A    between atoms: N_3  and  C_13
REMARK    4  A    between atoms: C_5  and  C_6
REMARK    5  A    between atoms: C_5  and  C_8
REMARK    6  A    between atoms: C_6  and  C_7
REMARK    7  A    between atoms: C_7  and  C_9
REMARK    8  A    between atoms: C_10  and  C_14
REMARK    9  A    between atoms: C_12  and  C_18
REMARK   10  A    between atoms: C_13  and  C_19
REMARK                            x       y       z     vdW  Elec       q    Type
REMARK                         _______ _______ _______ _____ _____    ______ ____
ROOT
ATOM      1  N   UNL     1       3.790   0.358  -0.135  0.00  0.00    +0.000 N 
ATOM      2  N   UNL     1       2.044  -0.618   1.160  0.00  0.00    +0.000 NA
ATOM      3  C   UNL     1       2.432  -0.018   0.012  0.00  0.00    +0.000 A 
ATOM      4  C   UNL     1      -0.193  -0.725   0.250  0.00  0.00    +0.000 A 
ATOM      5  C   UNL     1       1.579   0.258  -1.045  0.00  0.00    +0.000 A 
ATOM      6  C   UNL     1       0.243  -0.105  -0.916  0.00  0.00    +0.000 A 
ATOM      7  C   UNL     1       0.739  -0.957   1.249  0.00  0.00    +0.000 A 
ENDROOT
BRANCH   4  10
ATOM      8  O   UNL     1      -1.890  -2.050   1.178  0.00  0.00    +0.000 OA
ATOM      9  N   UNL     1      -2.541  -0.384  -0.298  0.00  0.00    +0.000 N 
ATOM     10  C   UNL     1      -1.614  -1.125   0.419  0.00  0.00    +0.000 C 
ATOM     11  H   UNL     1      -2.240   0.370  -0.905  0.00  0.00    +0.000 HD
BRANCH   9  12
ATOM     12  C   UNL     1      -3.961  -0.635  -0.220  0.00  0.00    +0.000 C 
ATOM     13  C   UNL     1      -4.352  -1.696  -1.244  0.00  0.00    +0.000 C 
BRANCH  12  14
ATOM     14  C   UNL     1      -4.769   0.653  -0.432  0.00  0.00    +0.000 C 
BRANCH  14  15
ATOM     15  C   UNL     1      -4.392   1.754   0.563  0.00  0.00    +0.000 C 
ATOM     16  C   UNL     1      -5.188   3.026   0.312  0.00  0.00    +0.000 C 
ENDBRANCH  14  15
ENDBRANCH  12  14
ENDBRANCH   9  12
ENDBRANCH   4  10
BRANCH   1  17
ATOM     17  C   UNL     1       4.734   0.107   0.932  0.00  0.00    +0.000 C 
ATOM     18  C   UNL     1       4.621   1.185   1.993  0.00  0.00    +0.000 C 
ENDBRANCH   1  17
BRANCH   1  19
ATOM     19  C   UNL     1       4.239   1.002  -1.349  0.00  0.00    +0.000 C 
ATOM     20  C   UNL     1       4.480  -0.033  -2.431  0.00  0.00    +0.000 C 
ENDBRANCH   1  19
TORSDOF 6
