REMARK  Name = 47156621
REMARK  6 active torsions:
REMARK  status: ('A' for Active; 'I' for Inactive)
REMARK    1  A    between atoms: N_2  and  C_5
REMARK    2  A    between atoms: N_2  and  C_6
REMARK    3  A    between atoms: N_4  and  C_15
REMARK    4  A    between atoms: C_5  and  C_8
REMARK    5  A    between atoms: C_6  and  C_9
REMARK    6  A    between atoms: C_11  and  C_14
REMARK                            x       y       z     vdW  Elec       q    Type
REMARK                         _______ _______ _______ _____ _____    ______ ____
ROOT
ATOM      1  N   UNL     1       2.614   0.081   0.052  0.00  0.00    +0.000 N 
ATOM      2  N   UNL     1       0.478   1.122   0.232  0.00  0.00    +0.000 NA
ATOM      3  C   UNL     1       1.200   0.005  -0.011  0.00  0.00    +0.000 A 
ATOM      4  C   UNL     1       0.644  -1.225  -0.323  0.00  0.00    +0.000 A 
ATOM      5  C   UNL     1      -1.518  -0.188  -0.144  0.00  0.00    +0.000 A 
ATOM      6  C   UNL     1      -0.742  -1.315  -0.389  0.00  0.00    +0.000 A 
ATOM      7  C   UNL     1      -0.866   0.996   0.160  0.00  0.00    +0.000 A 
ENDROOT
BRANCH   5  10
ATOM      8  O   UNL     1      -3.537  -1.104  -0.909  0.00  0.00    +0.000 OA
ATOM      9  N   UNL     1      -3.679   0.672   0.575  0.00  0.00    +0.000 N 
ATOM     10  C   UNL     1      -2.968  -0.250  -0.205  0.00  0.00    +0.000 C 
ATOM     11  C   UNL     1      -5.122   0.721   0.640  0.00  0.00    +0.000 C 
ATOM     12  H   UNL     1      -3.180   1.299   1.197  0.00  0.00    +0.000 HD
ENDBRANCH   5  10
BRANCH   1  13
ATOM     13  C   UNL     1       3.262   1.336   0.364  0.00  0.00    +0.000 C 
ATOM     14  C   UNL     1       3.339   2.207  -0.875  0.00  0.00    +0.000 C 
ENDBRANCH   1  13
BRANCH   1  15
ATOM     15  C   UNL     1       3.417  -1.094  -0.203  0.00  0.00    +0.000 C 
ATOM     16  C   UNL     1       3.477  -1.965   1.037  0.00  0.00    +0.000 C 
ENDBRANCH   1  15
TORSDOF 3
