REMARK  Name = 47167267
REMARK  8 active torsions:
REMARK  status: ('A' for Active; 'I' for Inactive)
REMARK    1  A    between atoms: N_2  and  C_6
REMARK    2  A    between atoms: N_3  and  C_16
REMARK    3  A    between atoms: N_3  and  C_17
REMARK    4  A    between atoms: C_5  and  C_6
REMARK    5  A    between atoms: C_5  and  C_7
REMARK    6  A    between atoms: C_5  and  C_8
REMARK    7  A    between atoms: C_6  and  C_9
REMARK    8  A    between atoms: C_10  and  C_11
REMARK                            x       y       z     vdW  Elec       q    Type
REMARK                         _______ _______ _______ _____ _____    ______ ____
ROOT
ATOM      1  O   UNL     1       1.325  -2.154   0.774  0.00  0.00    +0.000 OA
ATOM      2  N   UNL     1       2.038  -0.143  -0.134  0.00  0.00    +0.000 N 
ATOM      3  C   UNL     1       1.083  -1.041   0.316  0.00  0.00    +0.000 C 
ATOM      4  H   UNL     1       1.748   0.707  -0.604  0.00  0.00    +0.000 HD
ENDROOT
BRANCH   3   7
ATOM      5  N   UNL     1      -4.300   0.550  -0.143  0.00  0.00    +0.000 N 
ATOM      6  N   UNL     1      -2.664  -1.180  -0.043  0.00  0.00    +0.000 NA
ATOM      7  C   UNL     1      -0.330  -0.597   0.197  0.00  0.00    +0.000 A 
ATOM      8  C   UNL     1      -0.661   0.753   0.208  0.00  0.00    +0.000 A 
ATOM      9  C   UNL     1      -1.359  -1.516   0.070  0.00  0.00    +0.000 A 
ATOM     10  C   UNL     1      -2.947   0.142  -0.028  0.00  0.00    +0.000 A 
ATOM     11  C   UNL     1      -1.992   1.138   0.094  0.00  0.00    +0.000 A 
ATOM     12  C   UNL     1      -5.348  -0.437  -0.281  0.00  0.00    +0.000 C 
ATOM     13  C   UNL     1      -4.639   1.955  -0.130  0.00  0.00    +0.000 C 
ENDBRANCH   3   7
BRANCH   2  14
ATOM     14  C   UNL     1       3.452  -0.439  -0.107  0.00  0.00    +0.000 C 
ATOM     15  C   UNL     1       3.849  -1.204  -1.368  0.00  0.00    +0.000 C 
BRANCH  14  16
ATOM     16  C   UNL     1       4.313   0.827   0.120  0.00  0.00    +0.000 C 
ATOM     17  C   UNL     1       3.982   1.490   1.462  0.00  0.00    +0.000 C 
ATOM     18  C   UNL     1       4.199   1.857  -1.007  0.00  0.00    +0.000 C 
ENDBRANCH  14  16
ENDBRANCH   2  14
TORSDOF 3
