REMARK  Name = 47187966
REMARK  7 active torsions:
REMARK  status: ('A' for Active; 'I' for Inactive)
REMARK    1  A    between atoms: N_2  and  C_5
REMARK    2  A    between atoms: N_3  and  C_7
REMARK    3  A    between atoms: N_3  and  C_12
REMARK    4  A    between atoms: N_3  and  C_13
REMARK    5  A    between atoms: C_5  and  C_9
REMARK    6  A    between atoms: C_5  and  C_10
REMARK    7  A    between atoms: C_6  and  C_8
REMARK                            x       y       z     vdW  Elec       q    Type
REMARK                         _______ _______ _______ _____ _____    ______ ____
ROOT
ATOM      1  N   UNL     1      -2.837  -0.221  -0.413  0.00  0.00    +0.000 NA
ATOM      2  C   UNL     1      -0.518  -0.525   0.199  0.00  0.00    +0.000 A 
ATOM      3  C   UNL     1      -1.611   0.265  -0.117  0.00  0.00    +0.000 A 
ATOM      4  C   UNL     1      -0.694  -1.905   0.210  0.00  0.00    +0.000 A 
ATOM      5  C   UNL     1      -1.940  -2.443  -0.089  0.00  0.00    +0.000 A 
ATOM      6  C   UNL     1      -2.970  -1.567  -0.391  0.00  0.00    +0.000 A 
ENDROOT
BRANCH   2   9
ATOM      7  O   UNL     1       0.934   0.785   1.493  0.00  0.00    +0.000 OA
ATOM      8  N   UNL     1       1.859  -0.349  -0.306  0.00  0.00    +0.000 N 
ATOM      9  C   UNL     1       0.817   0.040   0.523  0.00  0.00    +0.000 C 
ATOM     10  H   UNL     1       1.674  -1.006  -1.059  0.00  0.00    +0.000 HD
BRANCH   8  11
ATOM     11  C   UNL     1       3.217   0.095  -0.106  0.00  0.00    +0.000 C 
ATOM     12  C   UNL     1       3.953  -0.845   0.841  0.00  0.00    +0.000 C 
ATOM     13  C   UNL     1       3.939   0.209  -1.442  0.00  0.00    +0.000 C 
ENDBRANCH   8  11
ENDBRANCH   2   9
BRANCH   3  14
ATOM     14  N   UNL     1      -1.440   1.673  -0.128  0.00  0.00    +0.000 N 
ATOM     15  C   UNL     1      -0.480   2.281  -1.022  0.00  0.00    +0.000 C 
ATOM     16  C   UNL     1      -2.229   2.508   0.749  0.00  0.00    +0.000 C 
ENDBRANCH   3  14
TORSDOF 3
