REMARK  Name = 47187974
REMARK  9 active torsions:
REMARK  status: ('A' for Active; 'I' for Inactive)
REMARK    1  A    between atoms: N_2  and  C_7
REMARK    2  A    between atoms: N_3  and  C_12
REMARK    3  A    between atoms: N_3  and  C_14
REMARK    4  A    between atoms: N_3  and  C_15
REMARK    5  A    between atoms: C_5  and  C_6
REMARK    6  A    between atoms: C_5  and  C_7
REMARK    7  A    between atoms: C_6  and  C_8
REMARK    8  A    between atoms: C_8  and  C_9
REMARK    9  A    between atoms: C_10  and  C_11
REMARK                            x       y       z     vdW  Elec       q    Type
REMARK                         _______ _______ _______ _____ _____    ______ ____
ROOT
ATOM      1  N   UNL     1       3.296   1.177   0.225  0.00  0.00    +0.000 NA
ATOM      2  C   UNL     1       1.026   0.429  -0.131  0.00  0.00    +0.000 A 
ATOM      3  C   UNL     1       2.378   0.199   0.065  0.00  0.00    +0.000 A 
ATOM      4  C   UNL     1       0.588   1.749  -0.166  0.00  0.00    +0.000 A 
ATOM      5  C   UNL     1       1.504   2.783  -0.006  0.00  0.00    +0.000 A 
ATOM      6  C   UNL     1       2.834   2.447   0.185  0.00  0.00    +0.000 A 
ENDROOT
BRANCH   2   9
ATOM      7  O   UNL     1       0.180  -1.465  -1.225  0.00  0.00    +0.000 OA
ATOM      8  N   UNL     1      -0.982  -0.724   0.641  0.00  0.00    +0.000 N 
ATOM      9  C   UNL     1       0.039  -0.669  -0.300  0.00  0.00    +0.000 C 
ATOM     10  H   UNL     1      -1.013  -0.030   1.383  0.00  0.00    +0.000 HD
BRANCH   8  11
ATOM     11  C   UNL     1      -1.998  -1.741   0.626  0.00  0.00    +0.000 C 
BRANCH  11  12
ATOM     12  C   UNL     1      -3.201  -1.319  -0.208  0.00  0.00    +0.000 C 
BRANCH  12  13
ATOM     13  C   UNL     1      -3.844  -0.048   0.347  0.00  0.00    +0.000 C 
BRANCH  13  14
ATOM     14  C   UNL     1      -5.074   0.354  -0.466  0.00  0.00    +0.000 C 
ATOM     15  C   UNL     1      -5.696   1.637   0.062  0.00  0.00    +0.000 C 
ENDBRANCH  13  14
ENDBRANCH  12  13
ENDBRANCH  11  12
ENDBRANCH   8  11
ENDBRANCH   2   9
BRANCH   3  16
ATOM     16  N   UNL     1       2.830  -1.144   0.105  0.00  0.00    +0.000 N 
ATOM     17  C   UNL     1       3.801  -1.612  -0.859  0.00  0.00    +0.000 C 
ATOM     18  C   UNL     1       2.318  -2.054   1.104  0.00  0.00    +0.000 C 
ENDBRANCH   3  16
TORSDOF 6
