REMARK  Name = 47188131
REMARK  9 active torsions:
REMARK  status: ('A' for Active; 'I' for Inactive)
REMARK    1  A    between atoms: N_2  and  C_7
REMARK    2  A    between atoms: N_3  and  C_12
REMARK    3  A    between atoms: N_3  and  C_14
REMARK    4  A    between atoms: N_3  and  C_15
REMARK    5  A    between atoms: C_5  and  C_6
REMARK    6  A    between atoms: C_5  and  C_8
REMARK    7  A    between atoms: C_5  and  C_9
REMARK    8  A    between atoms: C_6  and  C_7
REMARK    9  A    between atoms: C_10  and  C_11
REMARK                            x       y       z     vdW  Elec       q    Type
REMARK                         _______ _______ _______ _____ _____    ______ ____
ROOT
ATOM      1  O   UNL     1      -0.042   0.171   2.107  0.00  0.00    +0.000 OA
ATOM      2  N   UNL     1       1.073  -1.123   0.537  0.00  0.00    +0.000 N 
ATOM      3  C   UNL     1      -0.039  -0.473   1.060  0.00  0.00    +0.000 C 
ATOM      4  H   UNL     1       0.986  -1.629  -0.340  0.00  0.00    +0.000 HD
ENDROOT
BRANCH   3   6
ATOM      5  N   UNL     1      -3.131   0.387  -0.939  0.00  0.00    +0.000 NA
ATOM      6  C   UNL     1      -1.300  -0.608   0.288  0.00  0.00    +0.000 A 
ATOM      7  C   UNL     1      -1.981   0.480  -0.235  0.00  0.00    +0.000 A 
ATOM      8  C   UNL     1      -1.835  -1.874   0.074  0.00  0.00    +0.000 A 
ATOM      9  C   UNL     1      -3.017  -2.010  -0.646  0.00  0.00    +0.000 A 
ATOM     10  C   UNL     1      -3.621  -0.859  -1.126  0.00  0.00    +0.000 A 
BRANCH   7  11
ATOM     11  N   UNL     1      -1.443   1.774  -0.018  0.00  0.00    +0.000 N 
ATOM     12  C   UNL     1      -2.216   2.774   0.684  0.00  0.00    +0.000 C 
ATOM     13  C   UNL     1      -0.122   2.102  -0.505  0.00  0.00    +0.000 C 
ENDBRANCH   7  11
ENDBRANCH   3   6
BRANCH   2  14
ATOM     14  C   UNL     1       2.357  -1.106   1.181  0.00  0.00    +0.000 C 
BRANCH  14  15
ATOM     15  C   UNL     1       3.223   0.067   0.726  0.00  0.00    +0.000 C 
BRANCH  15  16
ATOM     16  C   UNL     1       3.513   0.115  -0.787  0.00  0.00    +0.000 C 
ATOM     17  C   UNL     1       4.334   1.342  -1.186  0.00  0.00    +0.000 C 
ATOM     18  C   UNL     1       4.248  -1.159  -1.214  0.00  0.00    +0.000 C 
ENDBRANCH  15  16
ENDBRANCH  14  15
ENDBRANCH   2  14
TORSDOF 5
