REMARK  Name = 47231550
REMARK  4 active torsions:
REMARK  status: ('A' for Active; 'I' for Inactive)
REMARK    1  A    between atoms: N_2  and  C_10
REMARK    2  A    between atoms: N_4  and  C_16
REMARK    3  A    between atoms: C_11  and  C_13
REMARK    4  A    between atoms: C_16  and  C_17
REMARK                            x       y       z     vdW  Elec       q    Type
REMARK                         _______ _______ _______ _____ _____    ______ ____
ROOT
ATOM      1  N   UNL     1      -2.778   0.368   0.482  0.00  0.00    +0.000 NA
ATOM      2  C   UNL     1      -1.495   0.147   0.118  0.00  0.00    +0.000 A 
ATOM      3  C   UNL     1      -0.991  -1.095  -0.232  0.00  0.00    +0.000 A 
ATOM      4  C   UNL     1      -1.859  -2.181  -0.206  0.00  0.00    +0.000 A 
ATOM      5  C   UNL     1      -3.592  -0.711   0.495  0.00  0.00    +0.000 A 
ATOM      6  C   UNL     1      -3.186  -1.994   0.163  0.00  0.00    +0.000 A 
ENDROOT
BRANCH   2   7
ATOM      7  N   UNL     1      -0.625   1.244   0.098  0.00  0.00    +0.000 N 
ATOM      8  C   UNL     1       1.052   3.593   0.079  0.00  0.00    +0.000 C 
ATOM      9  C   UNL     1       0.293   3.149  -1.166  0.00  0.00    +0.000 C 
ATOM     10  C   UNL     1       1.382   2.387   0.951  0.00  0.00    +0.000 C 
ATOM     11  C   UNL     1      -0.961   2.357  -0.803  0.00  0.00    +0.000 C 
ATOM     12  C   UNL     1       0.129   1.590   1.308  0.00  0.00    +0.000 C 
ENDBRANCH   2   7
BRANCH   3  15
ATOM     13  O   UNL     1       0.879  -0.697  -1.590  0.00  0.00    +0.000 OA
ATOM     14  N   UNL     1       1.149  -2.184   0.168  0.00  0.00    +0.000 N 
ATOM     15  C   UNL     1       0.399  -1.303  -0.617  0.00  0.00    +0.000 C 
ATOM     16  H   UNL     1       0.705  -2.628   0.967  0.00  0.00    +0.000 HD
BRANCH  14  17
ATOM     17  C   UNL     1       2.544  -2.475  -0.071  0.00  0.00    +0.000 C 
BRANCH  17  18
ATOM     18  C   UNL     1       3.383  -1.507   0.694  0.00  0.00    +0.000 C 
ATOM     19  C   UNL     1       4.277  -0.687   0.130  0.00  0.00    +0.000 C 
ENDBRANCH  17  18
ENDBRANCH  14  17
ENDBRANCH   3  15
TORSDOF 4
