REMARK  Name = 47354874
REMARK  9 active torsions:
REMARK  status: ('A' for Active; 'I' for Inactive)
REMARK    1  A    between atoms: N_3  and  C_9
REMARK    2  A    between atoms: N_4  and  C_8
REMARK    3  A    between atoms: N_5  and  C_19
REMARK    4  A    between atoms: N_5  and  C_20
REMARK    5  A    between atoms: C_7  and  C_8
REMARK    6  A    between atoms: C_7  and  C_11
REMARK    7  A    between atoms: C_9  and  C_10
REMARK    8  A    between atoms: C_10  and  C_14
REMARK    9  A    between atoms: C_12  and  C_13
REMARK                            x       y       z     vdW  Elec       q    Type
REMARK                         _______ _______ _______ _____ _____    ______ ____
ROOT
ATOM      1  O   UNL     1       0.024  -2.555  -1.302  0.00  0.00    +0.000 OA
ATOM      2  N   UNL     1      -0.811  -1.677   0.676  0.00  0.00    +0.000 N 
ATOM      3  C   UNL     1       0.133  -1.804  -0.336  0.00  0.00    +0.000 C 
ATOM      4  H   UNL     1      -0.634  -1.075   1.473  0.00  0.00    +0.000 HD
ENDROOT
BRANCH   3   7
ATOM      5  N   UNL     1       4.827   1.268   0.151  0.00  0.00    +0.000 N 
ATOM      6  N   UNL     1       3.709  -0.669  -0.669  0.00  0.00    +0.000 NA
ATOM      7  C   UNL     1       1.358  -0.977  -0.194  0.00  0.00    +0.000 A 
ATOM      8  C   UNL     1       3.649   0.490   0.024  0.00  0.00    +0.000 A 
ATOM      9  C   UNL     1       1.337   0.221   0.512  0.00  0.00    +0.000 A 
ATOM     10  C   UNL     1       2.500   0.975   0.628  0.00  0.00    +0.000 A 
ATOM     11  C   UNL     1       2.559  -1.374  -0.761  0.00  0.00    +0.000 A 
ATOM     12  C   UNL     1       6.064   0.819  -0.447  0.00  0.00    +0.000 C 
ATOM     13  C   UNL     1       4.799   2.514   0.886  0.00  0.00    +0.000 C 
ENDBRANCH   3   7
BRANCH   2  14
ATOM     14  C   UNL     1      -2.037  -2.429   0.693  0.00  0.00    +0.000 C 
BRANCH  14  15
ATOM     15  C   UNL     1      -3.167  -1.705  -0.025  0.00  0.00    +0.000 C 
BRANCH  15  18
ATOM     16  O   UNL     1      -2.954   0.088   1.591  0.00  0.00    +0.000 OA
ATOM     17  N   UNL     1      -4.551   0.261  -0.086  0.00  0.00    +0.000 N 
ATOM     18  C   UNL     1      -3.518  -0.363   0.598  0.00  0.00    +0.000 C 
ATOM     19  H   UNL     1      -4.954  -0.193  -0.901  0.00  0.00    +0.000 HD
BRANCH  17  20
ATOM     20  C   UNL     1      -5.088   1.544   0.306  0.00  0.00    +0.000 C 
BRANCH  20  21
ATOM     21  C   UNL     1      -4.364   2.705  -0.364  0.00  0.00    +0.000 C 
ATOM     22  C   UNL     1      -4.470   2.667  -1.882  0.00  0.00    +0.000 C 
ENDBRANCH  20  21
ENDBRANCH  17  20
ENDBRANCH  15  18
ENDBRANCH  14  15
ENDBRANCH   2  14
TORSDOF 6
