REMARK  Name = 4737814
REMARK  1 active torsions:
REMARK  status: ('A' for Active; 'I' for Inactive)
REMARK    1  A    between atoms: N_5  and  C_9
REMARK                            x       y       z     vdW  Elec       q    Type
REMARK                         _______ _______ _______ _____ _____    ______ ____
ROOT
ATOM      1  O   UNL     1      -0.032   2.402  -0.002  0.00  0.00    +0.000 OA
ATOM      2  N   UNL     1      -1.082   0.287   0.001  0.00  0.00    +0.000 N 
ATOM      3  N   UNL     1       0.321  -1.659   0.000  0.00  0.00    +0.000 NA
ATOM      4  N   UNL     1       2.639  -1.485  -0.001  0.00  0.00    +0.000 NA
ATOM      5  C   UNL     1      -0.854  -1.102   0.000  0.00  0.00    +0.000 A 
ATOM      6  C   UNL     1       1.350   0.544   0.001  0.00  0.00    +0.000 A 
ATOM      7  C   UNL     1       0.016   1.175   0.000  0.00  0.00    +0.000 A 
ATOM      8  C   UNL     1      -2.405   0.809   0.000  0.00  0.00    +0.000 A 
ATOM      9  C   UNL     1       1.450  -0.837  -0.000  0.00  0.00    +0.000 A 
ATOM     10  C   UNL     1      -2.036  -2.002   0.000  0.00  0.00    +0.000 A 
ATOM     11  C   UNL     1      -3.442  -0.055  -0.001  0.00  0.00    +0.000 A 
ATOM     12  C   UNL     1       2.520   1.304   0.001  0.00  0.00    +0.000 A 
ATOM     13  C   UNL     1      -3.259  -1.474  -0.000  0.00  0.00    +0.000 A 
ATOM     14  C   UNL     1       3.751   0.660   0.001  0.00  0.00    +0.000 A 
ATOM     15  C   UNL     1       3.756  -0.724  -0.000  0.00  0.00    +0.000 A 
ENDROOT
BRANCH   8  16
ATOM     16  N   UNL     1      -2.693   2.156   0.001  0.00  0.00    +0.000 N 
ATOM     17  H   UNL     1      -1.942   2.833   0.002  0.00  0.00    +0.000 HD
ATOM     18  H   UNL     1      -3.656   2.471   0.001  0.00  0.00    +0.000 HD
ENDBRANCH   8  16
TORSDOF 1
