REMARK  Name = 47390719
REMARK  4 active torsions:
REMARK  status: ('A' for Active; 'I' for Inactive)
REMARK    1  A    between atoms: N_2  and  C_5
REMARK    2  A    between atoms: N_4  and  C_14
REMARK    3  A    between atoms: C_11  and  C_13
REMARK    4  A    between atoms: C_14  and  C_15
REMARK                            x       y       z     vdW  Elec       q    Type
REMARK                         _______ _______ _______ _____ _____    ______ ____
ROOT
ATOM      1  N   UNL     1       2.971   0.849   0.175  0.00  0.00    +0.000 N 
ATOM      2  N   UNL     1       0.735   1.516  -0.307  0.00  0.00    +0.000 NA
ATOM      3  C   UNL     1       1.595   0.535   0.049  0.00  0.00    +0.000 A 
ATOM      4  C   UNL     1       1.216  -0.773   0.302  0.00  0.00    +0.000 A 
ATOM      5  C   UNL     1      -0.131  -1.096   0.182  0.00  0.00    +0.000 A 
ATOM      6  C   UNL     1      -1.046  -0.114  -0.182  0.00  0.00    +0.000 A 
ATOM      7  C   UNL     1      -0.566   1.165  -0.413  0.00  0.00    +0.000 A 
ATOM      8  H   UNL     1       3.210   1.816  -0.012  0.00  0.00    +0.000 HD
ENDROOT
BRANCH   6  11
ATOM      9  O   UNL     1      -2.835  -1.576  -0.583  0.00  0.00    +0.000 OA
ATOM     10  N   UNL     1      -3.361   0.631  -0.105  0.00  0.00    +0.000 N 
ATOM     11  C   UNL     1      -2.459  -0.420  -0.315  0.00  0.00    +0.000 C 
ATOM     12  H   UNL     1      -3.018   1.544   0.175  0.00  0.00    +0.000 HD
BRANCH  10  13
ATOM     13  C   UNL     1      -4.797   0.481  -0.179  0.00  0.00    +0.000 C 
ATOM     14  C   UNL     1      -5.358  -0.117   1.095  0.00  0.00    +0.000 C 
ENDBRANCH  10  13
ENDBRANCH   6  11
BRANCH   1  15
ATOM     15  C   UNL     1       3.988  -0.119   0.558  0.00  0.00    +0.000 C 
ATOM     16  C   UNL     1       4.621  -1.028  -0.455  0.00  0.00    +0.000 C 
ATOM     17  C   UNL     1       5.428   0.069   0.178  0.00  0.00    +0.000 C 
ENDBRANCH   1  15
TORSDOF 3
