REMARK  Name = 506623
REMARK  2 active torsions:
REMARK  status: ('A' for Active; 'I' for Inactive)
REMARK    1  A    between atoms: N_3  and  C_6
REMARK    2  A    between atoms: C_5  and  C_9
REMARK                            x       y       z     vdW  Elec       q    Type
REMARK                         _______ _______ _______ _____ _____    ______ ____
ROOT
ATOM      1  N   UNL     1       1.798  -1.016   0.021  0.00  0.00    +0.000 NA
ATOM      2  C   UNL     1      -0.266   0.242  -0.023  0.00  0.00    +0.000 A 
ATOM      3  C   UNL     1       0.448  -0.945  -0.002  0.00  0.00    +0.000 A 
ATOM      4  C   UNL     1       0.452   1.433  -0.022  0.00  0.00    +0.000 A 
ATOM      5  C   UNL     1       1.842   1.401   0.001  0.00  0.00    +0.000 A 
ATOM      6  C   UNL     1       2.461   0.162   0.022  0.00  0.00    +0.000 A 
ENDROOT
BRANCH   2   9
ATOM      7  O   UNL     1      -2.350   0.281  -1.119  0.00  0.00    +0.000 OA
ATOM      8  N   UNL     1      -2.387   0.317   1.173  0.00  0.00    +0.000 N 
ATOM      9  C   UNL     1      -1.721   0.287  -0.048  0.00  0.00    +0.000 C 
ATOM     10  H   UNL     1      -1.890   0.315   2.059  0.00  0.00    +0.000 HD
ATOM     11  H   UNL     1      -3.400   0.342   1.215  0.00  0.00    +0.000 HD
ENDBRANCH   2   9
BRANCH   3  12
ATOM     12  N   UNL     1      -0.277  -2.163  -0.003  0.00  0.00    +0.000 N 
ATOM     13  H   UNL     1      -1.187  -2.186   0.438  0.00  0.00    +0.000 HD
ATOM     14  H   UNL     1       0.272  -3.015   0.008  0.00  0.00    +0.000 HD
ENDBRANCH   3  12
TORSDOF 2
