REMARK  Name = 51076322
REMARK  2 active torsions:
REMARK  status: ('A' for Active; 'I' for Inactive)
REMARK    1  A    between atoms: N_4  and  C_15
REMARK    2  A    between atoms: C_12  and  C_14
REMARK                            x       y       z     vdW  Elec       q    Type
REMARK                         _______ _______ _______ _____ _____    ______ ____
ROOT
ATOM      1  N   UNL     1      -2.390   0.032  -0.011  0.00  0.00    +0.000 N 
ATOM      2  N   UNL     1      -0.438  -1.264  -0.172  0.00  0.00    +0.000 NA
ATOM      3  C   UNL     1      -4.561   0.909  -0.238  0.00  0.00    +0.000 C 
ATOM      4  C   UNL     1      -4.662  -0.560   0.133  0.00  0.00    +0.000 C 
ATOM      5  C   UNL     1      -3.136   1.274   0.175  0.00  0.00    +0.000 C 
ATOM      6  C   UNL     1      -3.281  -1.105  -0.228  0.00  0.00    +0.000 C 
ATOM      7  C   UNL     1      -1.015  -0.056   0.013  0.00  0.00    +0.000 A 
ATOM      8  C   UNL     1      -0.308   1.116   0.229  0.00  0.00    +0.000 A 
ATOM      9  C   UNL     1       1.080   1.044   0.257  0.00  0.00    +0.000 A 
ATOM     10  C   UNL     1       1.710  -0.182   0.070  0.00  0.00    +0.000 A 
ATOM     11  C   UNL     1       0.913  -1.296  -0.139  0.00  0.00    +0.000 A 
ENDROOT
BRANCH  10  14
ATOM     12  O   UNL     1       3.708  -1.363   0.405  0.00  0.00    +0.000 OA
ATOM     13  N   UNL     1       3.889   0.848  -0.270  0.00  0.00    +0.000 N 
ATOM     14  C   UNL     1       3.158  -0.290   0.093  0.00  0.00    +0.000 C 
ATOM     15  C   UNL     1       5.332   0.891  -0.319  0.00  0.00    +0.000 C 
ATOM     16  H   UNL     1       3.404   1.677  -0.596  0.00  0.00    +0.000 HD
ENDBRANCH  10  14
TORSDOF 1
