REMARK  Name = 51088433
REMARK  10 active torsions:
REMARK  status: ('A' for Active; 'I' for Inactive)
REMARK    1  A    between atoms: N_3  and  C_8
REMARK    2  A    between atoms: N_3  and  C_9
REMARK    3  A    between atoms: N_4  and  C_11
REMARK    4  A    between atoms: N_5  and  C_20
REMARK    5  A    between atoms: N_5  and  C_21
REMARK    6  A    between atoms: C_7  and  C_10
REMARK    7  A    between atoms: C_7  and  C_11
REMARK    8  A    between atoms: C_8  and  C_12
REMARK    9  A    between atoms: C_9  and  C_13
REMARK   10  A    between atoms: C_14  and  C_15
REMARK                            x       y       z     vdW  Elec       q    Type
REMARK                         _______ _______ _______ _____ _____    ______ ____
ROOT
ATOM      1  O   UNL     1       0.202   2.779  -0.349  0.00  0.00    +0.000 OA
ATOM      2  N   UNL     1      -0.560   1.195   1.165  0.00  0.00    +0.000 N 
ATOM      3  C   UNL     1       0.370   1.744   0.290  0.00  0.00    +0.000 C 
ATOM      4  H   UNL     1      -0.380   0.304   1.615  0.00  0.00    +0.000 HD
ENDROOT
BRANCH   3   7
ATOM      5  N   UNL     1       5.158  -1.168  -0.258  0.00  0.00    +0.000 N 
ATOM      6  N   UNL     1       3.261  -0.549   1.044  0.00  0.00    +0.000 NA
ATOM      7  C   UNL     1       1.636   0.985   0.122  0.00  0.00    +0.000 A 
ATOM      8  C   UNL     1       3.952  -0.438  -0.113  0.00  0.00    +0.000 A 
ATOM      9  C   UNL     1       2.375   1.074  -1.052  0.00  0.00    +0.000 A 
ATOM     10  C   UNL     1       3.556   0.351  -1.180  0.00  0.00    +0.000 A 
ATOM     11  C   UNL     1       2.118   0.167   1.131  0.00  0.00    +0.000 A 
ATOM     12  C   UNL     1       5.923  -1.073  -1.482  0.00  0.00    +0.000 C 
ATOM     13  C   UNL     1       5.636  -2.007   0.819  0.00  0.00    +0.000 C 
ENDBRANCH   3   7
BRANCH   2  14
ATOM     14  C   UNL     1      -1.841   1.799   1.414  0.00  0.00    +0.000 C 
BRANCH  14  15
ATOM     15  C   UNL     1      -2.910   1.293   0.451  0.00  0.00    +0.000 C 
BRANCH  15  18
ATOM     16  O   UNL     1      -2.517  -0.901   1.344  0.00  0.00    +0.000 OA
ATOM     17  N   UNL     1      -4.124  -0.732  -0.319  0.00  0.00    +0.000 N 
ATOM     18  C   UNL     1      -3.153  -0.211   0.543  0.00  0.00    +0.000 C 
BRANCH  17  19
ATOM     19  C   UNL     1      -4.867   0.104  -1.259  0.00  0.00    +0.000 C 
ATOM     20  C   UNL     1      -4.159   0.198  -2.596  0.00  0.00    +0.000 C 
ENDBRANCH  17  19
BRANCH  17  21
ATOM     21  C   UNL     1      -4.469  -2.148  -0.343  0.00  0.00    +0.000 C 
ATOM     22  C   UNL     1      -5.589  -2.463   0.627  0.00  0.00    +0.000 C 
ENDBRANCH  17  21
ENDBRANCH  15  18
ENDBRANCH  14  15
ENDBRANCH   2  14
TORSDOF 6
