REMARK  Name = 52499081
REMARK  10 active torsions:
REMARK  status: ('A' for Active; 'I' for Inactive)
REMARK    1  A    between atoms: N_2  and  C_5
REMARK    2  A    between atoms: N_3  and  C_12
REMARK    3  A    between atoms: N_3  and  C_13
REMARK    4  A    between atoms: C_5  and  C_6
REMARK    5  A    between atoms: C_5  and  C_8
REMARK    6  A    between atoms: C_6  and  C_7
REMARK    7  A    between atoms: C_7  and  C_9
REMARK    8  A    between atoms: C_10  and  C_14
REMARK    9  A    between atoms: C_12  and  C_18
REMARK   10  A    between atoms: C_13  and  C_19
REMARK                            x       y       z     vdW  Elec       q    Type
REMARK                         _______ _______ _______ _____ _____    ______ ____
ROOT
ATOM      1  N   UNL     1       3.774  -0.445  -0.144  0.00  0.00    +0.000 N 
ATOM      2  N   UNL     1       1.450  -0.962  -0.249  0.00  0.00    +0.000 NA
ATOM      3  C   UNL     1       2.420  -0.058   0.018  0.00  0.00    +0.000 A 
ATOM      4  C   UNL     1      -0.172   0.731   0.342  0.00  0.00    +0.000 A 
ATOM      5  C   UNL     1       2.177   1.238   0.444  0.00  0.00    +0.000 A 
ATOM      6  C   UNL     1       0.854   1.632   0.607  0.00  0.00    +0.000 A 
ATOM      7  C   UNL     1       0.176  -0.542  -0.079  0.00  0.00    +0.000 A 
ENDROOT
BRANCH   4  10
ATOM      8  O   UNL     1      -1.885   2.015   1.297  0.00  0.00    +0.000 OA
ATOM      9  N   UNL     1      -2.506   0.438  -0.286  0.00  0.00    +0.000 N 
ATOM     10  C   UNL     1      -1.596   1.121   0.507  0.00  0.00    +0.000 C 
ATOM     11  H   UNL     1      -2.179  -0.214  -0.992  0.00  0.00    +0.000 HD
BRANCH   9  12
ATOM     12  C   UNL     1      -3.922   0.720  -0.258  0.00  0.00    +0.000 C 
ATOM     13  C   UNL     1      -4.243   1.837  -1.246  0.00  0.00    +0.000 C 
BRANCH  12  14
ATOM     14  C   UNL     1      -4.746  -0.537  -0.568  0.00  0.00    +0.000 C 
BRANCH  14  15
ATOM     15  C   UNL     1      -4.470  -1.678   0.416  0.00  0.00    +0.000 C 
ATOM     16  C   UNL     1      -5.320  -2.900   0.102  0.00  0.00    +0.000 C 
ENDBRANCH  14  15
ENDBRANCH  12  14
ENDBRANCH   9  12
ENDBRANCH   4  10
BRANCH   1  17
ATOM     17  C   UNL     1       4.101  -1.785  -0.578  0.00  0.00    +0.000 C 
ATOM     18  C   UNL     1       4.038  -2.744   0.595  0.00  0.00    +0.000 C 
ENDBRANCH   1  17
BRANCH   1  19
ATOM     19  C   UNL     1       4.837   0.496   0.133  0.00  0.00    +0.000 C 
ATOM     20  C   UNL     1       5.032   1.425  -1.050  0.00  0.00    +0.000 C 
ENDBRANCH   1  19
TORSDOF 6
