REMARK  Name = 52499080
REMARK  10 active torsions:
REMARK  status: ('A' for Active; 'I' for Inactive)
REMARK    1  A    between atoms: N_2  and  C_5
REMARK    2  A    between atoms: N_3  and  C_12
REMARK    3  A    between atoms: N_3  and  C_13
REMARK    4  A    between atoms: C_5  and  C_6
REMARK    5  A    between atoms: C_5  and  C_8
REMARK    6  A    between atoms: C_6  and  C_7
REMARK    7  A    between atoms: C_7  and  C_9
REMARK    8  A    between atoms: C_10  and  C_14
REMARK    9  A    between atoms: C_12  and  C_18
REMARK   10  A    between atoms: C_13  and  C_19
REMARK                            x       y       z     vdW  Elec       q    Type
REMARK                         _______ _______ _______ _____ _____    ______ ____
ROOT
ATOM      1  N   UNL     1       3.786  -0.446   0.054  0.00  0.00    +0.000 N 
ATOM      2  N   UNL     1       2.172   1.306   0.000  0.00  0.00    +0.000 NA
ATOM      3  C   UNL     1       2.435  -0.020   0.004  0.00  0.00    +0.000 A 
ATOM      4  C   UNL     1      -0.180   0.753  -0.094  0.00  0.00    +0.000 A 
ATOM      5  C   UNL     1       1.461  -1.004  -0.039  0.00  0.00    +0.000 A 
ATOM      6  C   UNL     1       0.131  -0.602  -0.089  0.00  0.00    +0.000 A 
ATOM      7  C   UNL     1       0.868   1.659  -0.048  0.00  0.00    +0.000 A 
ENDROOT
BRANCH   4  10
ATOM      8  O   UNL     1      -1.847   2.303  -0.655  0.00  0.00    +0.000 OA
ATOM      9  N   UNL     1      -2.533   0.345   0.380  0.00  0.00    +0.000 N 
ATOM     10  C   UNL     1      -1.591   1.216  -0.146  0.00  0.00    +0.000 C 
ATOM     11  H   UNL     1      -2.235  -0.492   0.872  0.00  0.00    +0.000 HD
BRANCH   9  12
ATOM     12  C   UNL     1      -3.946   0.640   0.380  0.00  0.00    +0.000 C 
ATOM     13  C   UNL     1      -4.306   1.430   1.634  0.00  0.00    +0.000 C 
BRANCH  12  14
ATOM     14  C   UNL     1      -4.786  -0.642   0.282  0.00  0.00    +0.000 C 
BRANCH  14  15
ATOM     15  C   UNL     1      -4.441  -1.478  -0.954  0.00  0.00    +0.000 C 
ATOM     16  C   UNL     1      -5.267  -2.753  -1.010  0.00  0.00    +0.000 C 
ENDBRANCH  14  15
ENDBRANCH  12  14
ENDBRANCH   9  12
ENDBRANCH   4  10
BRANCH   1  17
ATOM     17  C   UNL     1       4.854   0.527   0.092  0.00  0.00    +0.000 C 
ATOM     18  C   UNL     1       5.141   1.045  -1.304  0.00  0.00    +0.000 C 
ENDBRANCH   1  17
BRANCH   1  19
ATOM     19  C   UNL     1       4.104  -1.857   0.059  0.00  0.00    +0.000 C 
ATOM     20  C   UNL     1       3.945  -2.423   1.456  0.00  0.00    +0.000 C 
ENDBRANCH   1  19
TORSDOF 6
