REMARK  Name = 52987938
REMARK  2 active torsions:
REMARK  status: ('A' for Active; 'I' for Inactive)
REMARK    1  A    between atoms: N_4  and  C_7
REMARK    2  A    between atoms: C_6  and  C_10
REMARK                            x       y       z     vdW  Elec       q    Type
REMARK                         _______ _______ _______ _____ _____    ______ ____
ROOT
ATOM      1 BR   UNL     1      -3.430  -1.531   0.002  0.00  0.00    +0.000 Br
ATOM      2  N   UNL     1      -0.934   1.776   0.021  0.00  0.00    +0.000 NA
ATOM      3  C   UNL     1       0.497  -0.172  -0.024  0.00  0.00    +0.000 A 
ATOM      4  C   UNL     1       0.287   1.197  -0.002  0.00  0.00    +0.000 A 
ATOM      5  C   UNL     1      -0.620  -1.001  -0.023  0.00  0.00    +0.000 A 
ATOM      6  C   UNL     1      -1.893  -0.444  -0.000  0.00  0.00    +0.000 A 
ATOM      7  C   UNL     1      -1.995   0.938   0.021  0.00  0.00    +0.000 A 
ENDROOT
BRANCH   3  10
ATOM      8  O   UNL     1       2.411  -0.999  -1.119  0.00  0.00    +0.000 OA
ATOM      9  N   UNL     1       2.430  -1.046   1.174  0.00  0.00    +0.000 N 
ATOM     10  C   UNL     1       1.827  -0.766  -0.047  0.00  0.00    +0.000 C 
ATOM     11  H   UNL     1       1.971  -0.855   2.059  0.00  0.00    +0.000 HD
ATOM     12  H   UNL     1       3.358  -1.454   1.216  0.00  0.00    +0.000 HD
ENDBRANCH   3  10
BRANCH   4  13
ATOM     13  N   UNL     1       1.421   2.049  -0.003  0.00  0.00    +0.000 N 
ATOM     14  H   UNL     1       2.272   1.724   0.439  0.00  0.00    +0.000 HD
ATOM     15  H   UNL     1       1.237   3.045   0.009  0.00  0.00    +0.000 HD
ENDBRANCH   4  13
TORSDOF 2
