REMARK  Name = 53015797
REMARK  6 active torsions:
REMARK  status: ('A' for Active; 'I' for Inactive)
REMARK    1  A    between atoms: N_2  and  C_5
REMARK    2  A    between atoms: N_2  and  C_10
REMARK    3  A    between atoms: N_2  and  C_11
REMARK    4  A    between atoms: N_3  and  C_9
REMARK    5  A    between atoms: C_6  and  C_7
REMARK    6  A    between atoms: C_9  and  C_14
REMARK                            x       y       z     vdW  Elec       q    Type
REMARK                         _______ _______ _______ _____ _____    ______ ____
ROOT
ATOM      1  N   UNL     1      -2.593  -0.236  -0.219  0.00  0.00    +0.000 NA
ATOM      2  C   UNL     1      -1.344   0.261  -0.076  0.00  0.00    +0.000 A 
ATOM      3  C   UNL     1      -0.216  -0.520   0.120  0.00  0.00    +0.000 A 
ATOM      4  C   UNL     1      -0.381  -1.899   0.174  0.00  0.00    +0.000 A 
ATOM      5  C   UNL     1      -1.651  -2.448   0.031  0.00  0.00    +0.000 A 
ATOM      6  C   UNL     1      -2.714  -1.581  -0.161  0.00  0.00    +0.000 A 
ENDROOT
BRANCH   3   9
ATOM      7  O   UNL     1       1.369   0.818   1.215  0.00  0.00    +0.000 OA
ATOM      8  N   UNL     1       2.081  -0.342  -0.663  0.00  0.00    +0.000 N 
ATOM      9  C   UNL     1       1.117   0.045   0.274  0.00  0.00    +0.000 C 
ATOM     10  H   UNL     1       1.814  -0.980  -1.407  0.00  0.00    +0.000 HD
BRANCH   8  11
ATOM     11  C   UNL     1       3.453   0.114  -0.631  0.00  0.00    +0.000 C 
ATOM     12  C   UNL     1       4.271  -0.663   0.380  0.00  0.00    +0.000 C 
ENDBRANCH   8  11
ENDBRANCH   3   9
BRANCH   2  13
ATOM     13  N   UNL     1      -1.184   1.669  -0.129  0.00  0.00    +0.000 N 
ATOM     14  C   UNL     1      -1.870   2.514   0.822  0.00  0.00    +0.000 C 
ATOM     15  C   UNL     1      -0.340   2.267  -1.138  0.00  0.00    +0.000 C 
ENDBRANCH   2  13
TORSDOF 3
