REMARK  Name = 53015798
REMARK  6 active torsions:
REMARK  status: ('A' for Active; 'I' for Inactive)
REMARK    1  A    between atoms: N_2  and  C_6
REMARK    2  A    between atoms: N_2  and  C_9
REMARK    3  A    between atoms: N_2  and  C_10
REMARK    4  A    between atoms: N_3  and  C_12
REMARK    5  A    between atoms: N_3  and  C_13
REMARK    6  A    between atoms: C_5  and  C_7
REMARK                            x       y       z     vdW  Elec       q    Type
REMARK                         _______ _______ _______ _____ _____    ______ ____
ROOT
ATOM      1  N   UNL     1      -2.336   0.473  -0.247  0.00  0.00    +0.000 NA
ATOM      2  C   UNL     1      -0.229  -0.581   0.297  0.00  0.00    +0.000 A 
ATOM      3  C   UNL     1      -1.012   0.529   0.024  0.00  0.00    +0.000 A 
ATOM      4  C   UNL     1      -0.843  -1.829   0.289  0.00  0.00    +0.000 A 
ATOM      5  C   UNL     1      -2.203  -1.927   0.014  0.00  0.00    +0.000 A 
ATOM      6  C   UNL     1      -2.898  -0.756  -0.245  0.00  0.00    +0.000 A 
ENDROOT
BRANCH   2   9
ATOM      7  O   UNL     1       1.515  -0.360   1.777  0.00  0.00    +0.000 OA
ATOM      8  N   UNL     1       2.113  -0.565  -0.473  0.00  0.00    +0.000 N 
ATOM      9  C   UNL     1       1.209  -0.488   0.592  0.00  0.00    +0.000 C 
ATOM     10  C   UNL     1       3.554  -0.497  -0.274  0.00  0.00    +0.000 C 
ATOM     11  C   UNL     1       1.671  -0.717  -1.858  0.00  0.00    +0.000 C 
ENDBRANCH   2   9
BRANCH   3  12
ATOM     12  N   UNL     1      -0.394   1.804   0.033  0.00  0.00    +0.000 N 
ATOM     13  C   UNL     1       0.248   2.293   1.232  0.00  0.00    +0.000 C 
ATOM     14  C   UNL     1      -0.395   2.620  -1.161  0.00  0.00    +0.000 C 
ENDBRANCH   3  12
TORSDOF 2
