REMARK  Name = 53334699
REMARK  3 active torsions:
REMARK  status: ('A' for Active; 'I' for Inactive)
REMARK    1  A    between atoms: N_2  and  C_5
REMARK    2  A    between atoms: N_4  and  C_15
REMARK    3  A    between atoms: C_13  and  C_14
REMARK                            x       y       z     vdW  Elec       q    Type
REMARK                         _______ _______ _______ _____ _____    ______ ____
ROOT
ATOM      1  O   UNL     1      -0.922  -1.264   1.809  0.00  0.00    +0.000 OA
ATOM      2  N   UNL     1       0.067  -0.404  -0.103  0.00  0.00    +0.000 N 
ATOM      3  C   UNL     1      -1.004  -0.701   0.720  0.00  0.00    +0.000 C 
ATOM      4  H   UNL     1      -0.096   0.101  -0.970  0.00  0.00    +0.000 HD
ENDROOT
BRANCH   2   5
ATOM      5  C   UNL     1       1.433  -0.739   0.253  0.00  0.00    +0.000 C 
ATOM      6  C   UNL     1       2.022   0.375   1.130  0.00  0.00    +0.000 C 
ATOM      7  C   UNL     1       2.202  -1.089  -1.024  0.00  0.00    +0.000 C 
ATOM      8  C   UNL     1       2.505   1.619   0.377  0.00  0.00    +0.000 C 
ATOM      9  C   UNL     1       3.607  -1.654  -0.831  0.00  0.00    +0.000 C 
ATOM     10  C   UNL     1       4.023   1.712   0.211  0.00  0.00    +0.000 C 
ATOM     11  C   UNL     1       4.668  -0.742  -0.214  0.00  0.00    +0.000 C 
ATOM     12  C   UNL     1       4.676   0.697  -0.730  0.00  0.00    +0.000 C 
ENDBRANCH   2   5
BRANCH   3  14
ATOM     13  N   UNL     1      -3.889   1.372  -0.573  0.00  0.00    +0.000 NA
ATOM     14  C   UNL     1      -2.341  -0.316   0.200  0.00  0.00    +0.000 A 
ATOM     15  C   UNL     1      -2.680   0.993  -0.101  0.00  0.00    +0.000 A 
ATOM     16  C   UNL     1      -3.304  -1.300   0.005  0.00  0.00    +0.000 A 
ATOM     17  C   UNL     1      -4.560  -0.949  -0.478  0.00  0.00    +0.000 A 
ATOM     18  C   UNL     1      -4.800   0.389  -0.749  0.00  0.00    +0.000 A 
BRANCH  15  19
ATOM     19  N   UNL     1      -1.704   2.002   0.098  0.00  0.00    +0.000 N 
ATOM     20  H   UNL     1      -1.978   2.949  -0.133  0.00  0.00    +0.000 HD
ATOM     21  H   UNL     1      -1.017   1.875   0.830  0.00  0.00    +0.000 HD
ENDBRANCH  15  19
ENDBRANCH   3  14
TORSDOF 3
