REMARK  Name = 53334695
REMARK  3 active torsions:
REMARK  status: ('A' for Active; 'I' for Inactive)
REMARK    1  A    between atoms: N_2  and  C_5
REMARK    2  A    between atoms: N_4  and  C_13
REMARK    3  A    between atoms: C_11  and  C_12
REMARK                            x       y       z     vdW  Elec       q    Type
REMARK                         _______ _______ _______ _____ _____    ______ ____
ROOT
ATOM      1  O   UNL     1       0.344  -1.948  -1.255  0.00  0.00    +0.000 OA
ATOM      2  N   UNL     1      -0.744  -0.501   0.193  0.00  0.00    +0.000 N 
ATOM      3  C   UNL     1       0.367  -1.018  -0.453  0.00  0.00    +0.000 C 
ATOM      4  H   UNL     1      -0.625   0.294   0.815  0.00  0.00    +0.000 HD
ENDROOT
BRANCH   3   6
ATOM      5  N   UNL     1       3.107   1.548  -0.003  0.00  0.00    +0.000 NA
ATOM      6  C   UNL     1       1.668  -0.392  -0.103  0.00  0.00    +0.000 A 
ATOM      7  C   UNL     1       1.932   0.953  -0.308  0.00  0.00    +0.000 A 
ATOM      8  C   UNL     1       2.674  -1.177   0.450  0.00  0.00    +0.000 A 
ATOM      9  C   UNL     1       3.896  -0.600   0.777  0.00  0.00    +0.000 A 
ATOM     10  C   UNL     1       4.061   0.754   0.533  0.00  0.00    +0.000 A 
BRANCH   7  11
ATOM     11  N   UNL     1       0.912   1.758  -0.874  0.00  0.00    +0.000 N 
ATOM     12  H   UNL     1       1.132   2.737  -1.010  0.00  0.00    +0.000 HD
ATOM     13  H   UNL     1       0.256   1.330  -1.515  0.00  0.00    +0.000 HD
ENDBRANCH   7  11
ENDBRANCH   3   6
BRANCH   2  14
ATOM     14  C   UNL     1      -2.077  -1.020  -0.022  0.00  0.00    +0.000 C 
ATOM     15  C   UNL     1      -2.925  -0.901   1.248  0.00  0.00    +0.000 C 
ATOM     16  C   UNL     1      -2.753  -0.326  -1.209  0.00  0.00    +0.000 C 
ATOM     17  C   UNL     1      -3.318   0.544   1.557  0.00  0.00    +0.000 C 
ATOM     18  C   UNL     1      -3.146   1.118  -0.896  0.00  0.00    +0.000 C 
ATOM     19  C   UNL     1      -3.999   1.209   0.365  0.00  0.00    +0.000 C 
ENDBRANCH   2  14
TORSDOF 3
