REMARK  Name = 53334698
REMARK  3 active torsions:
REMARK  status: ('A' for Active; 'I' for Inactive)
REMARK    1  A    between atoms: N_2  and  C_5
REMARK    2  A    between atoms: N_4  and  C_14
REMARK    3  A    between atoms: C_12  and  C_13
REMARK                            x       y       z     vdW  Elec       q    Type
REMARK                         _______ _______ _______ _____ _____    ______ ____
ROOT
ATOM      1  O   UNL     1      -0.669   1.334  -1.620  0.00  0.00    +0.000 OA
ATOM      2  N   UNL     1       0.400  -0.280  -0.345  0.00  0.00    +0.000 N 
ATOM      3  C   UNL     1      -0.706   0.403  -0.821  0.00  0.00    +0.000 C 
ATOM      4  H   UNL     1       0.276  -0.997   0.364  0.00  0.00    +0.000 HD
ENDROOT
BRANCH   2   5
ATOM      5  C   UNL     1       1.750   0.050  -0.758  0.00  0.00    +0.000 C 
ATOM      6  C   UNL     1       2.295   1.174   0.128  0.00  0.00    +0.000 C 
ATOM      7  C   UNL     1       2.599  -1.222  -0.851  0.00  0.00    +0.000 C 
ATOM      8  C   UNL     1       3.807   1.369   0.071  0.00  0.00    +0.000 C 
ATOM      9  C   UNL     1       3.250  -1.665   0.459  0.00  0.00    +0.000 C 
ATOM     10  C   UNL     1       4.554   0.478   1.062  0.00  0.00    +0.000 C 
ATOM     11  C   UNL     1       4.606  -1.002   0.697  0.00  0.00    +0.000 C 
ENDBRANCH   2   5
BRANCH   3  13
ATOM     12  N   UNL     1      -4.057   0.430   0.931  0.00  0.00    +0.000 NA
ATOM     13  C   UNL     1      -2.017  -0.038  -0.280  0.00  0.00    +0.000 A 
ATOM     14  C   UNL     1      -2.860   0.805   0.425  0.00  0.00    +0.000 A 
ATOM     15  C   UNL     1      -2.429  -1.352  -0.478  0.00  0.00    +0.000 A 
ATOM     16  C   UNL     1      -3.653  -1.775   0.026  0.00  0.00    +0.000 A 
ATOM     17  C   UNL     1      -4.423  -0.854   0.718  0.00  0.00    +0.000 A 
BRANCH  14  18
ATOM     18  N   UNL     1      -2.447   2.145   0.635  0.00  0.00    +0.000 N 
ATOM     19  H   UNL     1      -3.084   2.740   1.151  0.00  0.00    +0.000 HD
ATOM     20  H   UNL     1      -1.456   2.340   0.712  0.00  0.00    +0.000 HD
ENDBRANCH  14  18
ENDBRANCH   3  13
TORSDOF 3
