REMARK  Name = 53334734
REMARK  6 active torsions:
REMARK  status: ('A' for Active; 'I' for Inactive)
REMARK    1  A    between atoms: N_2  and  C_7
REMARK    2  A    between atoms: N_4  and  C_16
REMARK    3  A    between atoms: C_5  and  C_6
REMARK    4  A    between atoms: C_5  and  C_7
REMARK    5  A    between atoms: C_6  and  C_8
REMARK    6  A    between atoms: C_11  and  C_12
REMARK                            x       y       z     vdW  Elec       q    Type
REMARK                         _______ _______ _______ _____ _____    ______ ____
ROOT
ATOM      1  O   UNL     1       1.812  -1.726  -1.572  0.00  0.00    +0.000 OA
ATOM      2  N   UNL     1       0.981  -1.441   0.575  0.00  0.00    +0.000 N 
ATOM      3  C   UNL     1       1.865  -1.191  -0.468  0.00  0.00    +0.000 C 
ATOM      4  H   UNL     1       1.104  -0.956   1.459  0.00  0.00    +0.000 HD
ENDROOT
BRANCH   3   6
ATOM      5  N   UNL     1       3.682   1.998   0.442  0.00  0.00    +0.000 NA
ATOM      6  C   UNL     1       2.954  -0.221  -0.183  0.00  0.00    +0.000 A 
ATOM      7  C   UNL     1       2.712   1.094   0.181  0.00  0.00    +0.000 A 
ATOM      8  C   UNL     1       4.278  -0.634  -0.284  0.00  0.00    +0.000 A 
ATOM      9  C   UNL     1       5.304   0.267  -0.023  0.00  0.00    +0.000 A 
ATOM     10  C   UNL     1       4.956   1.560   0.333  0.00  0.00    +0.000 A 
BRANCH   7  11
ATOM     11  N   UNL     1       1.365   1.524   0.284  0.00  0.00    +0.000 N 
ATOM     12  H   UNL     1       1.218   2.488   0.556  0.00  0.00    +0.000 HD
ATOM     13  H   UNL     1       0.674   1.098  -0.323  0.00  0.00    +0.000 HD
ENDBRANCH   7  11
ENDBRANCH   3   6
BRANCH   2  14
ATOM     14  C   UNL     1      -0.109  -2.372   0.462  0.00  0.00    +0.000 C 
BRANCH  14  15
ATOM     15  C   UNL     1      -1.391  -1.716  -0.045  0.00  0.00    +0.000 C 
BRANCH  15  16
ATOM     16  C   UNL     1      -1.936  -0.602   0.859  0.00  0.00    +0.000 C 
BRANCH  16  17
ATOM     17  C   UNL     1      -3.222   0.011   0.364  0.00  0.00    +0.000 A 
ATOM     18  C   UNL     1      -3.187   1.111  -0.493  0.00  0.00    +0.000 A 
ATOM     19  C   UNL     1      -4.447  -0.524   0.763  0.00  0.00    +0.000 A 
ATOM     20  C   UNL     1      -4.377   1.677  -0.950  0.00  0.00    +0.000 A 
ATOM     21  C   UNL     1      -5.637   0.043   0.305  0.00  0.00    +0.000 A 
ATOM     22  C   UNL     1      -5.602   1.143  -0.551  0.00  0.00    +0.000 A 
ENDBRANCH  16  17
ENDBRANCH  15  16
ENDBRANCH  14  15
ENDBRANCH   2  14
TORSDOF 6
