REMARK  Name = 53334742
REMARK  5 active torsions:
REMARK  status: ('A' for Active; 'I' for Inactive)
REMARK    1  A    between atoms: N_2  and  C_10
REMARK    2  A    between atoms: N_3  and  C_11
REMARK    3  A    between atoms: N_5  and  C_14
REMARK    4  A    between atoms: C_10  and  C_11
REMARK    5  A    between atoms: C_12  and  C_13
REMARK                            x       y       z     vdW  Elec       q    Type
REMARK                         _______ _______ _______ _____ _____    ______ ____
ROOT
ATOM      1  O   UNL     1       0.576   0.264   1.637  0.00  0.00    +0.000 OA
ATOM      2  N   UNL     1       0.143  -1.046  -0.228  0.00  0.00    +0.000 N 
ATOM      3  C   UNL     1       0.959  -0.303   0.617  0.00  0.00    +0.000 C 
ATOM      4  H   UNL     1       0.541  -1.465  -1.064  0.00  0.00    +0.000 HD
ENDROOT
BRANCH   3   6
ATOM      5  N   UNL     1       4.287   1.165  -0.417  0.00  0.00    +0.000 NA
ATOM      6  C   UNL     1       2.384  -0.187   0.214  0.00  0.00    +0.000 A 
ATOM      7  C   UNL     1       2.994   1.030  -0.046  0.00  0.00    +0.000 A 
ATOM      8  C   UNL     1       3.151  -1.340   0.085  0.00  0.00    +0.000 A 
ATOM      9  C   UNL     1       4.485  -1.242  -0.295  0.00  0.00    +0.000 A 
ATOM     10  C   UNL     1       5.000   0.022  -0.532  0.00  0.00    +0.000 A 
BRANCH   7  11
ATOM     11  N   UNL     1       2.217   2.209   0.081  0.00  0.00    +0.000 N 
ATOM     12  H   UNL     1       2.690   3.084  -0.112  0.00  0.00    +0.000 HD
ATOM     13  H   UNL     1       1.225   2.159  -0.112  0.00  0.00    +0.000 HD
ENDBRANCH   7  11
ENDBRANCH   3   6
BRANCH   2  14
ATOM     14  C   UNL     1      -1.263  -1.229   0.013  0.00  0.00    +0.000 C 
BRANCH  14  15
ATOM     15  C   UNL     1      -2.083  -0.132  -0.649  0.00  0.00    +0.000 C 
BRANCH  15  16
ATOM     16  N   UNL     1      -3.500  -0.330  -0.385  0.00  0.00    +0.000 NA
ATOM     17  C   UNL     1      -4.351   0.431  -1.299  0.00  0.00    +0.000 C 
ATOM     18  C   UNL     1      -3.886   0.116   0.954  0.00  0.00    +0.000 C 
ATOM     19  C   UNL     1      -5.709   0.389  -0.615  0.00  0.00    +0.000 C 
ATOM     20  C   UNL     1      -5.403   0.185   0.866  0.00  0.00    +0.000 C 
ENDBRANCH  15  16
ENDBRANCH  14  15
ENDBRANCH   2  14
TORSDOF 5
