REMARK  Name = 53334694
REMARK  7 active torsions:
REMARK  status: ('A' for Active; 'I' for Inactive)
REMARK    1  A    between atoms: N_2  and  C_7
REMARK    2  A    between atoms: N_4  and  C_12
REMARK    3  A    between atoms: C_5  and  C_6
REMARK    4  A    between atoms: C_5  and  C_7
REMARK    5  A    between atoms: C_6  and  C_8
REMARK    6  A    between atoms: C_8  and  C_9
REMARK    7  A    between atoms: C_10  and  C_11
REMARK                            x       y       z     vdW  Elec       q    Type
REMARK                         _______ _______ _______ _____ _____    ______ ____
ROOT
ATOM      1  O   UNL     1       0.352  -1.812  -1.150  0.00  0.00    +0.000 OA
ATOM      2  N   UNL     1      -0.692  -0.862   0.692  0.00  0.00    +0.000 N 
ATOM      3  C   UNL     1       0.322  -0.973  -0.253  0.00  0.00    +0.000 C 
ATOM      4  H   UNL     1      -0.628  -0.145   1.408  0.00  0.00    +0.000 HD
ENDROOT
BRANCH   3   6
ATOM      5  N   UNL     1       3.796   0.448   0.203  0.00  0.00    +0.000 NA
ATOM      6  C   UNL     1       1.445  -0.008  -0.123  0.00  0.00    +0.000 A 
ATOM      7  C   UNL     1       2.756  -0.407   0.079  0.00  0.00    +0.000 A 
ATOM      8  C   UNL     1       1.183   1.355  -0.203  0.00  0.00    +0.000 A 
ATOM      9  C   UNL     1       2.227   2.266  -0.080  0.00  0.00    +0.000 A 
ATOM     10  C   UNL     1       3.503   1.766   0.120  0.00  0.00    +0.000 A 
BRANCH   7  11
ATOM     11  N   UNL     1       3.030  -1.795   0.165  0.00  0.00    +0.000 N 
ATOM     12  H   UNL     1       3.998  -2.057   0.310  0.00  0.00    +0.000 HD
ATOM     13  H   UNL     1       2.317  -2.407   0.540  0.00  0.00    +0.000 HD
ENDBRANCH   7  11
ENDBRANCH   3   6
BRANCH   2  14
ATOM     14  C   UNL     1      -1.831  -1.738   0.713  0.00  0.00    +0.000 C 
BRANCH  14  15
ATOM     15  C   UNL     1      -2.975  -1.190  -0.133  0.00  0.00    +0.000 C 
BRANCH  15  16
ATOM     16  C   UNL     1      -3.442   0.172   0.379  0.00  0.00    +0.000 C 
BRANCH  16  17
ATOM     17  C   UNL     1      -4.614   0.704  -0.447  0.00  0.00    +0.000 C 
ATOM     18  C   UNL     1      -5.061   2.074   0.038  0.00  0.00    +0.000 C 
ENDBRANCH  16  17
ENDBRANCH  15  16
ENDBRANCH  14  15
ENDBRANCH   2  14
TORSDOF 6
