REMARK  Name = 53334700
REMARK  5 active torsions:
REMARK  status: ('A' for Active; 'I' for Inactive)
REMARK    1  A    between atoms: N_2  and  C_12
REMARK    2  A    between atoms: N_4  and  C_15
REMARK    3  A    between atoms: C_7  and  C_10
REMARK    4  A    between atoms: C_10  and  C_12
REMARK    5  A    between atoms: C_13  and  C_14
REMARK                            x       y       z     vdW  Elec       q    Type
REMARK                         _______ _______ _______ _____ _____    ______ ____
ROOT
ATOM      1  O   UNL     1      -1.483  -2.319   0.969  0.00  0.00    +0.000 OA
ATOM      2  N   UNL     1      -0.104  -1.278  -0.578  0.00  0.00    +0.000 N 
ATOM      3  C   UNL     1      -1.257  -1.399   0.188  0.00  0.00    +0.000 C 
ATOM      4  H   UNL     1      -0.003  -0.484  -1.204  0.00  0.00    +0.000 HD
ENDROOT
BRANCH   3   6
ATOM      5  N   UNL     1      -2.930   1.991   0.102  0.00  0.00    +0.000 NA
ATOM      6  C   UNL     1      -2.277  -0.335   0.005  0.00  0.00    +0.000 A 
ATOM      7  C   UNL     1      -2.020   1.002   0.258  0.00  0.00    +0.000 A 
ATOM      8  C   UNL     1      -3.550  -0.681  -0.436  0.00  0.00    +0.000 A 
ATOM      9  C   UNL     1      -4.513   0.307  -0.607  0.00  0.00    +0.000 A 
ATOM     10  C   UNL     1      -4.156   1.616  -0.327  0.00  0.00    +0.000 A 
BRANCH   7  11
ATOM     11  N   UNL     1      -0.726   1.363   0.709  0.00  0.00    +0.000 N 
ATOM     12  H   UNL     1      -0.564   2.348   0.880  0.00  0.00    +0.000 HD
ATOM     13  H   UNL     1      -0.213   0.699   1.277  0.00  0.00    +0.000 HD
ENDBRANCH   7  11
ENDBRANCH   3   6
BRANCH   2  14
ATOM     14  C   UNL     1       0.964  -2.240  -0.530  0.00  0.00    +0.000 C 
BRANCH  14  15
ATOM     15  C   UNL     1       2.011  -1.905   0.524  0.00  0.00    +0.000 C 
BRANCH  15  18
ATOM     16  C   UNL     1       3.378  -0.440  -1.060  0.00  0.00    +0.000 C 
ATOM     17  C   UNL     1       4.314   0.769  -1.132  0.00  0.00    +0.000 C 
ATOM     18  C   UNL     1       2.687  -0.590   0.273  0.00  0.00    +0.000 C 
ATOM     19  C   UNL     1       3.675   2.000  -0.502  0.00  0.00    +0.000 C 
ATOM     20  C   UNL     1       3.309   1.742   0.960  0.00  0.00    +0.000 C 
ATOM     21  C   UNL     1       2.677   0.399   1.183  0.00  0.00    +0.000 C 
ENDBRANCH  15  18
ENDBRANCH  14  15
ENDBRANCH   2  14
TORSDOF 5
