REMARK  Name = 53388501
REMARK  12 active torsions:
REMARK  status: ('A' for Active; 'I' for Inactive)
REMARK    1  A    between atoms: N_2  and  C_6
REMARK    2  A    between atoms: N_2  and  C_7
REMARK    3  A    between atoms: N_2  and  C_8
REMARK    4  A    between atoms: N_2  and  C_9
REMARK    5  A    between atoms: N_3  and  C_10
REMARK    6  A    between atoms: N_3  and  C_12
REMARK    7  A    between atoms: N_3  and  C_13
REMARK    8  A    between atoms: N_5  and  C_11
REMARK    9  A    between atoms: C_10  and  C_11
REMARK   10  A    between atoms: C_12  and  C_19
REMARK   11  A    between atoms: C_13  and  C_20
REMARK   12  A    between atoms: C_15  and  C_18
REMARK                            x       y       z     vdW  Elec       q    Type
REMARK                         _______ _______ _______ _____ _____    ______ ____
ROOT
ATOM      1  O   UNL     1       0.806   1.059   1.718  0.00  0.00    +0.000 OA
ATOM      2  N   UNL     1       1.235  -0.718   0.291  0.00  0.00    +0.000 N 
ATOM      3  C   UNL     1       0.389   0.217   0.901  0.00  0.00    +0.000 C 
ATOM      4  H   UNL     1       0.864  -1.352  -0.409  0.00  0.00    +0.000 HD
ENDROOT
BRANCH   3   8
ATOM      5  N   UNL     1      -2.910  -1.163  -0.175  0.00  0.00    +0.000 NA
ATOM      6  C   UNL     1      -3.663  -0.043  -0.096  0.00  0.00    +0.000 A 
ATOM      7  C   UNL     1      -3.174   1.193   0.296  0.00  0.00    +0.000 A 
ATOM      8  C   UNL     1      -1.021   0.154   0.560  0.00  0.00    +0.000 A 
ATOM      9  C   UNL     1      -1.827   1.285   0.628  0.00  0.00    +0.000 A 
ATOM     10  C   UNL     1      -1.606  -1.035   0.156  0.00  0.00    +0.000 A 
BRANCH   6  11
ATOM     11  N   UNL     1      -5.147  -0.132  -0.460  0.00  0.00    +0.000 NA
ATOM     12  C   UNL     1      -5.423   0.813  -1.626  0.00  0.00    +0.000 C 
ATOM     13  C   UNL     1      -5.976   0.256   0.761  0.00  0.00    +0.000 C 
ATOM     14  C   UNL     1      -5.554  -1.542  -0.882  0.00  0.00    +0.000 C 
ENDBRANCH   6  11
ENDBRANCH   3   8
BRANCH   2  15
ATOM     15  C   UNL     1       2.655  -0.798   0.545  0.00  0.00    +0.000 C 
BRANCH  15  16
ATOM     16  C   UNL     1       3.438   0.082  -0.419  0.00  0.00    +0.000 C 
BRANCH  16  17
ATOM     17  N   UNL     1       4.864   0.009  -0.128  0.00  0.00    +0.000 NA
BRANCH  17  18
ATOM     18  C   UNL     1       5.620   0.882  -1.028  0.00  0.00    +0.000 C 
ATOM     19  C   UNL     1       5.139   2.320  -0.930  0.00  0.00    +0.000 C 
ENDBRANCH  17  18
BRANCH  17  20
ATOM     20  C   UNL     1       5.343  -1.370  -0.239  0.00  0.00    +0.000 C 
ATOM     21  C   UNL     1       6.814  -1.471   0.127  0.00  0.00    +0.000 C 
ENDBRANCH  17  20
ENDBRANCH  16  17
ENDBRANCH  15  16
ENDBRANCH   2  15
TORSDOF 7
