REMARK  Name = 53388495
REMARK  10 active torsions:
REMARK  status: ('A' for Active; 'I' for Inactive)
REMARK    1  A    between atoms: N_2  and  C_6
REMARK    2  A    between atoms: N_2  and  C_7
REMARK    3  A    between atoms: N_2  and  C_8
REMARK    4  A    between atoms: N_3  and  C_9
REMARK    5  A    between atoms: N_4  and  C_18
REMARK    6  A    between atoms: N_4  and  C_19
REMARK    7  A    between atoms: C_6  and  C_9
REMARK    8  A    between atoms: C_7  and  C_10
REMARK    9  A    between atoms: C_8  and  C_11
REMARK   10  A    between atoms: C_12  and  C_13
REMARK                            x       y       z     vdW  Elec       q    Type
REMARK                         _______ _______ _______ _____ _____    ______ ____
ROOT
ATOM      1  O   UNL     1       0.384  -1.242  -1.656  0.00  0.00    +0.000 OA
ATOM      2  N   UNL     1       0.930   0.674  -0.468  0.00  0.00    +0.000 N 
ATOM      3  C   UNL     1       0.058  -0.301  -0.936  0.00  0.00    +0.000 C 
ATOM      4  H   UNL     1       0.602   1.395   0.167  0.00  0.00    +0.000 HD
ENDROOT
BRANCH   3   7
ATOM      5  N   UNL     1      -5.348   0.173   0.566  0.00  0.00    +0.000 N 
ATOM      6  N   UNL     1      -3.502  -1.187  -0.084  0.00  0.00    +0.000 NA
ATOM      7  C   UNL     1      -1.365  -0.152  -0.538  0.00  0.00    +0.000 A 
ATOM      8  C   UNL     1      -1.902   1.099  -0.251  0.00  0.00    +0.000 A 
ATOM      9  C   UNL     1      -3.988   0.045   0.187  0.00  0.00    +0.000 A 
ATOM     10  C   UNL     1      -2.200  -1.253  -0.440  0.00  0.00    +0.000 A 
ATOM     11  C   UNL     1      -3.237   1.208   0.119  0.00  0.00    +0.000 A 
ATOM     12  C   UNL     1      -6.192  -0.998   0.650  0.00  0.00    +0.000 C 
ATOM     13  C   UNL     1      -5.901   1.475   0.863  0.00  0.00    +0.000 C 
ENDBRANCH   3   7
BRANCH   2  14
ATOM     14  C   UNL     1       2.332   0.681  -0.787  0.00  0.00    +0.000 C 
BRANCH  14  15
ATOM     15  C   UNL     1       3.135  -0.105   0.239  0.00  0.00    +0.000 C 
BRANCH  15  16
ATOM     16  N   UNL     1       4.552  -0.110  -0.119  0.00  0.00    +0.000 NA
BRANCH  16  17
ATOM     17  C   UNL     1       5.181   1.154   0.261  0.00  0.00    +0.000 C 
ATOM     18  C   UNL     1       6.640   1.190  -0.160  0.00  0.00    +0.000 C 
ENDBRANCH  16  17
BRANCH  16  19
ATOM     19  C   UNL     1       5.237  -1.234   0.519  0.00  0.00    +0.000 C 
ATOM     20  C   UNL     1       5.186  -1.118   2.034  0.00  0.00    +0.000 C 
ENDBRANCH  16  19
ENDBRANCH  15  16
ENDBRANCH  14  15
ENDBRANCH   2  14
TORSDOF 6
