REMARK  Name = 53618873
REMARK  4 active torsions:
REMARK  status: ('A' for Active; 'I' for Inactive)
REMARK    1  A    between atoms: N_2  and  C_12
REMARK    2  A    between atoms: N_3  and  C_11
REMARK    3  A    between atoms: C_6  and  C_11
REMARK    4  A    between atoms: C_13  and  C_15
REMARK                            x       y       z     vdW  Elec       q    Type
REMARK                         _______ _______ _______ _____ _____    ______ ____
ROOT
ATOM      1  N   UNL     1       1.762   1.863   0.103  0.00  0.00    +0.000 NA
ATOM      2  C   UNL     1       1.236   0.619   0.044  0.00  0.00    +0.000 A 
ATOM      3  C   UNL     1       1.990  -0.537  -0.075  0.00  0.00    +0.000 A 
ATOM      4  C   UNL     1       3.373  -0.409  -0.139  0.00  0.00    +0.000 A 
ATOM      5  C   UNL     1       3.110   1.948   0.037  0.00  0.00    +0.000 A 
ATOM      6  C   UNL     1       3.952   0.854  -0.082  0.00  0.00    +0.000 A 
ENDROOT
BRANCH   2   7
ATOM      7  N   UNL     1      -0.158   0.498   0.107  0.00  0.00    +0.000 N 
ATOM      8  C   UNL     1      -3.041   0.362   0.334  0.00  0.00    +0.000 C 
ATOM      9  C   UNL     1      -2.120  -0.351   1.330  0.00  0.00    +0.000 C 
ATOM     10  C   UNL     1      -2.344   0.458  -1.026  0.00  0.00    +0.000 C 
ATOM     11  C   UNL     1      -0.765   0.346   1.436  0.00  0.00    +0.000 C 
ATOM     12  C   UNL     1      -0.984   1.148  -0.916  0.00  0.00    +0.000 C 
BRANCH   8  13
ATOM     13  C   UNL     1      -4.377  -0.367   0.211  0.00  0.00    +0.000 C 
BRANCH  13  14
ATOM     14  N   UNL     1      -5.259   0.320  -0.721  0.00  0.00    +0.000 NA
ATOM     15  H   UNL     1      -6.162  -0.151  -0.743  0.00  0.00    +0.000 HD
ATOM     16  H   UNL     1      -5.438   1.267  -0.392  0.00  0.00    +0.000 HD
ENDBRANCH  13  14
ENDBRANCH   8  13
ENDBRANCH   2   7
BRANCH   3  19
ATOM     17  O   UNL     1       1.169  -2.522   0.891  0.00  0.00    +0.000 OA
ATOM     18  N   UNL     1       1.063  -2.365  -1.394  0.00  0.00    +0.000 N 
ATOM     19  C   UNL     1       1.393  -1.864  -0.139  0.00  0.00    +0.000 C 
ATOM     20  H   UNL     1       1.230  -1.837  -2.245  0.00  0.00    +0.000 HD
ATOM     21  H   UNL     1       0.639  -3.280  -1.496  0.00  0.00    +0.000 HD
ENDBRANCH   3  19
TORSDOF 4
