REMARK  Name = 5371876
REMARK  4 active torsions:
REMARK  status: ('A' for Active; 'I' for Inactive)
REMARK    1  A    between atoms: N_2  and  C_9
REMARK    2  A    between atoms: N_3  and  C_11
REMARK    3  A    between atoms: N_3  and  C_13
REMARK    4  A    between atoms: N_3  and  C_14
REMARK                            x       y       z     vdW  Elec       q    Type
REMARK                         _______ _______ _______ _____ _____    ______ ____
ROOT
ATOM      1  O   UNL     1       0.213   2.236   0.034  0.00  0.00    +0.000 OA
ATOM      2  N   UNL     1      -0.589   0.044  -0.178  0.00  0.00    +0.000 N 
ATOM      3  N   UNL     1       0.942  -1.784  -0.205  0.00  0.00    +0.000 NA
ATOM      4  N   UNL     1       3.235  -1.418  -0.020  0.00  0.00    +0.000 NA
ATOM      5  C   UNL     1       1.783   0.502   0.018  0.00  0.00    +0.000 A 
ATOM      6  C   UNL     1       0.401   1.025  -0.040  0.00  0.00    +0.000 A 
ATOM      7  C   UNL     1       1.998  -0.870  -0.066  0.00  0.00    +0.000 A 
ATOM      8  C   UNL     1      -0.256  -1.300  -0.252  0.00  0.00    +0.000 A 
ATOM      9  C   UNL     1       2.880   1.351   0.155  0.00  0.00    +0.000 A 
ATOM     10  C   UNL     1       4.157   0.807   0.204  0.00  0.00    +0.000 A 
ATOM     11  C   UNL     1       4.280  -0.569   0.113  0.00  0.00    +0.000 A 
ENDROOT
BRANCH   2  12
ATOM     12  C   UNL     1      -1.913   0.414  -0.243  0.00  0.00    +0.000 C 
ATOM     13  C   UNL     1      -2.905  -0.366   0.196  0.00  0.00    +0.000 C 
BRANCH  13  14
ATOM     14  N   UNL     1      -4.236  -0.099   0.180  0.00  0.00    +0.000 N 
ATOM     15  C   UNL     1      -4.759   1.156  -0.356  0.00  0.00    +0.000 C 
ATOM     16  C   UNL     1      -5.230  -1.131   0.460  0.00  0.00    +0.000 C 
ENDBRANCH  13  14
ENDBRANCH   2  12
TORSDOF 2
