REMARK  Name = 53726685
REMARK  4 active torsions:
REMARK  status: ('A' for Active; 'I' for Inactive)
REMARK    1  A    between atoms: N_2  and  C_11
REMARK    2  A    between atoms: N_2  and  C_12
REMARK    3  A    between atoms: N_4  and  C_8
REMARK    4  A    between atoms: C_6  and  C_7
REMARK                            x       y       z     vdW  Elec       q    Type
REMARK                         _______ _______ _______ _____ _____    ______ ____
ROOT
ATOM      1  N   UNL     1      -2.266   1.220   0.212  0.00  0.00    +0.000 NA
ATOM      2  N   UNL     1      -0.264   2.400  -0.249  0.00  0.00    +0.000 N 
ATOM      3  C   UNL     1      -0.237  -0.008  -0.257  0.00  0.00    +0.000 A 
ATOM      4  C   UNL     1      -0.919  -1.209  -0.101  0.00  0.00    +0.000 A 
ATOM      5  C   UNL     1      -0.949   1.169  -0.092  0.00  0.00    +0.000 A 
ATOM      6  C   UNL     1      -2.274  -1.198   0.211  0.00  0.00    +0.000 A 
ATOM      7  C   UNL     1      -2.895   0.032   0.356  0.00  0.00    +0.000 A 
ATOM      8  H   UNL     1       0.717   2.443  -0.002  0.00  0.00    +0.000 HD
ATOM      9  H   UNL     1      -0.814   3.241  -0.127  0.00  0.00    +0.000 HD
ENDROOT
BRANCH   3  12
ATOM     10  O   UNL     1       1.478   0.021  -1.787  0.00  0.00    +0.000 OA
ATOM     11  N   UNL     1       2.122   0.005   0.460  0.00  0.00    +0.000 N 
ATOM     12  C   UNL     1       1.197   0.003  -0.589  0.00  0.00    +0.000 C 
ATOM     13  C   UNL     1       3.559   0.031   0.228  0.00  0.00    +0.000 C 
ATOM     14  C   UNL     1       1.708  -0.017   1.862  0.00  0.00    +0.000 C 
ENDBRANCH   3  12
BRANCH   4  15
ATOM     15  N   UNL     1      -0.260  -2.449  -0.254  0.00  0.00    +0.000 N 
ATOM     16  H   UNL     1      -0.776  -3.310  -0.134  0.00  0.00    +0.000 HD
ATOM     17  H   UNL     1       0.726  -2.486  -0.475  0.00  0.00    +0.000 HD
ENDBRANCH   4  15
TORSDOF 2
