REMARK  Name = 53833611
REMARK  7 active torsions:
REMARK  status: ('A' for Active; 'I' for Inactive)
REMARK    1  A    between atoms: N_2  and  C_6
REMARK    2  A    between atoms: C_5  and  C_9
REMARK    3  A    between atoms: C_5  and  C_13
REMARK    4  A    between atoms: C_6  and  C_10
REMARK    5  A    between atoms: C_7  and  C_8
REMARK    6  A    between atoms: C_7  and  C_14
REMARK    7  A    between atoms: C_11  and  C_12
REMARK                            x       y       z     vdW  Elec       q    Type
REMARK                         _______ _______ _______ _____ _____    ______ ____
ROOT
ATOM      1  O   UNL     1      -0.635  -0.265  -1.821  0.00  0.00    +0.000 OA
ATOM      2  N   UNL     1      -0.553  -1.575   0.093  0.00  0.00    +0.000 N 
ATOM      3  C   UNL     1      -1.145  -0.665  -0.778  0.00  0.00    +0.000 C 
ATOM      4  H   UNL     1      -1.002  -1.810   0.972  0.00  0.00    +0.000 HD
ENDROOT
BRANCH   3   7
ATOM      5  N   UNL     1      -4.541  -0.471   0.841  0.00  0.00    +0.000 NA
ATOM      6  N   UNL     1      -6.205   1.234   0.802  0.00  0.00    +0.000 N 
ATOM      7  C   UNL     1      -2.476  -0.143  -0.374  0.00  0.00    +0.000 A 
ATOM      8  C   UNL     1      -2.915   1.106  -0.798  0.00  0.00    +0.000 A 
ATOM      9  C   UNL     1      -3.319  -0.886   0.437  0.00  0.00    +0.000 A 
ATOM     10  C   UNL     1      -4.166   1.568  -0.403  0.00  0.00    +0.000 A 
ATOM     11  C   UNL     1      -4.933   0.749   0.409  0.00  0.00    +0.000 A 
ATOM     12  H   UNL     1      -6.340   2.235   0.870  0.00  0.00    +0.000 HD
ATOM     13  H   UNL     1      -6.760   0.634   1.401  0.00  0.00    +0.000 HD
ENDBRANCH   3   7
BRANCH   2  14
ATOM     14  C   UNL     1       0.741  -2.149  -0.147  0.00  0.00    +0.000 C 
BRANCH  14  16
ATOM     15  C   UNL     1       2.787  -0.715  -0.218  0.00  0.00    +0.000 C 
ATOM     16  C   UNL     1       1.784  -1.277   0.477  0.00  0.00    +0.000 C 
BRANCH  15  17
ATOM     17  C   UNL     1       3.848   0.143   0.311  0.00  0.00    +0.000 C 
ATOM     18  C   UNL     1       4.779   0.622  -0.540  0.00  0.00    +0.000 C 
ATOM     19  C   UNL     1       3.847   0.427   1.791  0.00  0.00    +0.000 C 
BRANCH  18  20
ATOM     20  C   UNL     1       5.928   1.540  -0.233  0.00  0.00    +0.000 C 
ATOM     21  C   UNL     1       7.175   0.759   0.150  0.00  0.00    +0.000 C 
ENDBRANCH  18  20
ENDBRANCH  15  17
ENDBRANCH  14  16
ENDBRANCH   2  14
TORSDOF 5
