REMARK  Name = 54082590
REMARK  3 active torsions:
REMARK  status: ('A' for Active; 'I' for Inactive)
REMARK    1  A    between atoms: N_3  and  C_9
REMARK    2  A    between atoms: C_4  and  C_6
REMARK    3  A    between atoms: C_6  and  C_10
REMARK                            x       y       z     vdW  Elec       q    Type
REMARK                         _______ _______ _______ _____ _____    ______ ____
ROOT
ATOM      1  N   UNL     1       1.017   1.198  -0.197  0.00  0.00    +0.000 NA
ATOM      2  C   UNL     1      -1.086   0.025   0.016  0.00  0.00    +0.000 A 
ATOM      3  C   UNL     1      -0.407  -1.173   0.210  0.00  0.00    +0.000 A 
ATOM      4  C   UNL     1      -0.334   1.172  -0.181  0.00  0.00    +0.000 A 
ATOM      5  C   UNL     1       0.983  -1.186   0.200  0.00  0.00    +0.000 A 
ATOM      6  C   UNL     1       1.643   0.015  -0.005  0.00  0.00    +0.000 A 
ENDROOT
BRANCH   2   8
ATOM      7  O   UNL     1      -3.156   1.090   0.398  0.00  0.00    +0.000 OA
ATOM      8  C   UNL     1      -2.538   0.073   0.022  0.00  0.00    +0.000 C 
ATOM      9  C   UNL     1      -3.350  -1.134  -0.437  0.00  0.00    +0.000 C 
ENDBRANCH   2   8
BRANCH   6  10
ATOM     10  N   UNL     1       3.028  -0.024  -0.011  0.00  0.00    +0.000 NA
ATOM     11  C   UNL     1       4.200  -0.057  -0.015  0.00  0.00    +0.000 C 
ENDBRANCH   6  10
TORSDOF 2
