REMARK  Name = 54122437
REMARK  7 active torsions:
REMARK  status: ('A' for Active; 'I' for Inactive)
REMARK    1  A    between atoms: N_2  and  C_8
REMARK    2  A    between atoms: N_2  and  C_10
REMARK    3  A    between atoms: N_3  and  C_9
REMARK    4  A    between atoms: C_6  and  C_7
REMARK    5  A    between atoms: C_6  and  C_8
REMARK    6  A    between atoms: C_7  and  C_9
REMARK    7  A    between atoms: C_11  and  C_14
REMARK                            x       y       z     vdW  Elec       q    Type
REMARK                         _______ _______ _______ _____ _____    ______ ____
ROOT
ATOM      1  N   UNL     1      -1.607   1.807  -0.136  0.00  0.00    +0.000 NA
ATOM      2  C   UNL     1      -1.059   0.589   0.076  0.00  0.00    +0.000 A 
ATOM      3  C   UNL     1      -1.766  -0.601   0.011  0.00  0.00    +0.000 A 
ATOM      4  C   UNL     1      -3.122  -0.537  -0.290  0.00  0.00    +0.000 A 
ATOM      5  C   UNL     1      -3.721   0.697  -0.514  0.00  0.00    +0.000 A 
ATOM      6  C   UNL     1      -2.927   1.829  -0.426  0.00  0.00    +0.000 A 
ENDROOT
BRANCH   3   9
ATOM      7  O   UNL     1      -1.113  -2.401   1.383  0.00  0.00    +0.000 OA
ATOM      8  N   UNL     1      -0.612  -2.567  -0.848  0.00  0.00    +0.000 N 
ATOM      9  C   UNL     1      -1.148  -1.899   0.247  0.00  0.00    +0.000 C 
ATOM     10  H   UNL     1      -0.636  -2.175  -1.784  0.00  0.00    +0.000 HD
ATOM     11  H   UNL     1      -0.175  -3.477  -0.742  0.00  0.00    +0.000 HD
ENDBRANCH   3   9
BRANCH   2  12
ATOM     12  N   UNL     1       0.292   0.534   0.378  0.00  0.00    +0.000 N 
ATOM     13  H   UNL     1       0.612  -0.297   0.866  0.00  0.00    +0.000 HD
BRANCH  12  14
ATOM     14  C   UNL     1       1.140   1.698   0.475  0.00  0.00    +0.000 C 
BRANCH  14  15
ATOM     15  C   UNL     1       2.576   1.302   0.812  0.00  0.00    +0.000 C 
BRANCH  15  16
ATOM     16  C   UNL     1       3.196   0.383  -0.249  0.00  0.00    +0.000 C 
BRANCH  16  17
ATOM     17  C   UNL     1       4.655   0.028   0.046  0.00  0.00    +0.000 C 
BRANCH  17  18
ATOM     18  N   UNL     1       5.214  -0.860  -0.966  0.00  0.00    +0.000 NA
ATOM     19  H   UNL     1       6.200  -1.023  -0.766  0.00  0.00    +0.000 HD
ATOM     20  H   UNL     1       5.178  -0.406  -1.878  0.00  0.00    +0.000 HD
ENDBRANCH  17  18
ENDBRANCH  16  17
ENDBRANCH  15  16
ENDBRANCH  14  15
ENDBRANCH  12  14
ENDBRANCH   2  12
TORSDOF 7
