REMARK  Name = 54139139
REMARK  5 active torsions:
REMARK  status: ('A' for Active; 'I' for Inactive)
REMARK    1  A    between atoms: N_3  and  C_9
REMARK    2  A    between atoms: C_7  and  C_12
REMARK    3  A    between atoms: C_13  and  C_14
REMARK    4  A    between atoms: C_13  and  C_15
REMARK    5  A    between atoms: C_13  and  C_16
REMARK                            x       y       z     vdW  Elec       q    Type
REMARK                         _______ _______ _______ _____ _____    ______ ____
ROOT
ATOM      1  N   UNL     1      -0.697   0.964   0.231  0.00  0.00    +0.000 NA
ATOM      2  C   UNL     1      -2.892  -0.014  -0.027  0.00  0.00    +0.000 A 
ATOM      3  C   UNL     1      -2.408  -1.238   0.420  0.00  0.00    +0.000 A 
ATOM      4  C   UNL     1      -0.262  -0.241   0.661  0.00  0.00    +0.000 A 
ATOM      5  C   UNL     1      -1.068  -1.362   0.773  0.00  0.00    +0.000 A 
ATOM      6  C   UNL     1      -2.004   1.047  -0.103  0.00  0.00    +0.000 A 
ENDROOT
BRANCH   2   9
ATOM      7  O   UNL     1      -5.095  -0.795  -0.323  0.00  0.00    +0.000 OA
ATOM      8  N   UNL     1      -4.699   1.403  -0.842  0.00  0.00    +0.000 N 
ATOM      9  C   UNL     1      -4.286   0.148  -0.403  0.00  0.00    +0.000 C 
ATOM     10  H   UNL     1      -4.107   2.220  -0.930  0.00  0.00    +0.000 HD
ATOM     11  H   UNL     1      -5.669   1.546  -1.104  0.00  0.00    +0.000 HD
ENDBRANCH   2   9
BRANCH   4  12
ATOM     12  N   UNL     1       1.091  -0.316   1.006  0.00  0.00    +0.000 NA
ATOM     13  C   UNL     1       1.936  -0.041   0.060  0.00  0.00    +0.000 C 
BRANCH  13  14
ATOM     14  C   UNL     1       3.422  -0.088   0.313  0.00  0.00    +0.000 C 
BRANCH  14  16
ATOM     15  N   UNL     1       4.504  -1.917  -1.237  0.00  0.00    +0.000 NA
ATOM     16  C   UNL     1       4.027  -1.109  -0.555  0.00  0.00    +0.000 C 
ENDBRANCH  14  16
BRANCH  14  18
ATOM     17  N   UNL     1       4.438   2.308  -0.070  0.00  0.00    +0.000 NA
ATOM     18  C   UNL     1       3.990   1.251   0.097  0.00  0.00    +0.000 C 
ENDBRANCH  14  18
ENDBRANCH  13  14
ENDBRANCH   4  12
TORSDOF 5
