REMARK  Name = 54238195
REMARK  1 active torsions:
REMARK  status: ('A' for Active; 'I' for Inactive)
REMARK    1  A    between atoms: N_5  and  C_11
REMARK                            x       y       z     vdW  Elec       q    Type
REMARK                         _______ _______ _______ _____ _____    ______ ____
ROOT
ATOM      1  S   UNL     1      -1.774   0.999   0.146  0.00  0.00    +0.000 S 
ATOM      2  O   UNL     1      -2.881   1.566  -0.601  0.00  0.00    +0.000 OA
ATOM      3  O   UNL     1      -1.678   1.201   1.581  0.00  0.00    +0.000 OA
ATOM      4  O   UNL     1      -0.346  -2.635  -0.115  0.00  0.00    +0.000 OA
ATOM      5  N   UNL     1      -1.665  -0.695  -0.173  0.00  0.00    +0.000 N 
ATOM      6  N   UNL     1      -0.330   1.520  -0.596  0.00  0.00    +0.000 N 
ATOM      7  N   UNL     1       1.976   1.530  -0.238  0.00  0.00    +0.000 NA
ATOM      8  C   UNL     1       0.822  -0.590  -0.044  0.00  0.00    +0.000 A 
ATOM      9  C   UNL     1       0.842   0.791  -0.216  0.00  0.00    +0.000 A 
ATOM     10  C   UNL     1      -0.412  -1.411  -0.110  0.00  0.00    +0.000 C 
ATOM     11  C   UNL     1      -2.950  -1.444  -0.057  0.00  0.00    +0.000 C 
ATOM     12  C   UNL     1       2.043  -1.226   0.196  0.00  0.00    +0.000 A 
ATOM     13  C   UNL     1       3.220  -0.484   0.227  0.00  0.00    +0.000 A 
ATOM     14  C   UNL     1       3.134   0.877   0.001  0.00  0.00    +0.000 A 
ATOM     15  H   UNL     1      -0.171   2.535  -0.626  0.00  0.00    +0.000 HD
ENDROOT
TORSDOF 0
