REMARK  Name = 54245880
REMARK  9 active torsions:
REMARK  status: ('A' for Active; 'I' for Inactive)
REMARK    1  A    between atoms: N_2  and  C_6
REMARK    2  A    between atoms: N_2  and  C_8
REMARK    3  A    between atoms: N_2  and  C_9
REMARK    4  A    between atoms: N_3  and  C_7
REMARK    5  A    between atoms: C_6  and  C_7
REMARK    6  A    between atoms: C_7  and  C_10
REMARK    7  A    between atoms: C_8  and  C_11
REMARK    8  A    between atoms: C_9  and  C_12
REMARK    9  A    between atoms: C_13  and  C_14
REMARK                            x       y       z     vdW  Elec       q    Type
REMARK                         _______ _______ _______ _____ _____    ______ ____
ROOT
ATOM      1  O   UNL     1      -0.258   0.574  -1.669  0.00  0.00    +0.000 OA
ATOM      2  N   UNL     1       0.089  -0.944   0.050  0.00  0.00    +0.000 N 
ATOM      3  C   UNL     1      -0.680  -0.093  -0.727  0.00  0.00    +0.000 C 
ATOM      4  H   UNL     1      -0.307  -1.380   0.876  0.00  0.00    +0.000 HD
ENDROOT
BRANCH   3   7
ATOM      5  N   UNL     1      -4.144   1.323  -0.301  0.00  0.00    +0.000 NA
ATOM      6  N   UNL     1      -6.109   0.402   0.682  0.00  0.00    +0.000 N 
ATOM      7  C   UNL     1      -2.111   0.015  -0.345  0.00  0.00    +0.000 A 
ATOM      8  C   UNL     1      -2.762  -1.031   0.300  0.00  0.00    +0.000 A 
ATOM      9  C   UNL     1      -2.840   1.160  -0.621  0.00  0.00    +0.000 A 
ATOM     10  C   UNL     1      -4.103  -0.901   0.644  0.00  0.00    +0.000 A 
ATOM     11  C   UNL     1      -4.743   0.285   0.325  0.00  0.00    +0.000 A 
ATOM     12  H   UNL     1      -6.574   1.268   0.441  0.00  0.00    +0.000 HD
ATOM     13  H   UNL     1      -6.666  -0.442   0.740  0.00  0.00    +0.000 HD
ENDBRANCH   3   7
BRANCH   2  14
ATOM     14  C   UNL     1       1.504  -1.137  -0.181  0.00  0.00    +0.000 C 
ATOM     15  C   UNL     1       1.894  -2.570   0.175  0.00  0.00    +0.000 C 
BRANCH  14  16
ATOM     16  C   UNL     1       2.294  -0.082   0.604  0.00  0.00    +0.000 C 
BRANCH  16  17
ATOM     17  N   UNL     1       3.730  -0.169   0.362  0.00  0.00    +0.000 NA
BRANCH  17  18
ATOM     18  C   UNL     1       4.068   0.401  -0.942  0.00  0.00    +0.000 C 
ATOM     19  C   UNL     1       5.552   0.258  -1.236  0.00  0.00    +0.000 C 
ENDBRANCH  17  18
BRANCH  17  20
ATOM     20  C   UNL     1       4.473   0.513   1.423  0.00  0.00    +0.000 C 
ATOM     21  C   UNL     1       4.146   1.996   1.456  0.00  0.00    +0.000 C 
ENDBRANCH  17  20
ENDBRANCH  16  17
ENDBRANCH  14  16
ENDBRANCH   2  14
TORSDOF 6
