REMARK  Name = 54341013
REMARK  4 active torsions:
REMARK  status: ('A' for Active; 'I' for Inactive)
REMARK    1  A    between atoms: P_1  and  O_2
REMARK    2  A    between atoms: P_1  and  O_3
REMARK    3  A    between atoms: P_1  and  N_6
REMARK    4  A    between atoms: C_11  and  C_14
REMARK                            x       y       z     vdW  Elec       q    Type
REMARK                         _______ _______ _______ _____ _____    ______ ____
ROOT
ATOM      1  N   UNL     1       1.957   0.913   0.090  0.00  0.00    +0.000 N 
ATOM      2  N   UNL     1      -0.316   1.628   0.054  0.00  0.00    +0.000 NA
ATOM      3  C   UNL     1       0.573   0.609   0.060  0.00  0.00    +0.000 A 
ATOM      4  C   UNL     1       0.218  -0.730   0.039  0.00  0.00    +0.000 A 
ATOM      5  C   UNL     1      -2.081  -0.023   0.003  0.00  0.00    +0.000 A 
ATOM      6  C   UNL     1      -1.137  -1.044   0.010  0.00  0.00    +0.000 A 
ATOM      7  C   UNL     1      -1.623   1.285   0.026  0.00  0.00    +0.000 A 
ATOM      8  H   UNL     1       2.113   1.918   0.104  0.00  0.00    +0.000 HD
ENDROOT
BRANCH   5  11
ATOM      9  O   UNL     1      -3.924  -1.489  -0.032  0.00  0.00    +0.000 OA
ATOM     10  N   UNL     1      -4.389   0.756  -0.033  0.00  0.00    +0.000 N 
ATOM     11  C   UNL     1      -3.503  -0.318  -0.027  0.00  0.00    +0.000 C 
ATOM     12  H   UNL     1      -4.129   1.734  -0.025  0.00  0.00    +0.000 HD
ATOM     13  H   UNL     1      -5.389   0.578  -0.047  0.00  0.00    +0.000 HD
ENDBRANCH   5  11
BRANCH   1  14
ATOM     14  P   UNL     1       3.185  -0.182   0.076  0.00  0.00    +0.000 P 
ATOM     15  O   UNL     1       3.312  -1.212   1.171  0.00  0.00    +0.000 OA
BRANCH  14  16
ATOM     16  O   UNL     1       3.173  -0.885  -1.392  0.00  0.00    +0.000 OA
ATOM     17  H   UNL     1       3.818  -1.602  -1.574  0.00  0.00    +0.000 HD
ENDBRANCH  14  16
BRANCH  14  18
ATOM     18  O   UNL     1       4.553   0.692  -0.047  0.00  0.00    +0.000 OA
ATOM     19  H   UNL     1       5.414   0.223  -0.019  0.00  0.00    +0.000 HD
ENDBRANCH  14  18
ENDBRANCH   1  14
TORSDOF 4
