REMARK  Name = 54352395
REMARK  7 active torsions:
REMARK  status: ('A' for Active; 'I' for Inactive)
REMARK    1  A    between atoms: N_2  and  C_7
REMARK    2  A    between atoms: C_5  and  C_6
REMARK    3  A    between atoms: C_5  and  C_8
REMARK    4  A    between atoms: C_6  and  C_10
REMARK    5  A    between atoms: C_7  and  C_9
REMARK    6  A    between atoms: C_11  and  C_15
REMARK    7  A    between atoms: C_12  and  C_13
REMARK                            x       y       z     vdW  Elec       q    Type
REMARK                         _______ _______ _______ _____ _____    ______ ____
ROOT
ATOM      1  O   UNL     1       0.469  -0.947   1.680  0.00  0.00    +0.000 OA
ATOM      2  N   UNL     1       0.321  -1.571  -0.550  0.00  0.00    +0.000 N 
ATOM      3  C   UNL     1       0.944  -0.987   0.548  0.00  0.00    +0.000 C 
ATOM      4  H   UNL     1       0.741  -1.507  -1.471  0.00  0.00    +0.000 HD
ENDROOT
BRANCH   3   7
ATOM      5  N   UNL     1       3.910   1.307   0.902  0.00  0.00    +0.000 NA
ATOM      6  N   UNL     1       5.933   1.465  -0.347  0.00  0.00    +0.000 N 
ATOM      7  C   UNL     1       2.264  -0.355   0.293  0.00  0.00    +0.000 A 
ATOM      8  C   UNL     1       3.080  -0.795  -0.744  0.00  0.00    +0.000 A 
ATOM      9  C   UNL     1       2.721   0.689   1.080  0.00  0.00    +0.000 A 
ATOM     10  C   UNL     1       4.311  -0.184  -0.958  0.00  0.00    +0.000 A 
ATOM     11  C   UNL     1       4.676   0.853  -0.115  0.00  0.00    +0.000 A 
ATOM     12  H   UNL     1       6.668   0.912  -0.770  0.00  0.00    +0.000 HD
ATOM     13  H   UNL     1       6.199   2.219   0.275  0.00  0.00    +0.000 HD
ENDBRANCH   3   7
BRANCH   2  14
ATOM     14  C   UNL     1      -0.968  -2.199  -0.468  0.00  0.00    +0.000 C 
BRANCH  14  16
ATOM     15  C   UNL     1      -2.983  -0.851   0.139  0.00  0.00    +0.000 C 
ATOM     16  C   UNL     1      -2.026  -1.178  -0.744  0.00  0.00    +0.000 C 
BRANCH  15  17
ATOM     17  C   UNL     1      -4.059   0.127  -0.036  0.00  0.00    +0.000 C 
ATOM     18  C   UNL     1      -4.928   0.311   0.982  0.00  0.00    +0.000 C 
ATOM     19  C   UNL     1      -6.077   1.266   1.046  0.00  0.00    +0.000 C 
BRANCH  17  20
ATOM     20  C   UNL     1      -4.177   0.865  -1.354  0.00  0.00    +0.000 C 
ATOM     21  C   UNL     1      -3.410   2.182  -1.353  0.00  0.00    +0.000 C 
ENDBRANCH  17  20
ENDBRANCH  15  17
ENDBRANCH  14  16
ENDBRANCH   2  14
TORSDOF 5
