REMARK  Name = 54413526
REMARK  9 active torsions:
REMARK  status: ('A' for Active; 'I' for Inactive)
REMARK    1  A    between atoms: N_2  and  C_6
REMARK    2  A    between atoms: N_2  and  C_8
REMARK    3  A    between atoms: N_2  and  C_9
REMARK    4  A    between atoms: N_4  and  C_16
REMARK    5  A    between atoms: C_6  and  C_7
REMARK    6  A    between atoms: C_7  and  C_10
REMARK    7  A    between atoms: C_8  and  C_11
REMARK    8  A    between atoms: C_9  and  C_12
REMARK    9  A    between atoms: C_15  and  C_17
REMARK                            x       y       z     vdW  Elec       q    Type
REMARK                         _______ _______ _______ _____ _____    ______ ____
ROOT
ATOM      1  N   UNL     1      -1.999   2.032  -0.583  0.00  0.00    +0.000 NA
ATOM      2  C   UNL     1      -0.216   0.402  -0.676  0.00  0.00    +0.000 A 
ATOM      3  C   UNL     1      -1.085  -0.585  -0.225  0.00  0.00    +0.000 A 
ATOM      4  C   UNL     1      -0.718   1.683  -0.838  0.00  0.00    +0.000 A 
ATOM      5  C   UNL     1      -2.410  -0.265   0.048  0.00  0.00    +0.000 A 
ATOM      6  C   UNL     1      -2.814   1.046  -0.146  0.00  0.00    +0.000 A 
ENDROOT
BRANCH   5   9
ATOM      7  O   UNL     1      -3.464  -1.528   1.734  0.00  0.00    +0.000 OA
ATOM      8  N   UNL     1      -4.016  -2.033  -0.434  0.00  0.00    +0.000 N 
ATOM      9  C   UNL     1      -3.313  -1.306   0.520  0.00  0.00    +0.000 C 
ATOM     10  H   UNL     1      -4.663  -2.765  -0.161  0.00  0.00    +0.000 HD
ATOM     11  H   UNL     1      -3.911  -1.859  -1.429  0.00  0.00    +0.000 HD
ENDBRANCH   5   9
BRANCH   6  12
ATOM     12  N   UNL     1      -4.164   1.380   0.130  0.00  0.00    +0.000 N 
ATOM     13  H   UNL     1      -4.875   0.672  -0.006  0.00  0.00    +0.000 HD
ATOM     14  H   UNL     1      -4.429   2.346  -0.017  0.00  0.00    +0.000 HD
ENDBRANCH   6  12
BRANCH   2  15
ATOM     15  C   UNL     1       1.228   0.088  -0.981  0.00  0.00    +0.000 C 
BRANCH  15  16
ATOM     16  C   UNL     1       2.115   0.277   0.250  0.00  0.00    +0.000 C 
BRANCH  16  17
ATOM     17  N   UNL     1       3.514  -0.010  -0.064  0.00  0.00    +0.000 NA
BRANCH  17  18
ATOM     18  C   UNL     1       4.360   0.232   1.105  0.00  0.00    +0.000 C 
ATOM     19  C   UNL     1       4.219   1.662   1.598  0.00  0.00    +0.000 C 
ENDBRANCH  17  18
BRANCH  17  20
ATOM     20  C   UNL     1       3.662  -1.390  -0.525  0.00  0.00    +0.000 C 
ATOM     21  C   UNL     1       5.100  -1.688  -0.914  0.00  0.00    +0.000 C 
ENDBRANCH  17  20
ENDBRANCH  16  17
ENDBRANCH  15  16
ENDBRANCH   2  15
TORSDOF 7
