REMARK  Name = 54420120
REMARK  7 active torsions:
REMARK  status: ('A' for Active; 'I' for Inactive)
REMARK    1  A    between atoms: C_6  and  C_7
REMARK    2  A    between atoms: C_6  and  C_8
REMARK    3  A    between atoms: C_7  and  C_10
REMARK    4  A    between atoms: C_8  and  C_9
REMARK    5  A    between atoms: C_9  and  C_11
REMARK    6  A    between atoms: C_10  and  C_12
REMARK    7  A    between atoms: C_13  and  C_14
REMARK                            x       y       z     vdW  Elec       q    Type
REMARK                         _______ _______ _______ _____ _____    ______ ____
ROOT
ATOM      1  O   UNL     1      -1.210  -2.136  -0.192  0.00  0.00    +0.000 OA
ATOM      2  O   UNL     1       1.573  -2.364  -0.248  0.00  0.00    +0.000 OA
ATOM      3  N   UNL     1       0.342  -0.406   0.024  0.00  0.00    +0.000 N 
ATOM      4  C   UNL     1      -0.946  -0.947  -0.036  0.00  0.00    +0.000 C 
ATOM      5  C   UNL     1       1.516  -1.148  -0.086  0.00  0.00    +0.000 C 
ATOM      6  H   UNL     1       0.405   0.594   0.191  0.00  0.00    +0.000 HD
ENDROOT
BRANCH   5   9
ATOM      7  N   UNL     1       3.928   1.728  -0.399  0.00  0.00    +0.000 NA
ATOM      8  N   UNL     1       6.253   1.891   0.096  0.00  0.00    +0.000 N 
ATOM      9  C   UNL     1       2.778  -0.366  -0.029  0.00  0.00    +0.000 A 
ATOM     10  C   UNL     1       3.959  -0.944   0.424  0.00  0.00    +0.000 A 
ATOM     11  C   UNL     1       2.815   0.961  -0.425  0.00  0.00    +0.000 A 
ATOM     12  C   UNL     1       5.125  -0.186   0.466  0.00  0.00    +0.000 A 
ATOM     13  C   UNL     1       5.057   1.133   0.047  0.00  0.00    +0.000 A 
ATOM     14  H   UNL     1       6.953   1.643   0.784  0.00  0.00    +0.000 HD
ATOM     15  H   UNL     1       6.197   2.856  -0.205  0.00  0.00    +0.000 HD
ENDBRANCH   5   9
BRANCH   4  16
ATOM     16  C   UNL     1      -2.007   0.135   0.087  0.00  0.00    +0.000 C 
BRANCH  16  17
ATOM     17  C   UNL     1      -3.438  -0.400   0.028  0.00  0.00    +0.000 C 
BRANCH  17  18
ATOM     18  C   UNL     1      -4.479   0.724   0.076  0.00  0.00    +0.000 C 
BRANCH  18  19
ATOM     19  C   UNL     1      -5.923   0.215   0.025  0.00  0.00    +0.000 C 
BRANCH  19  20
ATOM     20  C   UNL     1      -6.963   1.334   0.092  0.00  0.00    +0.000 C 
ATOM     21  C   UNL     1      -8.379   0.778   0.049  0.00  0.00    +0.000 C 
ENDBRANCH  19  20
ENDBRANCH  18  19
ENDBRANCH  17  18
ENDBRANCH  16  17
ENDBRANCH   4  16
TORSDOF 6
