REMARK  Name = 54463046
REMARK  9 active torsions:
REMARK  status: ('A' for Active; 'I' for Inactive)
REMARK    1  A    between atoms: N_2  and  C_7
REMARK    2  A    between atoms: N_2  and  C_8
REMARK    3  A    between atoms: N_4  and  C_16
REMARK    4  A    between atoms: C_7  and  C_11
REMARK    5  A    between atoms: C_8  and  C_12
REMARK    6  A    between atoms: C_9  and  C_10
REMARK    7  A    between atoms: C_17  and  C_18
REMARK    8  A    between atoms: C_18  and  C_19
REMARK    9  A    between atoms: C_18  and  C_20
REMARK                            x       y       z     vdW  Elec       q    Type
REMARK                         _______ _______ _______ _____ _____    ______ ____
ROOT
ATOM      1  N   UNL     1      -0.430  -0.872   0.875  0.00  0.00    +0.000 NA
ATOM      2  C   UNL     1       1.808  -0.803  -0.037  0.00  0.00    +0.000 A 
ATOM      3  C   UNL     1       1.296  -0.950  -1.322  0.00  0.00    +0.000 A 
ATOM      4  C   UNL     1       0.911  -0.770   1.018  0.00  0.00    +0.000 A 
ATOM      5  C   UNL     1      -0.077  -1.057  -1.509  0.00  0.00    +0.000 A 
ATOM      6  C   UNL     1      -0.890  -1.012  -0.388  0.00  0.00    +0.000 A 
ENDROOT
BRANCH   2   9
ATOM      7  O   UNL     1       3.867  -1.742   0.364  0.00  0.00    +0.000 OA
ATOM      8  N   UNL     1       3.829   0.589   0.192  0.00  0.00    +0.000 N 
ATOM      9  C   UNL     1       3.256  -0.687   0.195  0.00  0.00    +0.000 C 
BRANCH   8  10
ATOM     10  C   UNL     1       3.035   1.798  -0.016  0.00  0.00    +0.000 C 
ATOM     11  C   UNL     1       2.520   2.355   1.294  0.00  0.00    +0.000 C 
ENDBRANCH   8  10
BRANCH   8  12
ATOM     12  C   UNL     1       5.256   0.799   0.397  0.00  0.00    +0.000 C 
ATOM     13  C   UNL     1       6.013   0.780  -0.914  0.00  0.00    +0.000 C 
ENDBRANCH   8  12
ENDBRANCH   2   9
BRANCH   6  14
ATOM     14  N   UNL     1      -2.277  -1.114  -0.525  0.00  0.00    +0.000 NA
ATOM     15  C   UNL     1      -2.969  -0.106  -0.091  0.00  0.00    +0.000 C 
BRANCH  15  16
ATOM     16  C   UNL     1      -4.475  -0.103  -0.186  0.00  0.00    +0.000 C 
BRANCH  16  18
ATOM     17  N   UNL     1      -5.492   0.018   2.238  0.00  0.00    +0.000 NA
ATOM     18  C   UNL     1      -5.043  -0.034   1.169  0.00  0.00    +0.000 C 
ENDBRANCH  16  18
BRANCH  16  20
ATOM     19  N   UNL     1      -5.237   1.897  -1.715  0.00  0.00    +0.000 NA
ATOM     20  C   UNL     1      -4.901   1.016  -1.039  0.00  0.00    +0.000 C 
ENDBRANCH  16  20
ENDBRANCH  15  16
ENDBRANCH   6  14
TORSDOF 7
