REMARK  Name = 54671771
REMARK  0 active torsions:
REMARK  status: ('A' for Active; 'I' for Inactive)
REMARK                            x       y       z     vdW  Elec       q    Type
REMARK                         _______ _______ _______ _____ _____    ______ ____
ROOT
ATOM      1 CL   UNL     1       4.297  -1.774   0.001  0.00  0.00    +0.000 Cl
ATOM      2  O   UNL     1      -2.297   2.566   0.001  0.00  0.00    +0.000 OA
ATOM      3  N   UNL     1       0.629  -0.210  -0.000  0.00  0.00    +0.000 N 
ATOM      4  N   UNL     1      -0.060   2.100  -0.000  0.00  0.00    +0.000 NA
ATOM      5  N   UNL     1      -1.027  -1.991   0.000  0.00  0.00    +0.000 NA
ATOM      6  C   UNL     1      -0.724  -0.665  -0.000  0.00  0.00    +0.000 A 
ATOM      7  C   UNL     1       0.860   1.173  -0.000  0.00  0.00    +0.000 A 
ATOM      8  C   UNL     1      -1.737   0.298  -0.000  0.00  0.00    +0.000 A 
ATOM      9  C   UNL     1       1.708  -1.087  -0.000  0.00  0.00    +0.000 A 
ATOM     10  C   UNL     1      -1.389   1.740   0.000  0.00  0.00    +0.000 A 
ATOM     11  C   UNL     1       2.282   1.671   0.000  0.00  0.00    +0.000 A 
ATOM     12  C   UNL     1      -3.075  -0.104  -0.000  0.00  0.00    +0.000 A 
ATOM     13  C   UNL     1       2.982  -0.665  -0.000  0.00  0.00    +0.000 A 
ATOM     14  C   UNL     1       3.264   0.756   0.000  0.00  0.00    +0.000 A 
ATOM     15  C   UNL     1      -3.381  -1.457   0.000  0.00  0.00    +0.000 A 
ATOM     16  C   UNL     1      -2.330  -2.352   0.000  0.00  0.00    +0.000 A 
ENDROOT
TORSDOF 0
