REMARK  Name = 54857354
REMARK  1 active torsions:
REMARK  status: ('A' for Active; 'I' for Inactive)
REMARK    1  A    between atoms: C_11  and  C_13
REMARK                            x       y       z     vdW  Elec       q    Type
REMARK                         _______ _______ _______ _____ _____    ______ ____
ROOT
ATOM      1  N   UNL     1       2.350   0.009  -0.035  0.00  0.00    +0.000 N 
ATOM      2  N   UNL     1       0.299   1.193   0.015  0.00  0.00    +0.000 NA
ATOM      3  C   UNL     1       4.391   0.002  -0.115  0.00  0.00    +0.000 C 
ATOM      4  C   UNL     1       3.298   1.071  -0.009  0.00  0.00    +0.000 C 
ATOM      5  C   UNL     1       3.300  -1.018   0.228  0.00  0.00    +0.000 C 
ATOM      6  C   UNL     1       0.949   0.008  -0.026  0.00  0.00    +0.000 A 
ATOM      7  C   UNL     1       0.315  -1.224  -0.059  0.00  0.00    +0.000 A 
ATOM      8  C   UNL     1      -1.076  -1.240  -0.050  0.00  0.00    +0.000 A 
ATOM      9  C   UNL     1      -1.780  -0.042  -0.009  0.00  0.00    +0.000 A 
ATOM     10  C   UNL     1      -1.052   1.137   0.023  0.00  0.00    +0.000 A 
ENDROOT
BRANCH   9  13
ATOM     11  O   UNL     1      -3.893  -1.081  -0.009  0.00  0.00    +0.000 OA
ATOM     12  N   UNL     1      -3.868   1.212   0.044  0.00  0.00    +0.000 N 
ATOM     13  C   UNL     1      -3.232  -0.027   0.002  0.00  0.00    +0.000 C 
ATOM     14  H   UNL     1      -3.405   2.111   0.061  0.00  0.00    +0.000 HD
ATOM     15  H   UNL     1      -4.882   1.251   0.059  0.00  0.00    +0.000 HD
ENDBRANCH   9  13
TORSDOF 1
