REMARK  Name = 54934775
REMARK  7 active torsions:
REMARK  status: ('A' for Active; 'I' for Inactive)
REMARK    1  A    between atoms: N_3  and  C_7
REMARK    2  A    between atoms: N_3  and  C_10
REMARK    3  A    between atoms: N_4  and  C_12
REMARK    4  A    between atoms: N_4  and  C_13
REMARK    5  A    between atoms: C_7  and  C_8
REMARK    6  A    between atoms: C_8  and  C_9
REMARK    7  A    between atoms: C_11  and  C_16
REMARK                            x       y       z     vdW  Elec       q    Type
REMARK                         _______ _______ _______ _____ _____    ______ ____
ROOT
ATOM      1  N   UNL     1       1.683  -1.822  -0.017  0.00  0.00    +0.000 NA
ATOM      2  C   UNL     1       1.599  -0.473  -0.009  0.00  0.00    +0.000 A 
ATOM      3  C   UNL     1       2.696   0.373   0.027  0.00  0.00    +0.000 A 
ATOM      4  C   UNL     1       3.961  -0.203   0.056  0.00  0.00    +0.000 A 
ATOM      5  C   UNL     1       4.088  -1.588   0.048  0.00  0.00    +0.000 A 
ATOM      6  C   UNL     1       2.929  -2.346   0.012  0.00  0.00    +0.000 A 
ENDROOT
BRANCH   3   9
ATOM      7  O   UNL     1       2.505   2.459   1.104  0.00  0.00    +0.000 OA
ATOM      8  N   UNL     1       2.552   2.480  -1.188  0.00  0.00    +0.000 N 
ATOM      9  C   UNL     1       2.573   1.824   0.038  0.00  0.00    +0.000 C 
ATOM     10  H   UNL     1       2.613   1.978  -2.069  0.00  0.00    +0.000 HD
ATOM     11  H   UNL     1       2.474   3.490  -1.239  0.00  0.00    +0.000 HD
ENDBRANCH   3   9
BRANCH   2  12
ATOM     12  N   UNL     1       0.335   0.094  -0.035  0.00  0.00    +0.000 N 
ATOM     13  H   UNL     1       0.270   1.062  -0.332  0.00  0.00    +0.000 HD
BRANCH  12  14
ATOM     14  C   UNL     1      -0.888  -0.674  -0.074  0.00  0.00    +0.000 C 
BRANCH  14  15
ATOM     15  C   UNL     1      -2.100   0.251  -0.025  0.00  0.00    +0.000 C 
BRANCH  15  18
ATOM     16  O   UNL     1      -3.470  -1.721  -0.047  0.00  0.00    +0.000 OA
ATOM     17  N   UNL     1      -4.582   0.312   0.026  0.00  0.00    +0.000 N 
ATOM     18  C   UNL     1      -3.435  -0.488  -0.018  0.00  0.00    +0.000 C 
ATOM     19  C   UNL     1      -5.927  -0.250   0.042  0.00  0.00    +0.000 C 
ATOM     20  C   UNL     1      -4.519   1.771   0.060  0.00  0.00    +0.000 C 
ENDBRANCH  15  18
ENDBRANCH  14  15
ENDBRANCH  12  14
ENDBRANCH   2  12
TORSDOF 5
