REMARK  Name = 54935963
REMARK  9 active torsions:
REMARK  status: ('A' for Active; 'I' for Inactive)
REMARK    1  A    between atoms: N_3  and  C_9
REMARK    2  A    between atoms: N_3  and  C_10
REMARK    3  A    between atoms: N_4  and  C_11
REMARK    4  A    between atoms: N_4  and  C_14
REMARK    5  A    between atoms: C_7  and  C_8
REMARK    6  A    between atoms: C_7  and  C_11
REMARK    7  A    between atoms: C_9  and  C_12
REMARK    8  A    between atoms: C_10  and  C_13
REMARK    9  A    between atoms: C_15  and  C_18
REMARK                            x       y       z     vdW  Elec       q    Type
REMARK                         _______ _______ _______ _____ _____    ______ ____
ROOT
ATOM      1  N   UNL     1       0.700  -0.528   0.336  0.00  0.00    +0.000 N 
ATOM      2  H   UNL     1       0.331   0.337   0.717  0.00  0.00    +0.000 HD
ENDROOT
BRANCH   1   4
ATOM      3  N   UNL     1       2.634  -1.802  -0.018  0.00  0.00    +0.000 NA
ATOM      4  C   UNL     1       2.064  -0.582   0.103  0.00  0.00    +0.000 A 
ATOM      5  C   UNL     1       2.761   0.612   0.010  0.00  0.00    +0.000 A 
ATOM      6  C   UNL     1       4.131   0.550  -0.221  0.00  0.00    +0.000 A 
ATOM      7  C   UNL     1       4.753  -0.687  -0.351  0.00  0.00    +0.000 A 
ATOM      8  C   UNL     1       3.967  -1.823  -0.243  0.00  0.00    +0.000 A 
BRANCH   5  11
ATOM      9  O   UNL     1       2.025   2.472   1.253  0.00  0.00    +0.000 OA
ATOM     10  N   UNL     1       1.631   2.517  -1.005  0.00  0.00    +0.000 N 
ATOM     11  C   UNL     1       2.119   1.912   0.148  0.00  0.00    +0.000 C 
ATOM     12  H   UNL     1       1.705   2.077  -1.917  0.00  0.00    +0.000 HD
ATOM     13  H   UNL     1       1.180   3.425  -0.968  0.00  0.00    +0.000 HD
ENDBRANCH   5  11
ENDBRANCH   1   4
BRANCH   1  14
ATOM     14  C   UNL     1      -0.140  -1.698   0.453  0.00  0.00    +0.000 C 
BRANCH  14  15
ATOM     15  C   UNL     1      -1.575  -1.293   0.777  0.00  0.00    +0.000 C 
BRANCH  15  18
ATOM     16  O   UNL     1      -1.605  -0.126  -1.321  0.00  0.00    +0.000 OA
ATOM     17  N   UNL     1      -3.545  -0.031  -0.056  0.00  0.00    +0.000 N 
ATOM     18  C   UNL     1      -2.228  -0.432  -0.301  0.00  0.00    +0.000 C 
BRANCH  17  19
ATOM     19  C   UNL     1      -4.265  -0.406   1.160  0.00  0.00    +0.000 C 
ATOM     20  C   UNL     1      -4.065   0.617   2.260  0.00  0.00    +0.000 C 
ENDBRANCH  17  19
BRANCH  17  21
ATOM     21  C   UNL     1      -4.300   0.790  -0.994  0.00  0.00    +0.000 C 
ATOM     22  C   UNL     1      -5.060  -0.062  -1.990  0.00  0.00    +0.000 C 
ENDBRANCH  17  21
ENDBRANCH  15  18
ENDBRANCH  14  15
ENDBRANCH   1  14
TORSDOF 7
