REMARK  Name = 54943559
REMARK  5 active torsions:
REMARK  status: ('A' for Active; 'I' for Inactive)
REMARK    1  A    between atoms: N_2  and  C_7
REMARK    2  A    between atoms: N_2  and  C_9
REMARK    3  A    between atoms: C_6  and  C_7
REMARK    4  A    between atoms: C_6  and  C_8
REMARK    5  A    between atoms: C_10  and  C_17
REMARK                            x       y       z     vdW  Elec       q    Type
REMARK                         _______ _______ _______ _____ _____    ______ ____
ROOT
ATOM      1  N   UNL     1       1.972  -1.857   0.193  0.00  0.00    +0.000 NA
ATOM      2  C   UNL     1       1.591  -0.624  -0.208  0.00  0.00    +0.000 A 
ATOM      3  C   UNL     1       2.298   0.535   0.068  0.00  0.00    +0.000 A 
ATOM      4  C   UNL     1       3.472   0.421   0.804  0.00  0.00    +0.000 A 
ATOM      5  C   UNL     1       3.897  -0.831   1.235  0.00  0.00    +0.000 A 
ATOM      6  C   UNL     1       3.118  -1.929   0.906  0.00  0.00    +0.000 A 
ENDROOT
BRANCH   3   9
ATOM      7  O   UNL     1       2.204   2.309  -1.478  0.00  0.00    +0.000 OA
ATOM      8  N   UNL     1       1.025   2.573   0.471  0.00  0.00    +0.000 N 
ATOM      9  C   UNL     1       1.860   1.851  -0.375  0.00  0.00    +0.000 C 
ATOM     10  H   UNL     1       0.726   2.211   1.371  0.00  0.00    +0.000 HD
ATOM     11  H   UNL     1       0.684   3.492   0.209  0.00  0.00    +0.000 HD
ENDBRANCH   3   9
BRANCH   2  12
ATOM     12  N   UNL     1       0.391  -0.515  -0.956  0.00  0.00    +0.000 N 
ATOM     13  H   UNL     1       0.315   0.301  -1.554  0.00  0.00    +0.000 HD
BRANCH  12  14
ATOM     14  C   UNL     1      -0.410  -1.645  -1.294  0.00  0.00    +0.000 C 
BRANCH  14  15
ATOM     15  C   UNL     1      -1.814  -1.214  -1.716  0.00  0.00    +0.000 C 
BRANCH  15  17
ATOM     16  N   UNL     1      -3.970   0.816   1.410  0.00  0.00    +0.000 NA
ATOM     17  C   UNL     1      -2.570  -0.502  -0.619  0.00  0.00    +0.000 A 
ATOM     18  C   UNL     1      -3.358  -1.226   0.268  0.00  0.00    +0.000 A 
ATOM     19  C   UNL     1      -2.480   0.879  -0.494  0.00  0.00    +0.000 A 
ATOM     20  C   UNL     1      -4.032  -0.526   1.256  0.00  0.00    +0.000 A 
ATOM     21  C   UNL     1      -3.193   1.485   0.528  0.00  0.00    +0.000 A 
ENDBRANCH  15  17
ENDBRANCH  14  15
ENDBRANCH  12  14
ENDBRANCH   2  12
TORSDOF 5
