REMARK  Name = 54950730
REMARK  9 active torsions:
REMARK  status: ('A' for Active; 'I' for Inactive)
REMARK    1  A    between atoms: N_2  and  C_6
REMARK    2  A    between atoms: N_2  and  C_11
REMARK    3  A    between atoms: C_5  and  C_6
REMARK    4  A    between atoms: C_5  and  C_7
REMARK    5  A    between atoms: C_6  and  C_9
REMARK    6  A    between atoms: C_7  and  C_8
REMARK    7  A    between atoms: C_8  and  C_10
REMARK    8  A    between atoms: C_10  and  C_12
REMARK    9  A    between atoms: C_13  and  C_15
REMARK                            x       y       z     vdW  Elec       q    Type
REMARK                         _______ _______ _______ _____ _____    ______ ____
ROOT
ATOM      1  N   UNL     1       1.933  -1.530   0.701  0.00  0.00    +0.000 NA
ATOM      2  C   UNL     1       1.466  -0.426   0.076  0.00  0.00    +0.000 A 
ATOM      3  C   UNL     1       2.154   0.774   0.004  0.00  0.00    +0.000 A 
ATOM      4  C   UNL     1       3.403   0.846   0.612  0.00  0.00    +0.000 A 
ATOM      5  C   UNL     1       3.150  -1.422   1.280  0.00  0.00    +0.000 A 
ATOM      6  C   UNL     1       3.917  -0.269   1.264  0.00  0.00    +0.000 A 
ENDROOT
BRANCH   3   9
ATOM      7  O   UNL     1       1.832   2.147  -1.883  0.00  0.00    +0.000 OA
ATOM      8  N   UNL     1       0.855   2.834   0.074  0.00  0.00    +0.000 N 
ATOM      9  C   UNL     1       1.623   1.948  -0.675  0.00  0.00    +0.000 C 
ATOM     10  H   UNL     1       0.455   3.665  -0.350  0.00  0.00    +0.000 HD
ATOM     11  H   UNL     1       0.667   2.684   1.060  0.00  0.00    +0.000 HD
ENDBRANCH   3   9
BRANCH   2  12
ATOM     12  N   UNL     1       0.222  -0.504  -0.524  0.00  0.00    +0.000 N 
ATOM     13  H   UNL     1       0.021   0.170  -1.257  0.00  0.00    +0.000 HD
BRANCH  12  14
ATOM     14  C   UNL     1      -0.596  -1.699  -0.519  0.00  0.00    +0.000 C 
ATOM     15  C   UNL     1      -0.053  -2.665  -1.568  0.00  0.00    +0.000 C 
BRANCH  14  16
ATOM     16  C   UNL     1      -2.060  -1.343  -0.808  0.00  0.00    +0.000 C 
BRANCH  16  17
ATOM     17  C   UNL     1      -2.660  -0.414   0.255  0.00  0.00    +0.000 C 
BRANCH  17  18
ATOM     18  C   UNL     1      -4.138  -0.132  -0.029  0.00  0.00    +0.000 C 
BRANCH  18  19
ATOM     19  C   UNL     1      -4.782   0.813   0.989  0.00  0.00    +0.000 C 
ATOM     20  C   UNL     1      -6.267   1.041   0.752  0.00  0.00    +0.000 C 
ENDBRANCH  18  19
ENDBRANCH  17  18
ENDBRANCH  16  17
ENDBRANCH  14  16
ENDBRANCH  12  14
ENDBRANCH   2  12
TORSDOF 7
