REMARK  Name = 54959041
REMARK  10 active torsions:
REMARK  status: ('A' for Active; 'I' for Inactive)
REMARK    1  A    between atoms: N_2  and  C_7
REMARK    2  A    between atoms: N_2  and  C_12
REMARK    3  A    between atoms: C_5  and  C_6
REMARK    4  A    between atoms: C_5  and  C_7
REMARK    5  A    between atoms: C_6  and  C_8
REMARK    6  A    between atoms: C_7  and  C_10
REMARK    7  A    between atoms: C_8  and  C_9
REMARK    8  A    between atoms: C_9  and  C_11
REMARK    9  A    between atoms: C_11  and  C_13
REMARK   10  A    between atoms: C_14  and  C_16
REMARK                            x       y       z     vdW  Elec       q    Type
REMARK                         _______ _______ _______ _____ _____    ______ ____
ROOT
ATOM      1  N   UNL     1       2.454  -1.323   0.885  0.00  0.00    +0.000 NA
ATOM      2  C   UNL     1       1.883  -0.353   0.136  0.00  0.00    +0.000 A 
ATOM      3  C   UNL     1       2.421   0.912  -0.035  0.00  0.00    +0.000 A 
ATOM      4  C   UNL     1       3.623   1.201   0.602  0.00  0.00    +0.000 A 
ATOM      5  C   UNL     1       3.621  -1.006   1.490  0.00  0.00    +0.000 A 
ATOM      6  C   UNL     1       4.241   0.229   1.381  0.00  0.00    +0.000 A 
ENDROOT
BRANCH   3   9
ATOM      7  O   UNL     1       2.018   2.043  -2.062  0.00  0.00    +0.000 OA
ATOM      8  N   UNL     1       0.877   2.788  -0.217  0.00  0.00    +0.000 N 
ATOM      9  C   UNL     1       1.781   1.939  -0.846  0.00  0.00    +0.000 C 
ATOM     10  H   UNL     1       0.397   3.516  -0.736  0.00  0.00    +0.000 HD
ATOM     11  H   UNL     1       0.664   2.712   0.773  0.00  0.00    +0.000 HD
ENDBRANCH   3   9
BRANCH   2  12
ATOM     12  N   UNL     1       0.686  -0.646  -0.493  0.00  0.00    +0.000 N 
ATOM     13  H   UNL     1       0.440  -0.079  -1.298  0.00  0.00    +0.000 HD
BRANCH  12  14
ATOM     14  C   UNL     1       0.022  -1.929  -0.393  0.00  0.00    +0.000 C 
ATOM     15  C   UNL     1       0.726  -2.915  -1.319  0.00  0.00    +0.000 C 
BRANCH  14  16
ATOM     16  C   UNL     1      -1.460  -1.790  -0.763  0.00  0.00    +0.000 C 
BRANCH  16  17
ATOM     17  C   UNL     1      -2.200  -0.790   0.135  0.00  0.00    +0.000 C 
BRANCH  17  18
ATOM     18  C   UNL     1      -3.668  -0.659  -0.277  0.00  0.00    +0.000 C 
BRANCH  18  19
ATOM     19  C   UNL     1      -4.451   0.348   0.571  0.00  0.00    +0.000 C 
BRANCH  19  20
ATOM     20  C   UNL     1      -5.912   0.498   0.143  0.00  0.00    +0.000 C 
ATOM     21  C   UNL     1      -6.662   1.452   1.060  0.00  0.00    +0.000 C 
ENDBRANCH  19  20
ENDBRANCH  18  19
ENDBRANCH  17  18
ENDBRANCH  16  17
ENDBRANCH  14  16
ENDBRANCH  12  14
ENDBRANCH   2  12
TORSDOF 8
