REMARK  Name = 54968725
REMARK  9 active torsions:
REMARK  status: ('A' for Active; 'I' for Inactive)
REMARK    1  A    between atoms: N_2  and  C_6
REMARK    2  A    between atoms: N_2  and  C_10
REMARK    3  A    between atoms: N_3  and  C_8
REMARK    4  A    between atoms: N_3  and  C_11
REMARK    5  A    between atoms: N_3  and  C_12
REMARK    6  A    between atoms: C_6  and  C_7
REMARK    7  A    between atoms: C_6  and  C_9
REMARK    8  A    between atoms: C_7  and  C_8
REMARK    9  A    between atoms: C_13  and  C_15
REMARK                            x       y       z     vdW  Elec       q    Type
REMARK                         _______ _______ _______ _____ _____    ______ ____
ROOT
ATOM      1  N   UNL     1       1.773   1.664  -0.457  0.00  0.00    +0.000 NA
ATOM      2  C   UNL     1       1.319   0.470  -0.013  0.00  0.00    +0.000 A 
ATOM      3  C   UNL     1       2.065  -0.697  -0.027  0.00  0.00    +0.000 A 
ATOM      4  C   UNL     1       3.360  -0.636  -0.528  0.00  0.00    +0.000 A 
ATOM      5  C   UNL     1       3.037   1.684  -0.938  0.00  0.00    +0.000 A 
ATOM      6  C   UNL     1       3.863   0.574  -0.995  0.00  0.00    +0.000 A 
ENDROOT
BRANCH   3   9
ATOM      7  O   UNL     1       1.668  -2.308   1.646  0.00  0.00    +0.000 OA
ATOM      8  N   UNL     1       0.892  -2.789  -0.458  0.00  0.00    +0.000 N 
ATOM      9  C   UNL     1       1.546  -1.970   0.456  0.00  0.00    +0.000 C 
ATOM     10  H   UNL     1       0.505  -3.683  -0.174  0.00  0.00    +0.000 HD
ATOM     11  H   UNL     1       0.775  -2.525  -1.431  0.00  0.00    +0.000 HD
ENDBRANCH   3   9
BRANCH   2  12
ATOM     12  N   UNL     1       0.029   0.417   0.482  0.00  0.00    +0.000 N 
ATOM     13  H   UNL     1      -0.193  -0.352   1.107  0.00  0.00    +0.000 HD
BRANCH  12  14
ATOM     14  C   UNL     1      -0.851   1.565   0.550  0.00  0.00    +0.000 C 
ATOM     15  C   UNL     1      -0.449   2.416   1.751  0.00  0.00    +0.000 C 
BRANCH  14  16
ATOM     16  C   UNL     1      -2.313   1.110   0.665  0.00  0.00    +0.000 C 
BRANCH  16  17
ATOM     17  C   UNL     1      -2.769   0.300  -0.551  0.00  0.00    +0.000 C 
BRANCH  17  18
ATOM     18  N   UNL     1      -4.159  -0.112  -0.391  0.00  0.00    +0.000 NA
ATOM     19  C   UNL     1      -4.253  -1.272   0.497  0.00  0.00    +0.000 C 
ATOM     20  C   UNL     1      -4.759  -0.417  -1.691  0.00  0.00    +0.000 C 
ENDBRANCH  17  18
ENDBRANCH  16  17
ENDBRANCH  14  16
ENDBRANCH  12  14
ENDBRANCH   2  12
TORSDOF 6
