REMARK  Name = 54988145
REMARK  8 active torsions:
REMARK  status: ('A' for Active; 'I' for Inactive)
REMARK    1  A    between atoms: N_2  and  C_6
REMARK    2  A    between atoms: N_2  and  C_8
REMARK    3  A    between atoms: N_2  and  C_9
REMARK    4  A    between atoms: C_6  and  C_7
REMARK    5  A    between atoms: C_7  and  C_10
REMARK    6  A    between atoms: C_7  and  C_14
REMARK    7  A    between atoms: C_8  and  C_12
REMARK    8  A    between atoms: C_11  and  C_15
REMARK                            x       y       z     vdW  Elec       q    Type
REMARK                         _______ _______ _______ _____ _____    ______ ____
ROOT
ATOM      1  N   UNL     1       1.268   1.833  -0.099  0.00  0.00    +0.000 NA
ATOM      2  C   UNL     1       0.875   0.551   0.073  0.00  0.00    +0.000 A 
ATOM      3  C   UNL     1       1.576  -0.546  -0.403  0.00  0.00    +0.000 A 
ATOM      4  C   UNL     1       2.756  -0.312  -1.100  0.00  0.00    +0.000 A 
ATOM      5  C   UNL     1       2.420   2.021  -0.782  0.00  0.00    +0.000 A 
ATOM      6  C   UNL     1       3.193   0.993  -1.298  0.00  0.00    +0.000 A 
ENDROOT
BRANCH   3   9
ATOM      7  O   UNL     1       0.391  -2.482  -1.032  0.00  0.00    +0.000 OA
ATOM      8  N   UNL     1       1.559  -2.580   0.939  0.00  0.00    +0.000 N 
ATOM      9  C   UNL     1       1.125  -1.916  -0.204  0.00  0.00    +0.000 C 
ATOM     10  H   UNL     1       2.170  -2.139   1.619  0.00  0.00    +0.000 HD
ATOM     11  H   UNL     1       1.278  -3.537   1.125  0.00  0.00    +0.000 HD
ENDBRANCH   3   9
BRANCH   2  12
ATOM     12  N   UNL     1      -0.316   0.323   0.774  0.00  0.00    +0.000 N 
BRANCH  12  13
ATOM     13  C   UNL     1      -0.452   0.779   2.158  0.00  0.00    +0.000 C 
ATOM     14  C   UNL     1       0.588   0.108   3.034  0.00  0.00    +0.000 C 
ENDBRANCH  12  13
BRANCH  12  15
ATOM     15  C   UNL     1      -1.435  -0.353   0.158  0.00  0.00    +0.000 C 
BRANCH  15  16
ATOM     16  C   UNL     1      -2.676   0.545   0.077  0.00  0.00    +0.000 C 
ATOM     17  C   UNL     1      -2.381   1.872  -0.623  0.00  0.00    +0.000 C 
BRANCH  16  19
ATOM     18  N   UNL     1      -4.690  -0.691  -1.092  0.00  0.00    +0.000 NA
ATOM     19  C   UNL     1      -3.802  -0.147  -0.578  0.00  0.00    +0.000 C 
ENDBRANCH  16  19
ENDBRANCH  15  16
ENDBRANCH  12  15
ENDBRANCH   2  12
TORSDOF 6
