REMARK  Name = 54987852
REMARK  9 active torsions:
REMARK  status: ('A' for Active; 'I' for Inactive)
REMARK    1  A    between atoms: N_2  and  C_7
REMARK    2  A    between atoms: N_2  and  C_10
REMARK    3  A    between atoms: N_2  and  C_11
REMARK    4  A    between atoms: N_3  and  C_8
REMARK    5  A    between atoms: C_6  and  C_7
REMARK    6  A    between atoms: C_6  and  C_8
REMARK    7  A    between atoms: C_6  and  C_9
REMARK    8  A    between atoms: C_10  and  C_12
REMARK    9  A    between atoms: C_13  and  C_15
REMARK                            x       y       z     vdW  Elec       q    Type
REMARK                         _______ _______ _______ _____ _____    ______ ____
ROOT
ATOM      1  N   UNL     1      -0.675  -1.885   0.357  0.00  0.00    +0.000 NA
ATOM      2  C   UNL     1      -0.675  -0.542   0.202  0.00  0.00    +0.000 A 
ATOM      3  C   UNL     1      -1.687   0.167  -0.423  0.00  0.00    +0.000 A 
ATOM      4  C   UNL     1      -2.771  -0.548  -0.921  0.00  0.00    +0.000 A 
ATOM      5  C   UNL     1      -1.745  -2.546  -0.140  0.00  0.00    +0.000 A 
ATOM      6  C   UNL     1      -2.808  -1.931  -0.781  0.00  0.00    +0.000 A 
ENDROOT
BRANCH   3   9
ATOM      7  O   UNL     1      -1.157   2.147  -1.583  0.00  0.00    +0.000 OA
ATOM      8  N   UNL     1      -2.223   2.385   0.433  0.00  0.00    +0.000 N 
ATOM      9  C   UNL     1      -1.657   1.615  -0.578  0.00  0.00    +0.000 C 
ATOM     10  H   UNL     1      -2.648   1.967   1.254  0.00  0.00    +0.000 HD
ATOM     11  H   UNL     1      -2.233   3.397   0.374  0.00  0.00    +0.000 HD
ENDBRANCH   3   9
BRANCH   2  12
ATOM     12  N   UNL     1       0.422   0.172   0.705  0.00  0.00    +0.000 N 
BRANCH  12  13
ATOM     13  C   UNL     1       0.740   0.116   2.132  0.00  0.00    +0.000 C 
ATOM     14  C   UNL     1      -0.419   0.659   2.946  0.00  0.00    +0.000 C 
ENDBRANCH  12  13
BRANCH  12  15
ATOM     15  C   UNL     1       1.264   0.965  -0.160  0.00  0.00    +0.000 C 
BRANCH  15  16
ATOM     16  C   UNL     1       2.718   0.461  -0.165  0.00  0.00    +0.000 C 
ATOM     17  C   UNL     1       3.593   1.298  -1.105  0.00  0.00    +0.000 C 
BRANCH  16  18
ATOM     18  C   UNL     1       2.852  -1.033  -0.517  0.00  0.00    +0.000 C 
BRANCH  18  19
ATOM     19  N   UNL     1       4.229  -1.501  -0.402  0.00  0.00    +0.000 NA
ATOM     20  H   UNL     1       4.555  -1.374   0.555  0.00  0.00    +0.000 HD
ATOM     21  H   UNL     1       4.262  -2.503  -0.586  0.00  0.00    +0.000 HD
ENDBRANCH  18  19
ENDBRANCH  16  18
ENDBRANCH  15  16
ENDBRANCH  12  15
ENDBRANCH   2  12
TORSDOF 7
