REMARK  Name = 54992502
REMARK  8 active torsions:
REMARK  status: ('A' for Active; 'I' for Inactive)
REMARK    1  A    between atoms: N_3  and  C_7
REMARK    2  A    between atoms: N_3  and  C_8
REMARK    3  A    between atoms: N_3  and  C_9
REMARK    4  A    between atoms: N_5  and  C_13
REMARK    5  A    between atoms: C_7  and  C_10
REMARK    6  A    between atoms: C_8  and  C_12
REMARK    7  A    between atoms: C_10  and  C_13
REMARK    8  A    between atoms: C_11  and  C_15
REMARK                            x       y       z     vdW  Elec       q    Type
REMARK                         _______ _______ _______ _____ _____    ______ ____
ROOT
ATOM      1  N   UNL     1      -0.795  -1.763  -0.496  0.00  0.00    +0.000 NA
ATOM      2  C   UNL     1      -0.844  -0.430  -0.273  0.00  0.00    +0.000 A 
ATOM      3  C   UNL     1      -1.861   0.203   0.422  0.00  0.00    +0.000 A 
ATOM      4  C   UNL     1      -2.895  -0.582   0.921  0.00  0.00    +0.000 A 
ATOM      5  C   UNL     1      -1.817  -2.493   0.004  0.00  0.00    +0.000 A 
ATOM      6  C   UNL     1      -2.880  -1.956   0.712  0.00  0.00    +0.000 A 
ENDROOT
BRANCH   3   9
ATOM      7  O   UNL     1      -2.450   2.409  -0.157  0.00  0.00    +0.000 OA
ATOM      8  N   UNL     1      -1.278   2.130   1.794  0.00  0.00    +0.000 N 
ATOM      9  C   UNL     1      -1.888   1.642   0.643  0.00  0.00    +0.000 C 
ATOM     10  H   UNL     1      -0.823   1.518   2.464  0.00  0.00    +0.000 HD
ATOM     11  H   UNL     1      -1.271   3.123   2.001  0.00  0.00    +0.000 HD
ENDBRANCH   3   9
BRANCH   2  12
ATOM     12  N   UNL     1       0.201   0.355  -0.781  0.00  0.00    +0.000 N 
BRANCH  12  13
ATOM     13  C   UNL     1       0.102   0.919  -2.129  0.00  0.00    +0.000 C 
ATOM     14  C   UNL     1       0.473  -0.127  -3.162  0.00  0.00    +0.000 C 
ENDBRANCH  12  13
BRANCH  12  15
ATOM     15  C   UNL     1       1.383   0.633  -0.002  0.00  0.00    +0.000 C 
BRANCH  15  16
ATOM     16  C   UNL     1       2.416  -0.469  -0.223  0.00  0.00    +0.000 C 
BRANCH  16  18
ATOM     17  S   UNL     1       3.869  -0.835   2.134  0.00  0.00    +0.000 S 
ATOM     18  C   UNL     1       3.662  -0.215   0.597  0.00  0.00    +0.000 C 
BRANCH  18  19
ATOM     19  N   UNL     1       4.604   0.578  -0.005  0.00  0.00    +0.000 N 
ATOM     20  H   UNL     1       4.475   0.963  -0.935  0.00  0.00    +0.000 HD
ATOM     21  H   UNL     1       5.471   0.809   0.468  0.00  0.00    +0.000 HD
ENDBRANCH  18  19
ENDBRANCH  16  18
ENDBRANCH  15  16
ENDBRANCH  12  15
ENDBRANCH   2  12
TORSDOF 7
