REMARK  Name = 55028546
REMARK  11 active torsions:
REMARK  status: ('A' for Active; 'I' for Inactive)
REMARK    1  A    between atoms: N_2  and  C_7
REMARK    2  A    between atoms: N_2  and  C_12
REMARK    3  A    between atoms: N_2  and  C_13
REMARK    4  A    between atoms: N_3  and  C_8
REMARK    5  A    between atoms: N_4  and  C_11
REMARK    6  A    between atoms: N_4  and  C_14
REMARK    7  A    between atoms: C_6  and  C_7
REMARK    8  A    between atoms: C_6  and  C_8
REMARK    9  A    between atoms: C_9  and  C_10
REMARK   10  A    between atoms: C_11  and  C_15
REMARK   11  A    between atoms: C_15  and  C_17
REMARK                            x       y       z     vdW  Elec       q    Type
REMARK                         _______ _______ _______ _____ _____    ______ ____
ROOT
ATOM      1  N   UNL     1      -3.187   0.558   0.937  0.00  0.00    +0.000 NA
ATOM      2  C   UNL     1      -1.687  -0.979  -0.174  0.00  0.00    +0.000 A 
ATOM      3  C   UNL     1      -2.115   0.297   0.155  0.00  0.00    +0.000 A 
ATOM      4  C   UNL     1      -2.405  -2.057   0.332  0.00  0.00    +0.000 A 
ATOM      5  C   UNL     1      -3.513  -1.829   1.140  0.00  0.00    +0.000 A 
ATOM      6  C   UNL     1      -3.860  -0.515   1.411  0.00  0.00    +0.000 A 
ENDROOT
BRANCH   2   9
ATOM      7  O   UNL     1      -0.481  -0.781  -2.175  0.00  0.00    +0.000 OA
ATOM      8  N   UNL     1       0.529  -1.963  -0.454  0.00  0.00    +0.000 N 
ATOM      9  C   UNL     1      -0.502  -1.233  -1.033  0.00  0.00    +0.000 C 
ATOM     10  H   UNL     1       0.433  -2.285   0.505  0.00  0.00    +0.000 HD
BRANCH   8  11
ATOM     11  C   UNL     1       1.749  -2.269  -1.149  0.00  0.00    +0.000 C 
BRANCH  11  12
ATOM     12  C   UNL     1       2.821  -1.199  -0.949  0.00  0.00    +0.000 C 
BRANCH  12  13
ATOM     13  C   UNL     1       3.209  -0.958   0.512  0.00  0.00    +0.000 C 
BRANCH  13  14
ATOM     14  N   UNL     1       4.224   0.081   0.642  0.00  0.00    +0.000 NA
ATOM     15  C   UNL     1       4.899  -0.017   1.937  0.00  0.00    +0.000 C 
ATOM     16  C   UNL     1       3.628   1.408   0.480  0.00  0.00    +0.000 C 
ENDBRANCH  13  14
ENDBRANCH  12  13
ENDBRANCH  11  12
ENDBRANCH   8  11
ENDBRANCH   2   9
BRANCH   3  17
ATOM     17  N   UNL     1      -1.387   1.401  -0.354  0.00  0.00    +0.000 N 
ATOM     18  H   UNL     1      -0.846   1.223  -1.195  0.00  0.00    +0.000 HD
BRANCH  17  19
ATOM     19  C   UNL     1      -1.744   2.754  -0.075  0.00  0.00    +0.000 C 
BRANCH  19  20
ATOM     20  C   UNL     1      -0.817   3.719  -0.807  0.00  0.00    +0.000 C 
ATOM     21  C   UNL     1       0.637   3.582  -0.377  0.00  0.00    +0.000 C 
ENDBRANCH  19  20
ENDBRANCH  17  19
ENDBRANCH   3  17
TORSDOF 8
