REMARK  Name = 55037403
REMARK  6 active torsions:
REMARK  status: ('A' for Active; 'I' for Inactive)
REMARK    1  A    between atoms: N_3  and  C_7
REMARK    2  A    between atoms: N_4  and  C_9
REMARK    3  A    between atoms: C_7  and  C_8
REMARK    4  A    between atoms: C_8  and  C_11
REMARK    5  A    between atoms: C_9  and  C_10
REMARK    6  A    between atoms: C_12  and  C_13
REMARK                            x       y       z     vdW  Elec       q    Type
REMARK                         _______ _______ _______ _____ _____    ______ ____
ROOT
ATOM      1  O   UNL     1       0.123   1.441   0.846  0.00  0.00    +0.000 OA
ATOM      2  N   UNL     1       0.242  -0.871   0.999  0.00  0.00    +0.000 N 
ATOM      3  C   UNL     1      -0.399   0.335   0.731  0.00  0.00    +0.000 C 
ATOM      4  H   UNL     1      -0.263  -1.748   0.927  0.00  0.00    +0.000 HD
ENDROOT
BRANCH   3   7
ATOM      5  N   UNL     1      -3.579  -1.032  -0.754  0.00  0.00    +0.000 NA
ATOM      6  N   UNL     1      -5.764  -0.097  -0.923  0.00  0.00    +0.000 N 
ATOM      7  C   UNL     1      -1.819   0.244   0.304  0.00  0.00    +0.000 A 
ATOM      8  C   UNL     1      -2.707   1.289   0.537  0.00  0.00    +0.000 A 
ATOM      9  C   UNL     1      -2.301  -0.884  -0.340  0.00  0.00    +0.000 A 
ATOM     10  C   UNL     1      -4.030   1.174   0.126  0.00  0.00    +0.000 A 
ATOM     11  C   UNL     1      -4.413   0.004  -0.510  0.00  0.00    +0.000 A 
ATOM     12  H   UNL     1      -6.466   0.418  -0.406  0.00  0.00    +0.000 HD
ATOM     13  H   UNL     1      -6.041  -0.956  -1.382  0.00  0.00    +0.000 HD
ENDBRANCH   3   7
BRANCH   2  14
ATOM     14  C   UNL     1       1.603  -0.946   1.443  0.00  0.00    +0.000 C 
BRANCH  14  17
ATOM     15  O   UNL     1       2.214  -1.611  -0.797  0.00  0.00    +0.000 OA
ATOM     16  N   UNL     1       3.752  -0.449   0.500  0.00  0.00    +0.000 N 
ATOM     17  C   UNL     1       2.523  -1.040   0.245  0.00  0.00    +0.000 C 
ATOM     18  H   UNL     1       3.916  -0.008   1.401  0.00  0.00    +0.000 HD
BRANCH  16  19
ATOM     19  C   UNL     1       4.839  -0.437  -0.452  0.00  0.00    +0.000 C 
BRANCH  19  20
ATOM     20  C   UNL     1       4.800   0.785  -1.361  0.00  0.00    +0.000 C 
ATOM     21  C   UNL     1       4.917   2.094  -0.593  0.00  0.00    +0.000 C 
ENDBRANCH  19  20
ENDBRANCH  16  19
ENDBRANCH  14  17
ENDBRANCH   2  14
TORSDOF 5
