REMARK  Name = 55037128
REMARK  4 active torsions:
REMARK  status: ('A' for Active; 'I' for Inactive)
REMARK    1  A    between atoms: N_2  and  C_6
REMARK    2  A    between atoms: C_5  and  C_6
REMARK    3  A    between atoms: C_5  and  C_7
REMARK    4  A    between atoms: C_10  and  C_11
REMARK                            x       y       z     vdW  Elec       q    Type
REMARK                         _______ _______ _______ _____ _____    ______ ____
ROOT
ATOM      1  O   UNL     1       0.945  -2.581  -0.756  0.00  0.00    +0.000 OA
ATOM      2  N   UNL     1      -0.290  -1.271   0.707  0.00  0.00    +0.000 N 
ATOM      3  C   UNL     1       0.827  -1.574  -0.063  0.00  0.00    +0.000 C 
ATOM      4  H   UNL     1      -0.299  -0.447   1.298  0.00  0.00    +0.000 HD
ENDROOT
BRANCH   3   7
ATOM      5  N   UNL     1       4.319  -0.168  -0.185  0.00  0.00    +0.000 NA
ATOM      6  N   UNL     1       5.136   2.044   0.158  0.00  0.00    +0.000 N 
ATOM      7  C   UNL     1       1.948  -0.601   0.001  0.00  0.00    +0.000 A 
ATOM      8  C   UNL     1       1.718   0.739   0.292  0.00  0.00    +0.000 A 
ATOM      9  C   UNL     1       3.255  -1.000  -0.228  0.00  0.00    +0.000 A 
ATOM     10  C   UNL     1       2.788   1.626   0.345  0.00  0.00    +0.000 A 
ATOM     11  C   UNL     1       4.057   1.127   0.101  0.00  0.00    +0.000 A 
ATOM     12  H   UNL     1       4.955   3.016  -0.058  0.00  0.00    +0.000 HD
ATOM     13  H   UNL     1       6.061   1.676  -0.027  0.00  0.00    +0.000 HD
ENDBRANCH   3   7
BRANCH   2  14
ATOM     14  C   UNL     1      -1.445  -2.126   0.769  0.00  0.00    +0.000 C 
BRANCH  14  15
ATOM     15  C   UNL     1      -2.483  -1.782  -0.306  0.00  0.00    +0.000 C 
BRANCH  15  16
ATOM     16  C   UNL     1      -2.989  -0.382  -0.220  0.00  0.00    +0.000 A 
ATOM     17  C   UNL     1      -4.110  -0.092   0.558  0.00  0.00    +0.000 A 
ATOM     18  C   UNL     1      -2.341   0.638  -0.917  0.00  0.00    +0.000 A 
ATOM     19  C   UNL     1      -4.583   1.218   0.638  0.00  0.00    +0.000 A 
ATOM     20  C   UNL     1      -2.814   1.948  -0.837  0.00  0.00    +0.000 A 
ATOM     21  C   UNL     1      -3.936   2.238  -0.059  0.00  0.00    +0.000 A 
ENDBRANCH  15  16
ENDBRANCH  14  15
ENDBRANCH   2  14
TORSDOF 4
