REMARK  Name = 55036892
REMARK  2 active torsions:
REMARK  status: ('A' for Active; 'I' for Inactive)
REMARK    1  A    between atoms: N_3  and  C_6
REMARK    2  A    between atoms: C_7  and  C_8
REMARK                            x       y       z     vdW  Elec       q    Type
REMARK                         _______ _______ _______ _____ _____    ______ ____
ROOT
ATOM      1  O   UNL     1       0.197  -1.883   0.299  0.00  0.00    +0.000 OA
ATOM      2  N   UNL     1      -0.464   0.351  -0.022  0.00  0.00    +0.000 N 
ATOM      3  C   UNL     1       0.455  -0.695   0.137  0.00  0.00    +0.000 C 
ATOM      4  H   UNL     1      -0.101   1.285  -0.189  0.00  0.00    +0.000 HD
ENDROOT
BRANCH   3   7
ATOM      5  N   UNL     1       4.176  -0.906  -0.415  0.00  0.00    +0.000 NA
ATOM      6  N   UNL     1       5.902   0.713  -0.134  0.00  0.00    +0.000 N 
ATOM      7  C   UNL     1       1.887  -0.300   0.074  0.00  0.00    +0.000 A 
ATOM      8  C   UNL     1       2.293   0.983   0.423  0.00  0.00    +0.000 A 
ATOM      9  C   UNL     1       2.859  -1.199  -0.335  0.00  0.00    +0.000 A 
ATOM     10  C   UNL     1       3.640   1.323   0.353  0.00  0.00    +0.000 A 
ATOM     11  C   UNL     1       4.533   0.351  -0.068  0.00  0.00    +0.000 A 
ATOM     12  H   UNL     1       6.136   1.683  -0.302  0.00  0.00    +0.000 HD
ATOM     13  H   UNL     1       6.550   0.002  -0.448  0.00  0.00    +0.000 HD
ENDBRANCH   3   7
BRANCH   2  15
ATOM     14  F   UNL     1      -5.980   0.055  -0.060  0.00  0.00    +0.000 F 
ATOM     15  C   UNL     1      -1.857   0.276  -0.032  0.00  0.00    +0.000 A 
ATOM     16  C   UNL     1      -2.490  -0.956   0.131  0.00  0.00    +0.000 A 
ATOM     17  C   UNL     1      -2.616   1.433  -0.204  0.00  0.00    +0.000 A 
ATOM     18  C   UNL     1      -3.883  -1.031   0.120  0.00  0.00    +0.000 A 
ATOM     19  C   UNL     1      -4.009   1.359  -0.214  0.00  0.00    +0.000 A 
ATOM     20  C   UNL     1      -4.642   0.127  -0.052  0.00  0.00    +0.000 A 
ENDBRANCH   2  15
TORSDOF 2
