REMARK  Name = 55036893
REMARK  2 active torsions:
REMARK  status: ('A' for Active; 'I' for Inactive)
REMARK    1  A    between atoms: N_3  and  C_6
REMARK    2  A    between atoms: C_7  and  C_8
REMARK                            x       y       z     vdW  Elec       q    Type
REMARK                         _______ _______ _______ _____ _____    ______ ____
ROOT
ATOM      1  O   UNL     1       0.015  -1.788  -0.229  0.00  0.00    +0.000 OA
ATOM      2  N   UNL     1       0.508   0.495   0.043  0.00  0.00    +0.000 N 
ATOM      3  C   UNL     1      -0.330  -0.619  -0.095  0.00  0.00    +0.000 C 
ATOM      4  H   UNL     1       0.077   1.404   0.186  0.00  0.00    +0.000 HD
ENDROOT
BRANCH   3   7
ATOM      5  N   UNL     1      -3.595   1.237  -0.401  0.00  0.00    +0.000 NA
ATOM      6  N   UNL     1      -5.834   0.567   0.064  0.00  0.00    +0.000 N 
ATOM      7  C   UNL     1      -1.788  -0.329  -0.045  0.00  0.00    +0.000 A 
ATOM      8  C   UNL     1      -2.696  -1.291   0.383  0.00  0.00    +0.000 A 
ATOM      9  C   UNL     1      -2.284   0.908  -0.423  0.00  0.00    +0.000 A 
ATOM     10  C   UNL     1      -4.053  -0.991   0.419  0.00  0.00    +0.000 A 
ATOM     11  C   UNL     1      -4.448   0.276   0.021  0.00  0.00    +0.000 A 
ATOM     12  H   UNL     1      -6.490  -0.196  -0.049  0.00  0.00    +0.000 HD
ATOM     13  H   UNL     1      -6.119   1.492  -0.234  0.00  0.00    +0.000 HD
ENDBRANCH   3   7
BRANCH   2  15
ATOM     14  F   UNL     1       4.715  -1.773  -0.183  0.00  0.00    +0.000 F 
ATOM     15  C   UNL     1       1.903   0.523   0.058  0.00  0.00    +0.000 A 
ATOM     16  C   UNL     1       2.626  -0.662  -0.074  0.00  0.00    +0.000 A 
ATOM     17  C   UNL     1       2.575   1.737   0.206  0.00  0.00    +0.000 A 
ATOM     18  C   UNL     1       4.021  -0.634  -0.058  0.00  0.00    +0.000 A 
ATOM     19  C   UNL     1       3.970   1.765   0.223  0.00  0.00    +0.000 A 
ATOM     20  C   UNL     1       4.692   0.579   0.090  0.00  0.00    +0.000 A 
ENDBRANCH   2  15
TORSDOF 2
