REMARK  Name = 55036942
REMARK  2 active torsions:
REMARK  status: ('A' for Active; 'I' for Inactive)
REMARK    1  A    between atoms: N_3  and  C_6
REMARK    2  A    between atoms: C_7  and  C_8
REMARK                            x       y       z     vdW  Elec       q    Type
REMARK                         _______ _______ _______ _____ _____    ______ ____
ROOT
ATOM      1  O   UNL     1       0.226  -1.911   0.294  0.00  0.00    +0.000 OA
ATOM      2  N   UNL     1      -0.409   0.329  -0.031  0.00  0.00    +0.000 N 
ATOM      3  C   UNL     1       0.498  -0.727   0.128  0.00  0.00    +0.000 C 
ATOM      4  H   UNL     1      -0.035   1.259  -0.201  0.00  0.00    +0.000 HD
ENDROOT
BRANCH   3   7
ATOM      5  N   UNL     1       3.645   1.331   0.358  0.00  0.00    +0.000 NA
ATOM      6  N   UNL     1       5.917   0.788  -0.109  0.00  0.00    +0.000 N 
ATOM      7  C   UNL     1       1.934  -0.350   0.057  0.00  0.00    +0.000 A 
ATOM      8  C   UNL     1       2.896  -1.266  -0.355  0.00  0.00    +0.000 A 
ATOM      9  C   UNL     1       2.356   0.924   0.399  0.00  0.00    +0.000 A 
ATOM     10  C   UNL     1       4.232  -0.884  -0.410  0.00  0.00    +0.000 A 
ATOM     11  C   UNL     1       4.551   0.414  -0.047  0.00  0.00    +0.000 A 
ATOM     12  H   UNL     1       6.619   0.069   0.017  0.00  0.00    +0.000 HD
ATOM     13  H   UNL     1       6.146   1.736   0.163  0.00  0.00    +0.000 HD
ENDBRANCH   3   7
BRANCH   2  15
ATOM     14  I   UNL     1      -6.666   0.070  -0.049  0.00  0.00    +0.000 I 
ATOM     15  C   UNL     1      -1.803   0.272  -0.035  0.00  0.00    +0.000 A 
ATOM     16  C   UNL     1      -2.451  -0.952   0.133  0.00  0.00    +0.000 A 
ATOM     17  C   UNL     1      -2.549   1.438  -0.207  0.00  0.00    +0.000 A 
ATOM     18  C   UNL     1      -3.844  -1.010   0.129  0.00  0.00    +0.000 A 
ATOM     19  C   UNL     1      -3.942   1.380  -0.211  0.00  0.00    +0.000 A 
ATOM     20  C   UNL     1      -4.590   0.156  -0.043  0.00  0.00    +0.000 A 
ENDBRANCH   2  15
TORSDOF 2
