REMARK  Name = 55037218
REMARK  2 active torsions:
REMARK  status: ('A' for Active; 'I' for Inactive)
REMARK    1  A    between atoms: N_2  and  C_5
REMARK    2  A    between atoms: C_12  and  C_13
REMARK                            x       y       z     vdW  Elec       q    Type
REMARK                         _______ _______ _______ _____ _____    ______ ____
ROOT
ATOM      1  O   UNL     1      -0.338   2.106  -0.841  0.00  0.00    +0.000 OA
ATOM      2  N   UNL     1       0.601   0.036  -0.384  0.00  0.00    +0.000 N 
ATOM      3  C   UNL     1      -0.451   0.926  -0.519  0.00  0.00    +0.000 C 
ATOM      4  H   UNL     1       0.441  -0.894  -0.011  0.00  0.00    +0.000 HD
ENDROOT
BRANCH   3   7
ATOM      5  N   UNL     1      -4.070   0.773   0.511  0.00  0.00    +0.000 NA
ATOM      6  N   UNL     1      -5.593  -1.055   0.637  0.00  0.00    +0.000 N 
ATOM      7  C   UNL     1      -1.800   0.380  -0.221  0.00  0.00    +0.000 A 
ATOM      8  C   UNL     1      -2.076  -0.974  -0.376  0.00  0.00    +0.000 A 
ATOM      9  C   UNL     1      -2.822   1.204   0.222  0.00  0.00    +0.000 A 
ATOM     10  C   UNL     1      -3.349  -1.455  -0.088  0.00  0.00    +0.000 A 
ATOM     11  C   UNL     1      -4.302  -0.549   0.348  0.00  0.00    +0.000 A 
ATOM     12  H   UNL     1      -6.288  -0.388   0.949  0.00  0.00    +0.000 HD
ATOM     13  H   UNL     1      -5.909  -1.881   0.143  0.00  0.00    +0.000 HD
ENDBRANCH   3   7
BRANCH   2  14
ATOM     14  C   UNL     1       1.978   0.423  -0.616  0.00  0.00    +0.000 C 
ATOM     15  C   UNL     1       2.563   1.021   0.668  0.00  0.00    +0.000 C 
ATOM     16  C   UNL     1       2.754  -0.737  -1.246  0.00  0.00    +0.000 C 
ATOM     17  C   UNL     1       4.085   1.124   0.700  0.00  0.00    +0.000 C 
ATOM     18  C   UNL     1       3.342  -1.740  -0.253  0.00  0.00    +0.000 C 
ATOM     19  C   UNL     1       4.751  -0.152   1.212  0.00  0.00    +0.000 C 
ATOM     20  C   UNL     1       4.727  -1.332   0.246  0.00  0.00    +0.000 C 
ENDBRANCH   2  14
TORSDOF 2
