REMARK  Name = 55037219
REMARK  9 active torsions:
REMARK  status: ('A' for Active; 'I' for Inactive)
REMARK    1  A    between atoms: N_2  and  C_7
REMARK    2  A    between atoms: C_5  and  C_6
REMARK    3  A    between atoms: C_5  and  C_7
REMARK    4  A    between atoms: C_6  and  C_8
REMARK    5  A    between atoms: C_7  and  C_11
REMARK    6  A    between atoms: C_8  and  C_9
REMARK    7  A    between atoms: C_9  and  C_10
REMARK    8  A    between atoms: C_10  and  C_12
REMARK    9  A    between atoms: C_13  and  C_14
REMARK                            x       y       z     vdW  Elec       q    Type
REMARK                         _______ _______ _______ _____ _____    ______ ____
ROOT
ATOM      1  O   UNL     1       1.463  -2.112   1.512  0.00  0.00    +0.000 OA
ATOM      2  N   UNL     1       0.159  -1.414  -0.274  0.00  0.00    +0.000 N 
ATOM      3  C   UNL     1       1.261  -1.356   0.565  0.00  0.00    +0.000 C 
ATOM      4  H   UNL     1       0.056  -0.753  -1.037  0.00  0.00    +0.000 HD
ENDROOT
BRANCH   3   7
ATOM      5  N   UNL     1       3.240   1.236  -1.319  0.00  0.00    +0.000 NA
ATOM      6  N   UNL     1       4.925   2.759  -0.597  0.00  0.00    +0.000 N 
ATOM      7  C   UNL     1       2.235  -0.270   0.283  0.00  0.00    +0.000 A 
ATOM      8  C   UNL     1       3.034   0.256   1.291  0.00  0.00    +0.000 A 
ATOM      9  C   UNL     1       2.374   0.250  -0.994  0.00  0.00    +0.000 A 
ATOM     10  C   UNL     1       3.937   1.272   0.996  0.00  0.00    +0.000 A 
ATOM     11  C   UNL     1       4.001   1.723  -0.313  0.00  0.00    +0.000 A 
ATOM     12  H   UNL     1       4.964   3.089  -1.554  0.00  0.00    +0.000 HD
ATOM     13  H   UNL     1       5.169   3.404   0.143  0.00  0.00    +0.000 HD
ENDBRANCH   3   7
BRANCH   2  14
ATOM     14  C   UNL     1      -0.888  -2.396  -0.112  0.00  0.00    +0.000 C 
ATOM     15  C   UNL     1      -0.522  -3.666  -0.875  0.00  0.00    +0.000 C 
BRANCH  14  16
ATOM     16  C   UNL     1      -2.245  -1.851  -0.579  0.00  0.00    +0.000 C 
BRANCH  16  17
ATOM     17  C   UNL     1      -2.642  -0.560   0.148  0.00  0.00    +0.000 C 
BRANCH  17  18
ATOM     18  C   UNL     1      -3.986  -0.031  -0.361  0.00  0.00    +0.000 C 
BRANCH  18  19
ATOM     19  C   UNL     1      -4.421   1.274   0.311  0.00  0.00    +0.000 C 
BRANCH  19  20
ATOM     20  C   UNL     1      -5.751   1.815  -0.215  0.00  0.00    +0.000 C 
ATOM     21  C   UNL     1      -6.174   3.071   0.533  0.00  0.00    +0.000 C 
ENDBRANCH  19  20
ENDBRANCH  18  19
ENDBRANCH  17  18
ENDBRANCH  16  17
ENDBRANCH  14  16
ENDBRANCH   2  14
TORSDOF 7
