REMARK  Name = 55043386
REMARK  3 active torsions:
REMARK  status: ('A' for Active; 'I' for Inactive)
REMARK    1  A    between atoms: N_2  and  C_10
REMARK    2  A    between atoms: C_10  and  C_12
REMARK    3  A    between atoms: C_11  and  C_13
REMARK                            x       y       z     vdW  Elec       q    Type
REMARK                         _______ _______ _______ _____ _____    ______ ____
ROOT
ATOM      1  O   UNL     1      -0.421  -2.547   0.565  0.00  0.00    +0.000 OA
ATOM      2  N   UNL     1       3.323   0.646  -0.297  0.00  0.00    +0.000 NA
ATOM      3  N   UNL     1       0.830  -0.764  -0.283  0.00  0.00    +0.000 N 
ATOM      4  C   UNL     1       2.054   1.383  -0.226  0.00  0.00    +0.000 C 
ATOM      5  C   UNL     1       3.204  -0.651   0.385  0.00  0.00    +0.000 C 
ATOM      6  C   UNL     1       0.914   0.583  -0.860  0.00  0.00    +0.000 C 
ATOM      7  C   UNL     1       2.096  -1.492  -0.248  0.00  0.00    +0.000 C 
ATOM      8  C   UNL     1      -0.341  -1.394   0.144  0.00  0.00    +0.000 C 
ENDROOT
BRANCH   8  11
ATOM      9  N   UNL     1      -3.163   0.852   1.175  0.00  0.00    +0.000 NA
ATOM     10  N   UNL     1      -5.127   1.539   0.014  0.00  0.00    +0.000 N 
ATOM     11  C   UNL     1      -1.597  -0.635   0.087  0.00  0.00    +0.000 A 
ATOM     12  C   UNL     1      -2.401  -0.662  -1.048  0.00  0.00    +0.000 A 
ATOM     13  C   UNL     1      -2.019   0.131   1.162  0.00  0.00    +0.000 A 
ATOM     14  C   UNL     1      -3.584   0.067  -1.072  0.00  0.00    +0.000 A 
ATOM     15  C   UNL     1      -3.917   0.801   0.055  0.00  0.00    +0.000 A 
ATOM     16  H   UNL     1      -5.363   2.079   0.838  0.00  0.00    +0.000 HD
ATOM     17  H   UNL     1      -5.464   1.862  -0.884  0.00  0.00    +0.000 HD
ENDBRANCH   8  11
BRANCH   2  18
ATOM     18  C   UNL     1       4.409   1.434   0.285  0.00  0.00    +0.000 C 
ATOM     19  C   UNL     1       5.740   0.712   0.161  0.00  0.00    +0.000 C 
ENDBRANCH   2  18
TORSDOF 2
