REMARK  Name = 55041655
REMARK  4 active torsions:
REMARK  status: ('A' for Active; 'I' for Inactive)
REMARK    1  A    between atoms: N_5  and  C_8
REMARK    2  A    between atoms: N_5  and  C_11
REMARK    3  A    between atoms: C_11  and  C_13
REMARK    4  A    between atoms: C_12  and  C_14
REMARK                            x       y       z     vdW  Elec       q    Type
REMARK                         _______ _______ _______ _____ _____    ______ ____
ROOT
ATOM      1  O   UNL     1       0.524   1.847   1.226  0.00  0.00    +0.000 OA
ATOM      2  N   UNL     1       1.143  -0.280   0.472  0.00  0.00    +0.000 N 
ATOM      3  C   UNL     1       0.243   0.764   0.717  0.00  0.00    +0.000 C 
ENDROOT
BRANCH   3   6
ATOM      4  N   UNL     1      -2.782   0.119  -1.410  0.00  0.00    +0.000 NA
ATOM      5  N   UNL     1      -5.094  -0.016  -0.852  0.00  0.00    +0.000 N 
ATOM      6  C   UNL     1      -1.163   0.563   0.329  0.00  0.00    +0.000 A 
ATOM      7  C   UNL     1      -2.182   0.617   1.274  0.00  0.00    +0.000 A 
ATOM      8  C   UNL     1      -1.512   0.313  -0.988  0.00  0.00    +0.000 A 
ATOM      9  C   UNL     1      -3.500   0.423   0.878  0.00  0.00    +0.000 A 
ATOM     10  C   UNL     1      -3.745   0.179  -0.464  0.00  0.00    +0.000 A 
ATOM     11  H   UNL     1      -5.741  -0.395  -0.171  0.00  0.00    +0.000 HD
ATOM     12  H   UNL     1      -5.268  -0.200  -1.833  0.00  0.00    +0.000 HD
ENDBRANCH   3   6
BRANCH   2  13
ATOM     13  C   UNL     1       0.772  -1.545  -0.131  0.00  0.00    +0.000 C 
ATOM     14  C   UNL     1      -0.336  -2.380   0.439  0.00  0.00    +0.000 C 
ATOM     15  C   UNL     1       1.086  -2.848   0.543  0.00  0.00    +0.000 C 
ENDBRANCH   2  13
BRANCH   2  16
ATOM     16  C   UNL     1       2.559  -0.102   0.768  0.00  0.00    +0.000 C 
BRANCH  16  20
ATOM     17  F   UNL     1       2.827   1.658  -0.787  0.00  0.00    +0.000 F 
ATOM     18  F   UNL     1       4.618   0.610  -0.116  0.00  0.00    +0.000 F 
ATOM     19  F   UNL     1       3.232  -0.375  -1.481  0.00  0.00    +0.000 F 
ATOM     20  C   UNL     1       3.310   0.452  -0.417  0.00  0.00    +0.000 C 
ENDBRANCH  16  20
ENDBRANCH   2  16
TORSDOF 4
