REMARK  Name = 55042870
REMARK  5 active torsions:
REMARK  status: ('A' for Active; 'I' for Inactive)
REMARK    1  A    between atoms: N_5  and  C_10
REMARK    2  A    between atoms: N_6  and  C_12
REMARK    3  A    between atoms: C_8  and  C_11
REMARK    4  A    between atoms: C_10  and  C_16
REMARK    5  A    between atoms: C_12  and  C_17
REMARK                            x       y       z     vdW  Elec       q    Type
REMARK                         _______ _______ _______ _____ _____    ______ ____
ROOT
ATOM      1  N   UNL     1       4.264  -0.596  -0.071  0.00  0.00    +0.000 N 
ATOM      2  N   UNL     1       2.100  -1.243   0.685  0.00  0.00    +0.000 NA
ATOM      3  C   UNL     1       0.251   0.298   0.457  0.00  0.00    +0.000 A 
ATOM      4  C   UNL     1       2.890  -0.305   0.116  0.00  0.00    +0.000 A 
ATOM      5  C   UNL     1       1.096   1.237  -0.125  0.00  0.00    +0.000 A 
ATOM      6  C   UNL     1       2.442   0.937  -0.302  0.00  0.00    +0.000 A 
ATOM      7  C   UNL     1       0.797  -0.916   0.841  0.00  0.00    +0.000 A 
ATOM      8  H   UNL     1       4.579  -1.508   0.238  0.00  0.00    +0.000 HD
ENDROOT
BRANCH   3  11
ATOM      9  O   UNL     1      -1.560   1.754   0.773  0.00  0.00    +0.000 OA
ATOM     10  N   UNL     1      -2.032  -0.514   0.682  0.00  0.00    +0.000 N 
ATOM     11  C   UNL     1      -1.160   0.581   0.655  0.00  0.00    +0.000 C 
ATOM     12  H   UNL     1      -1.675  -1.450   0.520  0.00  0.00    +0.000 HD
BRANCH  10  13
ATOM     13  C   UNL     1      -3.463  -0.394   0.847  0.00  0.00    +0.000 C 
BRANCH  13  17
ATOM     14  F   UNL     1      -3.946  -1.336  -1.266  0.00  0.00    +0.000 F 
ATOM     15  F   UNL     1      -5.501  -0.153  -0.298  0.00  0.00    +0.000 F 
ATOM     16  F   UNL     1      -3.755   0.839  -1.148  0.00  0.00    +0.000 F 
ATOM     17  C   UNL     1      -4.167  -0.260  -0.480  0.00  0.00    +0.000 C 
ENDBRANCH  13  17
ENDBRANCH  10  13
ENDBRANCH   3  11
BRANCH   1  18
ATOM     18  C   UNL     1       5.174   0.331  -0.662  0.00  0.00    +0.000 C 
ATOM     19  C   UNL     1       6.570  -0.261  -0.703  0.00  0.00    +0.000 C 
ENDBRANCH   1  18
TORSDOF 4
