REMARK  Name = 55041948
REMARK  4 active torsions:
REMARK  status: ('A' for Active; 'I' for Inactive)
REMARK    1  A    between atoms: N_2  and  C_11
REMARK    2  A    between atoms: N_3  and  C_12
REMARK    3  A    between atoms: C_11  and  C_12
REMARK    4  A    between atoms: C_13  and  C_14
REMARK                            x       y       z     vdW  Elec       q    Type
REMARK                         _______ _______ _______ _____ _____    ______ ____
ROOT
ATOM      1  O   UNL     1      -0.666  -1.706  -0.302  0.00  0.00    +0.000 OA
ATOM      2  N   UNL     1      -0.266   0.537  -0.740  0.00  0.00    +0.000 N 
ATOM      3  C   UNL     1      -1.065  -0.548  -0.397  0.00  0.00    +0.000 C 
ATOM      4  H   UNL     1      -0.651   1.475  -0.750  0.00  0.00    +0.000 HD
ENDROOT
BRANCH   3   7
ATOM      5  N   UNL     1      -4.575  -0.832   0.939  0.00  0.00    +0.000 NA
ATOM      6  N   UNL     1      -6.516   0.495   0.554  0.00  0.00    +0.000 N 
ATOM      7  C   UNL     1      -2.502  -0.253  -0.162  0.00  0.00    +0.000 A 
ATOM      8  C   UNL     1      -3.123   0.827  -0.780  0.00  0.00    +0.000 A 
ATOM      9  C   UNL     1      -3.265  -1.045   0.681  0.00  0.00    +0.000 A 
ATOM     10  C   UNL     1      -4.469   1.078  -0.540  0.00  0.00    +0.000 A 
ATOM     11  C   UNL     1      -5.144   0.226   0.320  0.00  0.00    +0.000 A 
ATOM     12  H   UNL     1      -7.004  -0.126   1.188  0.00  0.00    +0.000 HD
ATOM     13  H   UNL     1      -6.839   1.452   0.476  0.00  0.00    +0.000 HD
ENDBRANCH   3   7
BRANCH   2  14
ATOM     14  C   UNL     1       1.138   0.408  -1.022  0.00  0.00    +0.000 C 
BRANCH  14  15
ATOM     15  C   UNL     1       1.971   0.574   0.240  0.00  0.00    +0.000 C 
BRANCH  15  16
ATOM     16  N   UNL     1       3.395   0.450  -0.071  0.00  0.00    +0.000 NA
ATOM     17  C   UNL     1       3.780  -0.966  -0.161  0.00  0.00    +0.000 C 
ATOM     18  C   UNL     1       4.204   1.157   0.932  0.00  0.00    +0.000 C 
ATOM     19  C   UNL     1       5.256  -1.114  -0.534  0.00  0.00    +0.000 C 
ATOM     20  C   UNL     1       5.693   1.079   0.595  0.00  0.00    +0.000 C 
ATOM     21  C   UNL     1       6.153  -0.367   0.446  0.00  0.00    +0.000 C 
ENDBRANCH  15  16
ENDBRANCH  14  15
ENDBRANCH   2  14
TORSDOF 4
