REMARK  Name = 55136663
REMARK  3 active torsions:
REMARK  status: ('A' for Active; 'I' for Inactive)
REMARK    1  A    between atoms: N_3  and  C_7
REMARK    2  A    between atoms: N_5  and  C_9
REMARK    3  A    between atoms: C_6  and  C_8
REMARK                            x       y       z     vdW  Elec       q    Type
REMARK                         _______ _______ _______ _____ _____    ______ ____
ROOT
ATOM      1  O   UNL     1      -0.282  -1.474  -0.776  0.00  0.00    +0.000 OA
ATOM      2  N   UNL     1       0.324   0.614   0.119  0.00  0.00    +0.000 N 
ATOM      3  C   UNL     1      -0.569  -0.368  -0.330  0.00  0.00    +0.000 C 
ATOM      4  H   UNL     1      -0.083   1.479   0.470  0.00  0.00    +0.000 HD
ENDROOT
BRANCH   2   6
ATOM      5  F   UNL     1       4.409  -1.747  -0.672  0.00  0.00    +0.000 F 
ATOM      6  C   UNL     1       1.717   0.555   0.158  0.00  0.00    +0.000 A 
ATOM      7  C   UNL     1       2.380  -0.589  -0.286  0.00  0.00    +0.000 A 
ATOM      8  C   UNL     1       2.448   1.641   0.643  0.00  0.00    +0.000 A 
ATOM      9  C   UNL     1       3.773  -0.648  -0.246  0.00  0.00    +0.000 A 
ATOM     10  C   UNL     1       3.841   1.581   0.683  0.00  0.00    +0.000 A 
ATOM     11  C   UNL     1       4.503   0.437   0.238  0.00  0.00    +0.000 A 
ENDBRANCH   2   6
BRANCH   3  13
ATOM     12  N   UNL     1      -4.220  -0.469   0.650  0.00  0.00    +0.000 NA
ATOM     13  C   UNL     1      -2.009  -0.019  -0.219  0.00  0.00    +0.000 A 
ATOM     14  C   UNL     1      -2.905  -0.761   0.533  0.00  0.00    +0.000 A 
ATOM     15  C   UNL     1      -2.494   1.096  -0.895  0.00  0.00    +0.000 A 
ATOM     16  C   UNL     1      -3.840   1.429  -0.800  0.00  0.00    +0.000 A 
ATOM     17  C   UNL     1      -4.655   0.622  -0.022  0.00  0.00    +0.000 A 
BRANCH  14  18
ATOM     18  N   UNL     1      -2.420  -1.900   1.223  0.00  0.00    +0.000 N 
ATOM     19  H   UNL     1      -1.642  -2.413   0.827  0.00  0.00    +0.000 HD
ATOM     20  H   UNL     1      -3.097  -2.421   1.768  0.00  0.00    +0.000 HD
ENDBRANCH  14  18
ENDBRANCH   3  13
TORSDOF 3
