REMARK  Name = 55136662
REMARK  3 active torsions:
REMARK  status: ('A' for Active; 'I' for Inactive)
REMARK    1  A    between atoms: N_3  and  C_7
REMARK    2  A    between atoms: N_5  and  C_9
REMARK    3  A    between atoms: C_6  and  C_8
REMARK                            x       y       z     vdW  Elec       q    Type
REMARK                         _______ _______ _______ _____ _____    ______ ____
ROOT
ATOM      1  O   UNL     1       0.483  -1.455   1.016  0.00  0.00    +0.000 OA
ATOM      2  N   UNL     1      -0.270   0.462  -0.117  0.00  0.00    +0.000 N 
ATOM      3  C   UNL     1       0.691  -0.402   0.423  0.00  0.00    +0.000 C 
ATOM      4  H   UNL     1       0.075   1.296  -0.589  0.00  0.00    +0.000 HD
ENDROOT
BRANCH   2   6
ATOM      5  F   UNL     1      -5.765  -0.100  -0.059  0.00  0.00    +0.000 F 
ATOM      6  C   UNL     1      -1.658   0.320  -0.103  0.00  0.00    +0.000 A 
ATOM      7  C   UNL     1      -2.239  -0.793   0.506  0.00  0.00    +0.000 A 
ATOM      8  C   UNL     1      -2.465   1.291  -0.697  0.00  0.00    +0.000 A 
ATOM      9  C   UNL     1      -3.626  -0.935   0.520  0.00  0.00    +0.000 A 
ATOM     10  C   UNL     1      -3.852   1.149  -0.682  0.00  0.00    +0.000 A 
ATOM     11  C   UNL     1      -4.433   0.036  -0.074  0.00  0.00    +0.000 A 
ENDBRANCH   2   6
BRANCH   3  13
ATOM     12  N   UNL     1       4.316  -0.421  -0.656  0.00  0.00    +0.000 NA
ATOM     13  C   UNL     1       2.105   0.011   0.221  0.00  0.00    +0.000 A 
ATOM     14  C   UNL     1       3.025  -0.770  -0.460  0.00  0.00    +0.000 A 
ATOM     15  C   UNL     1       2.538   1.229   0.734  0.00  0.00    +0.000 A 
ATOM     16  C   UNL     1       3.859   1.623   0.553  0.00  0.00    +0.000 A 
ATOM     17  C   UNL     1       4.701   0.769  -0.143  0.00  0.00    +0.000 A 
BRANCH  14  18
ATOM     18  N   UNL     1       2.591  -2.014  -0.983  0.00  0.00    +0.000 N 
ATOM     19  H   UNL     1       1.856  -2.514  -0.499  0.00  0.00    +0.000 HD
ATOM     20  H   UNL     1       3.284  -2.562  -1.479  0.00  0.00    +0.000 HD
ENDBRANCH  14  18
ENDBRANCH   3  13
TORSDOF 3
