REMARK  Name = 55137276
REMARK  7 active torsions:
REMARK  status: ('A' for Active; 'I' for Inactive)
REMARK    1  A    between atoms: N_5  and  C_8
REMARK    2  A    between atoms: N_5  and  C_10
REMARK    3  A    between atoms: N_6  and  C_14
REMARK    4  A    between atoms: C_8  and  C_9
REMARK    5  A    between atoms: C_9  and  C_13
REMARK    6  A    between atoms: C_11  and  C_12
REMARK    7  A    between atoms: C_14  and  C_17
REMARK                            x       y       z     vdW  Elec       q    Type
REMARK                         _______ _______ _______ _____ _____    ______ ____
ROOT
ATOM      1  N   UNL     1      -3.003   0.881  -0.217  0.00  0.00    +0.000 NA
ATOM      2  C   UNL     1      -1.751   0.395  -0.069  0.00  0.00    +0.000 A 
ATOM      3  C   UNL     1      -1.454  -0.949   0.091  0.00  0.00    +0.000 A 
ATOM      4  C   UNL     1      -2.511  -1.852   0.098  0.00  0.00    +0.000 A 
ATOM      5  C   UNL     1      -3.814  -1.390  -0.052  0.00  0.00    +0.000 A 
ATOM      6  C   UNL     1      -4.005  -0.026  -0.205  0.00  0.00    +0.000 A 
ENDROOT
BRANCH   3   9
ATOM      7  O   UNL     1       0.229  -2.079   1.269  0.00  0.00    +0.000 OA
ATOM      8  N   UNL     1       0.801  -1.184  -0.792  0.00  0.00    +0.000 N 
ATOM      9  C   UNL     1      -0.093  -1.442   0.252  0.00  0.00    +0.000 C 
ATOM     10  H   UNL     1       0.472  -0.677  -1.609  0.00  0.00    +0.000 HD
BRANCH   8  11
ATOM     11  C   UNL     1       2.177  -1.627  -0.791  0.00  0.00    +0.000 C 
BRANCH  11  15
ATOM     12  F   UNL     1       4.369  -1.044  -0.175  0.00  0.00    +0.000 F 
ATOM     13  F   UNL     1       3.056   0.565  -0.838  0.00  0.00    +0.000 F 
ATOM     14  F   UNL     1       2.752  -0.361   1.118  0.00  0.00    +0.000 F 
ATOM     15  C   UNL     1       3.091  -0.605  -0.165  0.00  0.00    +0.000 C 
ENDBRANCH  11  15
ENDBRANCH   8  11
ENDBRANCH   3   9
BRANCH   2  16
ATOM     16  N   UNL     1      -0.702   1.302  -0.074  0.00  0.00    +0.000 N 
ATOM     17  H   UNL     1       0.228   0.935  -0.242  0.00  0.00    +0.000 HD
BRANCH  16  18
ATOM     18  C   UNL     1      -0.875   2.726  -0.231  0.00  0.00    +0.000 C 
BRANCH  18  19
ATOM     19  C   UNL     1       0.475   3.434  -0.255  0.00  0.00    +0.000 C 
ATOM     20  C   UNL     1       1.258   3.257   1.038  0.00  0.00    +0.000 C 
ENDBRANCH  18  19
ENDBRANCH  16  18
ENDBRANCH   2  16
TORSDOF 6
