REMARK  Name = 55140555
REMARK  5 active torsions:
REMARK  status: ('A' for Active; 'I' for Inactive)
REMARK    1  A    between atoms: N_2  and  C_10
REMARK    2  A    between atoms: N_3  and  C_12
REMARK    3  A    between atoms: C_10  and  C_11
REMARK    4  A    between atoms: C_11  and  C_12
REMARK    5  A    between atoms: C_13  and  C_14
REMARK                            x       y       z     vdW  Elec       q    Type
REMARK                         _______ _______ _______ _____ _____    ______ ____
ROOT
ATOM      1  O   UNL     1       1.073  -2.215  -1.229  0.00  0.00    +0.000 OA
ATOM      2  N   UNL     1       0.218  -1.480   0.798  0.00  0.00    +0.000 N 
ATOM      3  C   UNL     1       1.129  -1.474  -0.252  0.00  0.00    +0.000 C 
ATOM      4  H   UNL     1       0.355  -0.876   1.601  0.00  0.00    +0.000 HD
ENDROOT
BRANCH   3   7
ATOM      5  N   UNL     1       3.094   1.584   0.735  0.00  0.00    +0.000 NA
ATOM      6  N   UNL     1       5.327   2.249   0.234  0.00  0.00    +0.000 N 
ATOM      7  C   UNL     1       2.251  -0.506  -0.138  0.00  0.00    +0.000 A 
ATOM      8  C   UNL     1       3.471  -0.747  -0.760  0.00  0.00    +0.000 A 
ATOM      9  C   UNL     1       2.115   0.663   0.592  0.00  0.00    +0.000 A 
ATOM     10  C   UNL     1       4.503   0.177  -0.636  0.00  0.00    +0.000 A 
ATOM     11  C   UNL     1       4.266   1.317   0.116  0.00  0.00    +0.000 A 
ATOM     12  H   UNL     1       5.151   3.077   0.789  0.00  0.00    +0.000 HD
ATOM     13  H   UNL     1       6.277   1.907   0.170  0.00  0.00    +0.000 HD
ENDBRANCH   3   7
BRANCH   2  14
ATOM     14  C   UNL     1      -0.906  -2.375   0.845  0.00  0.00    +0.000 C 
BRANCH  14  15
ATOM     15  C   UNL     1      -2.151  -1.787   0.186  0.00  0.00    +0.000 C 
BRANCH  15  16
ATOM     16  C   UNL     1      -2.592  -0.477   0.841  0.00  0.00    +0.000 C 
BRANCH  16  17
ATOM     17  N   UNL     1      -3.770   0.050   0.168  0.00  0.00    +0.000 NA
ATOM     18  C   UNL     1      -4.483   1.035   0.980  0.00  0.00    +0.000 C 
ATOM     19  C   UNL     1      -3.437   0.751  -1.072  0.00  0.00    +0.000 C 
ATOM     20  C   UNL     1      -5.397   1.713  -0.030  0.00  0.00    +0.000 C 
ATOM     21  C   UNL     1      -4.711   1.523  -1.379  0.00  0.00    +0.000 C 
ENDBRANCH  16  17
ENDBRANCH  15  16
ENDBRANCH  14  15
ENDBRANCH   2  14
TORSDOF 5
