REMARK  Name = 55167267
REMARK  6 active torsions:
REMARK  status: ('A' for Active; 'I' for Inactive)
REMARK    1  A    between atoms: N_5  and  C_8
REMARK    2  A    between atoms: N_6  and  C_13
REMARK    3  A    between atoms: N_6  and  C_17
REMARK    4  A    between atoms: C_8  and  C_9
REMARK    5  A    between atoms: C_9  and  C_12
REMARK    6  A    between atoms: C_10  and  C_11
REMARK                            x       y       z     vdW  Elec       q    Type
REMARK                         _______ _______ _______ _____ _____    ______ ____
ROOT
ATOM      1  O   UNL     1       0.055   1.634   1.175  0.00  0.00    +0.000 OA
ATOM      2  N   UNL     1      -0.439   0.429  -0.745  0.00  0.00    +0.000 N 
ATOM      3  C   UNL     1       0.413   0.936   0.230  0.00  0.00    +0.000 C 
ATOM      4  H   UNL     1      -0.055  -0.138  -1.495  0.00  0.00    +0.000 HD
ENDROOT
BRANCH   3   6
ATOM      5  N   UNL     1       3.638  -1.013  -0.080  0.00  0.00    +0.000 NA
ATOM      6  C   UNL     1       1.854   0.612   0.072  0.00  0.00    +0.000 A 
ATOM      7  C   UNL     1       2.333  -0.689   0.058  0.00  0.00    +0.000 A 
ATOM      8  C   UNL     1       2.774   1.645  -0.065  0.00  0.00    +0.000 A 
ATOM      9  C   UNL     1       4.125   1.352  -0.210  0.00  0.00    +0.000 A 
ATOM     10  C   UNL     1       4.503   0.018  -0.211  0.00  0.00    +0.000 A 
BRANCH   7  11
ATOM     11  N   UNL     1       1.402  -1.748   0.201  0.00  0.00    +0.000 N 
ATOM     12  C   UNL     1       1.791  -3.120   0.200  0.00  0.00    +0.000 C 
ATOM     13  H   UNL     1       0.493  -1.518   0.588  0.00  0.00    +0.000 HD
ENDBRANCH   7  11
ENDBRANCH   3   6
BRANCH   2  14
ATOM     14  C   UNL     1      -1.854   0.677  -0.744  0.00  0.00    +0.000 C 
BRANCH  14  15
ATOM     15  C   UNL     1      -2.632  -0.379   0.034  0.00  0.00    +0.000 C 
BRANCH  15  19
ATOM     16  F   UNL     1      -4.627  -0.158  -1.234  0.00  0.00    +0.000 F 
ATOM     17  F   UNL     1      -4.778  -1.097   0.733  0.00  0.00    +0.000 F 
ATOM     18  F   UNL     1      -4.428   1.049   0.569  0.00  0.00    +0.000 F 
ATOM     19  C   UNL     1      -4.130  -0.150   0.020  0.00  0.00    +0.000 C 
ENDBRANCH  15  19
ENDBRANCH  14  15
ENDBRANCH   2  14
TORSDOF 5
