REMARK  Name = 55174569
REMARK  6 active torsions:
REMARK  status: ('A' for Active; 'I' for Inactive)
REMARK    1  A    between atoms: N_5  and  C_8
REMARK    2  A    between atoms: N_6  and  C_16
REMARK    3  A    between atoms: C_8  and  C_9
REMARK    4  A    between atoms: C_9  and  C_12
REMARK    5  A    between atoms: C_10  and  C_11
REMARK    6  A    between atoms: C_16  and  C_18
REMARK                            x       y       z     vdW  Elec       q    Type
REMARK                         _______ _______ _______ _____ _____    ______ ____
ROOT
ATOM      1  N   UNL     1      -4.483   0.225   0.083  0.00  0.00    +0.000 N 
ATOM      2  N   UNL     1      -2.866  -1.518   0.239  0.00  0.00    +0.000 NA
ATOM      3  C   UNL     1      -0.519  -0.987   0.003  0.00  0.00    +0.000 A 
ATOM      4  C   UNL     1      -3.133  -0.205   0.058  0.00  0.00    +0.000 A 
ATOM      5  C   UNL     1      -0.834   0.355  -0.179  0.00  0.00    +0.000 A 
ATOM      6  C   UNL     1      -2.163   0.762  -0.152  0.00  0.00    +0.000 A 
ATOM      7  C   UNL     1      -1.563  -1.875   0.207  0.00  0.00    +0.000 A 
ATOM      8  H   UNL     1      -5.182  -0.492   0.239  0.00  0.00    +0.000 HD
ENDROOT
BRANCH   3  11
ATOM      9  O   UNL     1       1.195  -2.475   0.589  0.00  0.00    +0.000 OA
ATOM     10  N   UNL     1       1.777  -0.687  -0.769  0.00  0.00    +0.000 N 
ATOM     11  C   UNL     1       0.891  -1.453  -0.020  0.00  0.00    +0.000 C 
ATOM     12  H   UNL     1       1.448   0.119  -1.289  0.00  0.00    +0.000 HD
BRANCH  10  13
ATOM     13  C   UNL     1       3.167  -1.022  -0.908  0.00  0.00    +0.000 C 
BRANCH  13  14
ATOM     14  C   UNL     1       4.033  -0.390   0.176  0.00  0.00    +0.000 C 
BRANCH  14  18
ATOM     15  F   UNL     1       4.741   1.642   1.165  0.00  0.00    +0.000 F 
ATOM     16  F   UNL     1       4.352   1.638  -0.980  0.00  0.00    +0.000 F 
ATOM     17  F   UNL     1       2.688   1.551   0.424  0.00  0.00    +0.000 F 
ATOM     18  C   UNL     1       3.948   1.123   0.203  0.00  0.00    +0.000 C 
ENDBRANCH  14  18
ENDBRANCH  13  14
ENDBRANCH  10  13
ENDBRANCH   3  11
BRANCH   1  19
ATOM     19  C   UNL     1      -4.860   1.589  -0.098  0.00  0.00    +0.000 C 
ATOM     20  C   UNL     1      -6.370   1.725  -0.041  0.00  0.00    +0.000 C 
ENDBRANCH   1  19
TORSDOF 5
