REMARK  Name = 55284670
REMARK  2 active torsions:
REMARK  status: ('A' for Active; 'I' for Inactive)
REMARK    1  A    between atoms: C_4  and  C_7
REMARK    2  A    between atoms: C_5  and  C_10
REMARK                            x       y       z     vdW  Elec       q    Type
REMARK                         _______ _______ _______ _____ _____    ______ ____
ROOT
ATOM      1  N   UNL     1       1.159   1.396   0.056  0.00  0.00    +0.000 NA
ATOM      2  N   UNL     1       3.248   0.259  -0.091  0.00  0.00    +0.000 N 
ATOM      3  C   UNL     1      -0.163  -1.067   0.014  0.00  0.00    +0.000 A 
ATOM      4  C   UNL     1      -0.891   0.115   0.099  0.00  0.00    +0.000 A 
ATOM      5  C   UNL     1       1.225  -1.019  -0.049  0.00  0.00    +0.000 A 
ATOM      6  C   UNL     1      -0.846  -2.394  -0.009  0.00  0.00    +0.000 C 
ATOM      7  C   UNL     1       1.833   0.226  -0.026  0.00  0.00    +0.000 A 
ATOM      8  C   UNL     1      -0.188   1.310   0.116  0.00  0.00    +0.000 A 
ATOM      9  H   UNL     1       3.765  -0.533   0.271  0.00  0.00    +0.000 HD
ATOM     10  H   UNL     1       3.688   1.170  -0.068  0.00  0.00    +0.000 HD
ENDROOT
BRANCH   4  12
ATOM     11  O   UNL     1      -3.033   1.048  -0.277  0.00  0.00    +0.000 OA
ATOM     12  C   UNL     1      -2.344   0.127   0.169  0.00  0.00    +0.000 C 
ENDBRANCH   4  12
TORSDOF 1
