REMARK  Name = 56744367
REMARK  8 active torsions:
REMARK  status: ('A' for Active; 'I' for Inactive)
REMARK    1  A    between atoms: O_1  and  C_6
REMARK    2  A    between atoms: N_3  and  C_8
REMARK    3  A    between atoms: N_3  and  C_12
REMARK    4  A    between atoms: C_6  and  C_7
REMARK    5  A    between atoms: C_6  and  C_9
REMARK    6  A    between atoms: C_6  and  C_10
REMARK    7  A    between atoms: C_7  and  C_8
REMARK    8  A    between atoms: C_11  and  C_13
REMARK                            x       y       z     vdW  Elec       q    Type
REMARK                         _______ _______ _______ _____ _____    ______ ____
ROOT
ATOM      1  O   UNL     1      -0.979  -3.128  -0.614  0.00  0.00    +0.000 OA
ATOM      2  N   UNL     1       0.925  -1.998   0.196  0.00  0.00    +0.000 N 
ATOM      3  C   UNL     1      -0.429  -2.113  -0.190  0.00  0.00    +0.000 C 
ATOM      4  C   UNL     1       1.847  -3.136   0.122  0.00  0.00    +0.000 C 
ENDROOT
BRANCH   3   7
ATOM      5  N   UNL     1      -2.140   1.093  -1.131  0.00  0.00    +0.000 NA
ATOM      6  N   UNL     1      -3.614   2.505   0.098  0.00  0.00    +0.000 N 
ATOM      7  C   UNL     1      -1.270  -0.909  -0.091  0.00  0.00    +0.000 A 
ATOM      8  C   UNL     1      -1.972  -0.619   1.073  0.00  0.00    +0.000 A 
ATOM      9  C   UNL     1      -1.386  -0.029  -1.155  0.00  0.00    +0.000 A 
ATOM     10  C   UNL     1      -2.759   0.526   1.137  0.00  0.00    +0.000 A 
ATOM     11  C   UNL     1      -2.809   1.342   0.018  0.00  0.00    +0.000 A 
ATOM     12  H   UNL     1      -3.652   3.094  -0.724  0.00  0.00    +0.000 HD
ATOM     13  H   UNL     1      -4.414   2.495   0.719  0.00  0.00    +0.000 HD
ENDBRANCH   3   7
BRANCH   2  14
ATOM     14  C   UNL     1       1.472  -0.760   0.682  0.00  0.00    +0.000 C 
BRANCH  14  15
ATOM     15  C   UNL     1       2.032   0.087  -0.461  0.00  0.00    +0.000 C 
BRANCH  15  16
ATOM     16  C   UNL     1       2.617   1.443  -0.020  0.00  0.00    +0.000 C 
ATOM     17  C   UNL     1       1.582   2.325   0.681  0.00  0.00    +0.000 C 
ATOM     18  C   UNL     1       3.192   2.176  -1.237  0.00  0.00    +0.000 C 
BRANCH  16  19
ATOM     19  O   UNL     1       3.691   1.195   0.890  0.00  0.00    +0.000 OA
ATOM     20  H   UNL     1       4.060   2.053   1.161  0.00  0.00    +0.000 HD
ENDBRANCH  16  19
ENDBRANCH  15  16
ENDBRANCH  14  15
ENDBRANCH   2  14
TORSDOF 5
