REMARK  Name = 57012646
REMARK  2 active torsions:
REMARK  status: ('A' for Active; 'I' for Inactive)
REMARK    1  A    between atoms: S_1  and  N_4
REMARK    2  A    between atoms: C_6  and  C_11
REMARK                            x       y       z     vdW  Elec       q    Type
REMARK                         _______ _______ _______ _____ _____    ______ ____
ROOT
ATOM      1  N   UNL     1       1.669   1.256  -0.212  0.00  0.00    +0.000 NA
ATOM      2  N   UNL     1       3.849   0.337   0.079  0.00  0.00    +0.000 N 
ATOM      3  C   UNL     1      -0.261  -0.191  -0.052  0.00  0.00    +0.000 A 
ATOM      4  C   UNL     1       0.566  -1.280   0.196  0.00  0.00    +0.000 A 
ATOM      5  C   UNL     1       1.944  -1.103   0.240  0.00  0.00    +0.000 A 
ATOM      6  C   UNL     1       0.335   1.045  -0.247  0.00  0.00    +0.000 A 
ATOM      7  C   UNL     1       2.442   0.173   0.031  0.00  0.00    +0.000 A 
ATOM      8  H   UNL     1       4.388  -0.299   0.653  0.00  0.00    +0.000 HD
ATOM      9  H   UNL     1       4.207   1.272  -0.068  0.00  0.00    +0.000 HD
ENDROOT
BRANCH   3  12
ATOM     10  O   UNL     1      -2.208  -1.439  -0.412  0.00  0.00    +0.000 OA
ATOM     11  N   UNL     1      -2.469   0.784   0.223  0.00  0.00    +0.000 N 
ATOM     12  C   UNL     1      -1.705  -0.343  -0.104  0.00  0.00    +0.000 C 
ATOM     13  H   UNL     1      -2.027   1.649   0.520  0.00  0.00    +0.000 HD
BRANCH  11  14
ATOM     14  S   UNL     1      -4.162   0.761   0.257  0.00  0.00    +0.000 S 
ATOM     15  H   UNL     1      -4.316   0.654   1.585  0.00  0.00    +0.000 HD
ENDBRANCH  11  14
ENDBRANCH   3  12
TORSDOF 2
