REMARK  Name = 57035832
REMARK  1 active torsions:
REMARK  status: ('A' for Active; 'I' for Inactive)
REMARK    1  A    between atoms: C_9  and  C_10
REMARK                            x       y       z     vdW  Elec       q    Type
REMARK                         _______ _______ _______ _____ _____    ______ ____
ROOT
ATOM      1  N   UNL     1       2.739   0.536  -0.952  0.00  0.00    +0.000 NA
ATOM      2  N   UNL     1       4.449  -0.916  -0.152  0.00  0.00    +0.000 N 
ATOM      3  C   UNL     1       0.578   0.539   0.134  0.00  0.00    +0.000 A 
ATOM      4  C   UNL     1       1.016  -0.433   1.025  0.00  0.00    +0.000 A 
ATOM      5  C   UNL     1       1.470   0.987  -0.828  0.00  0.00    +0.000 A 
ATOM      6  C   UNL     1       2.315  -0.922   0.930  0.00  0.00    +0.000 A 
ATOM      7  C   UNL     1       3.129  -0.409  -0.067  0.00  0.00    +0.000 A 
ATOM      8  H   UNL     1       4.888  -1.262   0.693  0.00  0.00    +0.000 HD
ATOM      9  H   UNL     1       5.043  -0.534  -0.878  0.00  0.00    +0.000 HD
ENDROOT
BRANCH   3  16
ATOM     10  O   UNL     1      -0.913   2.286   0.392  0.00  0.00    +0.000 OA
ATOM     11  N   UNL     1      -1.839   0.183   0.055  0.00  0.00    +0.000 N 
ATOM     12  C   UNL     1      -4.042  -0.649   0.056  0.00  0.00    +0.000 C 
ATOM     13  C   UNL     1      -3.139  -1.650  -0.653  0.00  0.00    +0.000 C 
ATOM     14  C   UNL     1      -3.223   0.631   0.016  0.00  0.00    +0.000 C 
ATOM     15  C   UNL     1      -1.751  -1.259  -0.165  0.00  0.00    +0.000 C 
ATOM     16  C   UNL     1      -0.790   1.076   0.208  0.00  0.00    +0.000 C 
ENDBRANCH   3  16
TORSDOF 1
