REMARK  Name = 57066748
REMARK  3 active torsions:
REMARK  status: ('A' for Active; 'I' for Inactive)
REMARK    1  A    between atoms: N_3  and  C_8
REMARK    2  A    between atoms: N_4  and  C_11
REMARK    3  A    between atoms: C_5  and  C_10
REMARK                            x       y       z     vdW  Elec       q    Type
REMARK                         _______ _______ _______ _____ _____    ______ ____
ROOT
ATOM      1  N   UNL     1       0.400   1.254   0.201  0.00  0.00    +0.000 NA
ATOM      2  C   UNL     1      -1.768   0.208  -0.031  0.00  0.00    +0.000 A 
ATOM      3  C   UNL     1      -1.187  -1.046   0.121  0.00  0.00    +0.000 A 
ATOM      4  C   UNL     1       0.186  -1.152   0.313  0.00  0.00    +0.000 A 
ATOM      5  C   UNL     1       0.928   0.018   0.345  0.00  0.00    +0.000 A 
ATOM      6  C   UNL     1      -0.938   1.317   0.016  0.00  0.00    +0.000 A 
ENDROOT
BRANCH   5   7
ATOM      7  N   UNL     1       2.312  -0.037   0.537  0.00  0.00    +0.000 NA
ATOM      8  N   UNL     1       2.894  -0.123  -0.568  0.00  0.00    +0.000 NA
ATOM      9  C   UNL     1       4.347  -0.182  -0.418  0.00  0.00    +0.000 C 
ENDBRANCH   5   7
BRANCH   2  11
ATOM     10  O   UNL     1      -3.974  -0.608  -0.282  0.00  0.00    +0.000 OA
ATOM     11  C   UNL     1      -3.199   0.352  -0.233  0.00  0.00    +0.000 C 
ENDBRANCH   2  11
TORSDOF 2
