REMARK  Name = 57214035
REMARK  2 active torsions:
REMARK  status: ('A' for Active; 'I' for Inactive)
REMARK    1  A    between atoms: S_1  and  N_4
REMARK    2  A    between atoms: C_5  and  C_8
REMARK                            x       y       z     vdW  Elec       q    Type
REMARK                         _______ _______ _______ _____ _____    ______ ____
ROOT
ATOM      1  N   UNL     1      -2.360   0.990   0.263  0.00  0.00    +0.000 NA
ATOM      2  C   UNL     1      -0.128   0.115  -0.050  0.00  0.00    +0.000 A 
ATOM      3  C   UNL     1      -0.646  -1.161  -0.237  0.00  0.00    +0.000 A 
ATOM      4  C   UNL     1      -1.019   1.147   0.195  0.00  0.00    +0.000 A 
ATOM      5  C   UNL     1      -2.021  -1.364  -0.175  0.00  0.00    +0.000 A 
ATOM      6  C   UNL     1      -2.827  -0.265   0.076  0.00  0.00    +0.000 A 
ENDROOT
BRANCH   2   9
ATOM      7  O   UNL     1       1.734   1.482  -0.427  0.00  0.00    +0.000 OA
ATOM      8  N   UNL     1       2.138  -0.716   0.220  0.00  0.00    +0.000 N 
ATOM      9  C   UNL     1       1.303   0.358  -0.110  0.00  0.00    +0.000 C 
ATOM     10  H   UNL     1       1.754  -1.605   0.524  0.00  0.00    +0.000 HD
BRANCH   8  11
ATOM     11  S   UNL     1       3.826  -0.586   0.244  0.00  0.00    +0.000 S 
ATOM     12  H   UNL     1       3.981  -0.471   1.571  0.00  0.00    +0.000 HD
ENDBRANCH   8  11
ENDBRANCH   2   9
TORSDOF 2
