REMARK  Name = 57504532
REMARK  3 active torsions:
REMARK  status: ('A' for Active; 'I' for Inactive)
REMARK    1  A    between atoms: N_2  and  C_8
REMARK    2  A    between atoms: N_2  and  C_9
REMARK    3  A    between atoms: C_5  and  C_6
REMARK                            x       y       z     vdW  Elec       q    Type
REMARK                         _______ _______ _______ _____ _____    ______ ____
ROOT
ATOM      1  N   UNL     1      -1.956  -0.064  -1.208  0.00  0.00    +0.000 NA
ATOM      2  N   UNL     1      -3.987  -0.381  -0.002  0.00  0.00    +0.000 N 
ATOM      3  C   UNL     1       0.093   0.352   0.005  0.00  0.00    +0.000 A 
ATOM      4  C   UNL     1      -0.596   0.277   1.210  0.00  0.00    +0.000 A 
ATOM      5  C   UNL     1      -0.626   0.176  -1.166  0.00  0.00    +0.000 A 
ATOM      6  C   UNL     1      -1.964   0.031   1.208  0.00  0.00    +0.000 A 
ATOM      7  C   UNL     1      -2.592  -0.131  -0.016  0.00  0.00    +0.000 A 
ATOM      8  H   UNL     1      -4.385  -0.846   0.804  0.00  0.00    +0.000 HD
ATOM      9  H   UNL     1      -4.440  -0.504  -0.899  0.00  0.00    +0.000 HD
ENDROOT
BRANCH   3  12
ATOM     10  O   UNL     1       1.883   1.793  -0.068  0.00  0.00    +0.000 OA
ATOM     11  N   UNL     1       2.413  -0.483   0.008  0.00  0.00    +0.000 N 
ATOM     12  C   UNL     1       1.542   0.611  -0.026  0.00  0.00    +0.000 C 
ATOM     13  C   UNL     1       1.930  -1.861   0.058  0.00  0.00    +0.000 C 
ATOM     14  C   UNL     1       3.860  -0.322  -0.003  0.00  0.00    +0.000 C 
ENDBRANCH   3  12
TORSDOF 1
