REMARK  Name = 57642070
REMARK  6 active torsions:
REMARK  status: ('A' for Active; 'I' for Inactive)
REMARK    1  A    between atoms: S_1  and  C_7
REMARK    2  A    between atoms: S_1  and  C_14
REMARK    3  A    between atoms: N_3  and  C_6
REMARK    4  A    between atoms: N_5  and  C_10
REMARK    5  A    between atoms: C_6  and  C_7
REMARK    6  A    between atoms: C_8  and  C_9
REMARK                            x       y       z     vdW  Elec       q    Type
REMARK                         _______ _______ _______ _____ _____    ______ ____
ROOT
ATOM      1  N   UNL     1      -2.628   1.591   0.148  0.00  0.00    +0.000 NA
ATOM      2  C   UNL     1      -1.266  -0.402   0.026  0.00  0.00    +0.000 A 
ATOM      3  C   UNL     1      -1.453   0.942   0.305  0.00  0.00    +0.000 A 
ATOM      4  C   UNL     1      -2.356  -1.127  -0.444  0.00  0.00    +0.000 A 
ATOM      5  C   UNL     1      -3.582  -0.494  -0.618  0.00  0.00    +0.000 A 
ATOM      6  C   UNL     1      -3.665   0.854  -0.310  0.00  0.00    +0.000 A 
ENDROOT
BRANCH   2   9
ATOM      7  O   UNL     1       0.108  -2.049   0.974  0.00  0.00    +0.000 OA
ATOM      8  N   UNL     1       1.096  -0.587  -0.530  0.00  0.00    +0.000 N 
ATOM      9  C   UNL     1       0.013  -1.075   0.208  0.00  0.00    +0.000 C 
ATOM     10  H   UNL     1       0.954   0.212  -1.142  0.00  0.00    +0.000 HD
BRANCH   8  11
ATOM     11  C   UNL     1       2.421  -1.161  -0.477  0.00  0.00    +0.000 C 
BRANCH  11  12
ATOM     12  C   UNL     1       3.298  -0.536   0.600  0.00  0.00    +0.000 C 
BRANCH  12  13
ATOM     13  S   UNL     1       3.565   1.242   0.323  0.00  0.00    +0.000 S 
ATOM     14  C   UNL     1       4.799   1.117  -0.991  0.00  0.00    +0.000 C 
ENDBRANCH  12  13
ENDBRANCH  11  12
ENDBRANCH   8  11
ENDBRANCH   2   9
BRANCH   3  15
ATOM     15  N   UNL     1      -0.347   1.687   0.787  0.00  0.00    +0.000 N 
ATOM     16  H   UNL     1       0.357   1.211   1.337  0.00  0.00    +0.000 HD
ATOM     17  H   UNL     1      -0.512   2.667   0.980  0.00  0.00    +0.000 HD
ENDBRANCH   3  15
TORSDOF 5
