REMARK  Name = 57697946
REMARK  4 active torsions:
REMARK  status: ('A' for Active; 'I' for Inactive)
REMARK    1  A    between atoms: N_2  and  C_5
REMARK    2  A    between atoms: C_5  and  C_6
REMARK    3  A    between atoms: C_5  and  C_7
REMARK    4  A    between atoms: C_8  and  C_9
REMARK                            x       y       z     vdW  Elec       q    Type
REMARK                         _______ _______ _______ _____ _____    ______ ____
ROOT
ATOM      1  N   UNL     1      -2.727  -1.010  -0.213  0.00  0.00    +0.000 NA
ATOM      2  N   UNL     1      -4.483   0.598  -0.292  0.00  0.00    +0.000 N 
ATOM      3  C   UNL     1      -0.456  -0.273   0.167  0.00  0.00    +0.000 A 
ATOM      4  C   UNL     1      -0.889   1.046   0.239  0.00  0.00    +0.000 A 
ATOM      5  C   UNL     1      -1.407  -1.256  -0.059  0.00  0.00    +0.000 A 
ATOM      6  C   UNL     1      -2.240   1.339   0.085  0.00  0.00    +0.000 A 
ATOM      7  C   UNL     1      -3.110   0.284  -0.137  0.00  0.00    +0.000 A 
ATOM      8  H   UNL     1      -4.843   1.426   0.166  0.00  0.00    +0.000 HD
ATOM      9  H   UNL     1      -5.117  -0.177  -0.448  0.00  0.00    +0.000 HD
ENDROOT
BRANCH   3  12
ATOM     10  O   UNL     1       1.286  -1.736   0.733  0.00  0.00    +0.000 OA
ATOM     11  N   UNL     1       1.885   0.371  -0.027  0.00  0.00    +0.000 N 
ATOM     12  C   UNL     1       0.980  -0.619   0.327  0.00  0.00    +0.000 C 
ATOM     13  H   UNL     1       1.557   1.232  -0.453  0.00  0.00    +0.000 HD
BRANCH  11  14
ATOM     14  C   UNL     1       3.313   0.180   0.049  0.00  0.00    +0.000 C 
ATOM     15  C   UNL     1       3.842  -0.418  -1.249  0.00  0.00    +0.000 C 
ATOM     16  C   UNL     1       4.007   1.496   0.375  0.00  0.00    +0.000 C 
ENDBRANCH  11  14
ENDBRANCH   3  12
TORSDOF 2
