REMARK  Name = 57781845
REMARK  2 active torsions:
REMARK  status: ('A' for Active; 'I' for Inactive)
REMARK    1  A    between atoms: N_2  and  C_10
REMARK    2  A    between atoms: C_11  and  C_12
REMARK                            x       y       z     vdW  Elec       q    Type
REMARK                         _______ _______ _______ _____ _____    ______ ____
ROOT
ATOM      1  O   UNL     1       0.036  -2.510   0.547  0.00  0.00    +0.000 OA
ATOM      2  N   UNL     1       3.653   0.844  -0.248  0.00  0.00    +0.000 NA
ATOM      3  N   UNL     1       1.220  -0.667  -0.271  0.00  0.00    +0.000 N 
ATOM      4  C   UNL     1       1.253   0.688  -0.832  0.00  0.00    +0.000 C 
ATOM      5  C   UNL     1       2.515  -1.343  -0.233  0.00  0.00    +0.000 C 
ATOM      6  C   UNL     1       2.353   1.528  -0.179  0.00  0.00    +0.000 C 
ATOM      7  C   UNL     1       3.581  -0.464   0.419  0.00  0.00    +0.000 C 
ATOM      8  C   UNL     1       4.700   1.669   0.352  0.00  0.00    +0.000 C 
ATOM      9  C   UNL     1       0.072  -1.349   0.139  0.00  0.00    +0.000 C 
ENDROOT
BRANCH   9  12
ATOM     10  N   UNL     1      -2.848   0.767   1.171  0.00  0.00    +0.000 NA
ATOM     11  N   UNL     1      -4.829   1.386   0.001  0.00  0.00    +0.000 N 
ATOM     12  C   UNL     1      -1.214  -0.642   0.080  0.00  0.00    +0.000 A 
ATOM     13  C   UNL     1      -2.006  -0.689  -1.062  0.00  0.00    +0.000 A 
ATOM     14  C   UNL     1      -1.676   0.093   1.160  0.00  0.00    +0.000 A 
ATOM     15  C   UNL     1      -3.219  -0.009  -1.089  0.00  0.00    +0.000 A 
ATOM     16  C   UNL     1      -3.591   0.698   0.043  0.00  0.00    +0.000 A 
ATOM     17  H   UNL     1      -5.094   1.906   0.828  0.00  0.00    +0.000 HD
ATOM     18  H   UNL     1      -5.173   1.704  -0.897  0.00  0.00    +0.000 HD
ENDBRANCH   9  12
TORSDOF 1
