REMARK  Name = 578218
REMARK  2 active torsions:
REMARK  status: ('A' for Active; 'I' for Inactive)
REMARK    1  A    between atoms: N_5  and  C_8
REMARK    2  A    between atoms: C_7  and  C_11
REMARK                            x       y       z     vdW  Elec       q    Type
REMARK                         _______ _______ _______ _____ _____    ______ ____
ROOT
ATOM      1  N   UNL     1      -1.718   1.009  -0.017  0.00  0.00    +0.000 NA
ATOM      2  C   UNL     1      -0.005  -0.697   0.021  0.00  0.00    +0.000 A 
ATOM      3  C   UNL     1      -0.422   0.625   0.003  0.00  0.00    +0.000 A 
ATOM      4  C   UNL     1      -0.981  -1.687   0.018  0.00  0.00    +0.000 A 
ATOM      5  C   UNL     1      -2.325  -1.331  -0.002  0.00  0.00    +0.000 A 
ATOM      6  C   UNL     1      -2.638   0.019  -0.019  0.00  0.00    +0.000 A 
ENDROOT
BRANCH   2   9
ATOM      7  O   UNL     1       2.000  -1.275   1.113  0.00  0.00    +0.000 OA
ATOM      8  N   UNL     1       2.033  -1.281  -1.180  0.00  0.00    +0.000 N 
ATOM      9  C   UNL     1       1.397  -1.094   0.043  0.00  0.00    +0.000 C 
ATOM     10  H   UNL     1       1.553  -1.143  -2.064  0.00  0.00    +0.000 HD
ATOM     11  H   UNL     1       3.006  -1.562  -1.224  0.00  0.00    +0.000 HD
ENDBRANCH   2   9
BRANCH   3  14
ATOM     12  O   UNL     1       1.795   1.258   0.025  0.00  0.00    +0.000 OA
ATOM     13  O   UNL     1       0.260   2.827  -0.010  0.00  0.00    +0.000 OA
ATOM     14  N   UNL     1       0.603   1.627   0.006  0.00  0.00    +0.000 N 
ENDBRANCH   3  14
TORSDOF 2
