REMARK  Name = 58155032
REMARK  8 active torsions:
REMARK  status: ('A' for Active; 'I' for Inactive)
REMARK    1  A    between atoms: N_2  and  C_6
REMARK    2  A    between atoms: N_2  and  C_7
REMARK    3  A    between atoms: N_2  and  C_8
REMARK    4  A    between atoms: N_3  and  C_9
REMARK    5  A    between atoms: C_6  and  C_9
REMARK    6  A    between atoms: C_7  and  C_10
REMARK    7  A    between atoms: C_8  and  C_11
REMARK    8  A    between atoms: C_12  and  C_13
REMARK                            x       y       z     vdW  Elec       q    Type
REMARK                         _______ _______ _______ _____ _____    ______ ____
ROOT
ATOM      1  O   UNL     1       0.279  -1.285   1.352  0.00  0.00    +0.000 OA
ATOM      2  N   UNL     1      -0.231   0.736   0.334  0.00  0.00    +0.000 N 
ATOM      3  C   UNL     1       0.622  -0.295   0.712  0.00  0.00    +0.000 C 
ATOM      4  H   UNL     1       0.109   1.500  -0.239  0.00  0.00    +0.000 HD
ENDROOT
BRANCH   3   7
ATOM      5  N   UNL     1       3.893   1.319  -0.226  0.00  0.00    +0.000 NA
ATOM      6  N   UNL     1       6.008   0.375  -0.786  0.00  0.00    +0.000 N 
ATOM      7  C   UNL     1       2.046  -0.143   0.316  0.00  0.00    +0.000 A 
ATOM      8  C   UNL     1       2.857  -1.254   0.119  0.00  0.00    +0.000 A 
ATOM      9  C   UNL     1       2.607   1.111   0.133  0.00  0.00    +0.000 A 
ATOM     10  C   UNL     1       4.187  -1.081  -0.251  0.00  0.00    +0.000 A 
ATOM     11  C   UNL     1       4.652   0.215  -0.409  0.00  0.00    +0.000 A 
ATOM     12  H   UNL     1       6.346   1.324  -0.894  0.00  0.00    +0.000 HD
ATOM     13  H   UNL     1       6.671  -0.342  -0.517  0.00  0.00    +0.000 HD
ENDBRANCH   3   7
BRANCH   2  14
ATOM     14  C   UNL     1      -1.630   0.746   0.664  0.00  0.00    +0.000 C 
BRANCH  14  15
ATOM     15  C   UNL     1      -2.456   0.067  -0.419  0.00  0.00    +0.000 C 
BRANCH  15  16
ATOM     16  N   UNL     1      -3.872   0.062  -0.051  0.00  0.00    +0.000 NA
BRANCH  16  17
ATOM     17  C   UNL     1      -4.474   1.368  -0.318  0.00  0.00    +0.000 C 
ATOM     18  C   UNL     1      -5.929   1.400   0.115  0.00  0.00    +0.000 C 
ENDBRANCH  16  17
BRANCH  16  19
ATOM     19  C   UNL     1      -4.585  -0.988  -0.777  0.00  0.00    +0.000 C 
ATOM     20  C   UNL     1      -3.973  -2.353  -0.511  0.00  0.00    +0.000 C 
ENDBRANCH  16  19
ENDBRANCH  15  16
ENDBRANCH  14  15
ENDBRANCH   2  14
TORSDOF 6
