REMARK  Name = 58207556
REMARK  7 active torsions:
REMARK  status: ('A' for Active; 'I' for Inactive)
REMARK    1  A    between atoms: N_3  and  C_10
REMARK    2  A    between atoms: C_4  and  C_6
REMARK    3  A    between atoms: C_4  and  C_9
REMARK    4  A    between atoms: C_5  and  C_6
REMARK    5  A    between atoms: C_7  and  C_8
REMARK    6  A    between atoms: C_8  and  C_12
REMARK    7  A    between atoms: C_13  and  C_16
REMARK                            x       y       z     vdW  Elec       q    Type
REMARK                         _______ _______ _______ _____ _____    ______ ____
ROOT
ATOM      1  N   UNL     1       3.759  -0.026  -0.514  0.00  0.00    +0.000 NA
ATOM      2  C   UNL     1       1.479  -0.174   0.277  0.00  0.00    +0.000 A 
ATOM      3  C   UNL     1       2.580  -0.677  -0.398  0.00  0.00    +0.000 A 
ATOM      4  C   UNL     1       1.597   1.077   0.872  0.00  0.00    +0.000 A 
ATOM      5  C   UNL     1       2.794   1.778   0.774  0.00  0.00    +0.000 A 
ATOM      6  C   UNL     1       3.835   1.188   0.076  0.00  0.00    +0.000 A 
ENDROOT
BRANCH   3   7
ATOM      7  N   UNL     1       2.469  -1.953  -1.005  0.00  0.00    +0.000 N 
ATOM      8  H   UNL     1       3.287  -2.294  -1.494  0.00  0.00    +0.000 HD
ATOM      9  H   UNL     1       1.855  -2.639  -0.583  0.00  0.00    +0.000 HD
ENDBRANCH   3   7
BRANCH   2  11
ATOM     10  O   UNL     1       0.188  -2.027   0.903  0.00  0.00    +0.000 OA
ATOM     11  C   UNL     1       0.202  -0.913   0.390  0.00  0.00    +0.000 C 
BRANCH  11  12
ATOM     12  C   UNL     1      -1.036  -0.283  -0.166  0.00  0.00    +0.000 C 
ATOM     13  C   UNL     1      -2.181  -0.613   0.459  0.00  0.00    +0.000 C 
ATOM     14  C   UNL     1      -0.911   0.544  -1.411  0.00  0.00    +0.000 C 
BRANCH  13  15
ATOM     15  C   UNL     1      -3.513  -0.140   0.117  0.00  0.00    +0.000 C 
ATOM     16  C   UNL     1      -4.586  -1.185   0.243  0.00  0.00    +0.000 C 
ATOM     17  C   UNL     1      -3.805   1.121  -0.255  0.00  0.00    +0.000 C 
ATOM     18  C   UNL     1      -2.869   2.283  -0.362  0.00  0.00    +0.000 C 
ENDBRANCH  13  15
ENDBRANCH  11  12
ENDBRANCH   2  11
TORSDOF 4
