REMARK  Name = 58339434
REMARK  5 active torsions:
REMARK  status: ('A' for Active; 'I' for Inactive)
REMARK    1  A    between atoms: C_4  and  C_5
REMARK    2  A    between atoms: C_4  and  C_6
REMARK    3  A    between atoms: C_4  and  C_7
REMARK    4  A    between atoms: C_5  and  C_8
REMARK    5  A    between atoms: C_8  and  C_9
REMARK                            x       y       z     vdW  Elec       q    Type
REMARK                         _______ _______ _______ _____ _____    ______ ____
ROOT
ATOM      1  N   UNL     1       2.309   1.303  -0.233  0.00  0.00    +0.000 NA
ATOM      2  N   UNL     1       4.455   0.550   0.475  0.00  0.00    +0.000 N 
ATOM      3  C   UNL     1       0.462  -0.256  -0.291  0.00  0.00    +0.000 A 
ATOM      4  C   UNL     1       1.295  -1.272   0.164  0.00  0.00    +0.000 A 
ATOM      5  C   UNL     1       1.012   1.003  -0.472  0.00  0.00    +0.000 A 
ATOM      6  C   UNL     1       2.634  -1.002   0.421  0.00  0.00    +0.000 A 
ATOM      7  C   UNL     1       3.088   0.290   0.209  0.00  0.00    +0.000 A 
ATOM      8  H   UNL     1       4.781   1.496   0.325  0.00  0.00    +0.000 HD
ATOM      9  H   UNL     1       4.926  -0.014   1.173  0.00  0.00    +0.000 HD
ENDROOT
BRANCH   3  11
ATOM     10  O   UNL     1      -1.325  -1.637  -0.930  0.00  0.00    +0.000 OA
ATOM     11  C   UNL     1      -0.979  -0.512  -0.576  0.00  0.00    +0.000 C 
BRANCH  11  12
ATOM     12  C   UNL     1      -1.973   0.627  -0.393  0.00  0.00    +0.000 C 
BRANCH  12  13
ATOM     13  C   UNL     1      -3.368   0.154   0.053  0.00  0.00    +0.000 C 
ATOM     14  C   UNL     1      -4.343   1.328   0.179  0.00  0.00    +0.000 C 
ATOM     15  C   UNL     1      -3.268  -0.578   1.393  0.00  0.00    +0.000 C 
ENDBRANCH  12  13
ENDBRANCH  11  12
ENDBRANCH   3  11
TORSDOF 3
