REMARK  Name = 58337908
REMARK  3 active torsions:
REMARK  status: ('A' for Active; 'I' for Inactive)
REMARK    1  A    between atoms: N_3  and  C_11
REMARK    2  A    between atoms: C_6  and  C_11
REMARK    3  A    between atoms: C_15  and  C_17
REMARK                            x       y       z     vdW  Elec       q    Type
REMARK                         _______ _______ _______ _____ _____    ______ ____
ROOT
ATOM      1  N   UNL     1       0.604  -0.440  -0.364  0.00  0.00    +0.000 N 
ATOM      2  N   UNL     1      -1.567  -1.347  -0.520  0.00  0.00    +0.000 NA
ATOM      3  C   UNL     1      -0.771  -0.293  -0.234  0.00  0.00    +0.000 A 
ATOM      4  C   UNL     1      -1.239   0.941   0.187  0.00  0.00    +0.000 A 
ATOM      5  C   UNL     1      -2.614   1.104   0.323  0.00  0.00    +0.000 A 
ATOM      6  C   UNL     1      -3.465   0.042   0.037  0.00  0.00    +0.000 A 
ATOM      7  C   UNL     1      -2.897  -1.152  -0.377  0.00  0.00    +0.000 A 
ATOM      8  H   UNL     1       0.931  -1.348  -0.674  0.00  0.00    +0.000 HD
ENDROOT
BRANCH   6  11
ATOM      9  O   UNL     1      -5.425   1.253   0.524  0.00  0.00    +0.000 OA
ATOM     10  N   UNL     1      -5.694  -0.926  -0.135  0.00  0.00    +0.000 N 
ATOM     11  C   UNL     1      -4.905   0.180   0.169  0.00  0.00    +0.000 C 
ATOM     12  H   UNL     1      -5.351  -1.830  -0.434  0.00  0.00    +0.000 HD
ATOM     13  H   UNL     1      -6.704  -0.856  -0.057  0.00  0.00    +0.000 HD
ENDBRANCH   6  11
BRANCH   1  14
ATOM     14  C   UNL     1       1.552   0.608  -0.089  0.00  0.00    +0.000 C 
BRANCH  14  16
ATOM     15  N   UNL     1       5.782  -0.065   0.500  0.00  0.00    +0.000 NA
ATOM     16  C   UNL     1       2.970   0.097  -0.329  0.00  0.00    +0.000 C 
ATOM     17  C   UNL     1       3.436  -0.797   0.827  0.00  0.00    +0.000 C 
ATOM     18  C   UNL     1       3.951   1.260  -0.518  0.00  0.00    +0.000 C 
ATOM     19  C   UNL     1       4.894  -1.220   0.646  0.00  0.00    +0.000 C 
ATOM     20  C   UNL     1       5.388   0.756  -0.647  0.00  0.00    +0.000 C 
ATOM     21  H   UNL     1       6.739  -0.391   0.366  0.00  0.00    +0.000 HD
ENDBRANCH  14  16
ENDBRANCH   1  14
TORSDOF 3
