REMARK  Name = 58337917
REMARK  6 active torsions:
REMARK  status: ('A' for Active; 'I' for Inactive)
REMARK    1  A    between atoms: N_2  and  C_8
REMARK    2  A    between atoms: N_3  and  C_9
REMARK    3  A    between atoms: C_6  and  C_7
REMARK    4  A    between atoms: C_6  and  C_8
REMARK    5  A    between atoms: C_7  and  C_9
REMARK    6  A    between atoms: C_13  and  C_15
REMARK                            x       y       z     vdW  Elec       q    Type
REMARK                         _______ _______ _______ _____ _____    ______ ____
ROOT
ATOM      1  N   UNL     1      -1.026   0.862  -0.005  0.00  0.00    +0.000 N 
ATOM      2  N   UNL     1       1.226   1.554  -0.001  0.00  0.00    +0.000 NA
ATOM      3  C   UNL     1       0.324   0.547  -0.002  0.00  0.00    +0.000 A 
ATOM      4  C   UNL     1       0.662  -0.797  -0.000  0.00  0.00    +0.000 A 
ATOM      5  C   UNL     1       2.012  -1.128   0.003  0.00  0.00    +0.000 A 
ATOM      6  C   UNL     1       2.970  -0.120   0.004  0.00  0.00    +0.000 A 
ATOM      7  C   UNL     1       2.529   1.193   0.002  0.00  0.00    +0.000 A 
ATOM      8  H   UNL     1      -1.265   1.847  -0.006  0.00  0.00    +0.000 HD
ENDROOT
BRANCH   6  11
ATOM      9  O   UNL     1       4.793  -1.611  -0.007  0.00  0.00    +0.000 OA
ATOM     10  N   UNL     1       5.289   0.628   0.008  0.00  0.00    +0.000 N 
ATOM     11  C   UNL     1       4.388  -0.434   0.007  0.00  0.00    +0.000 C 
ATOM     12  H   UNL     1       5.041   1.609   0.015  0.00  0.00    +0.000 HD
ATOM     13  H   UNL     1       6.286   0.437   0.004  0.00  0.00    +0.000 HD
ENDBRANCH   6  11
BRANCH   1  14
ATOM     14  C   UNL     1      -2.079  -0.125  -0.007  0.00  0.00    +0.000 C 
BRANCH  14  15
ATOM     15  C   UNL     1      -3.453   0.541  -0.021  0.00  0.00    +0.000 C 
BRANCH  15  16
ATOM     16  C   UNL     1      -4.600  -0.478  -0.020  0.00  0.00    +0.000 C 
BRANCH  16  17
ATOM     17  C   UNL     1      -5.982   0.177   0.029  0.00  0.00    +0.000 C 
BRANCH  17  18
ATOM     18  N   UNL     1      -7.054  -0.810   0.010  0.00  0.00    +0.000 NA
ATOM     19  H   UNL     1      -7.952  -0.337   0.104  0.00  0.00    +0.000 HD
ATOM     20  H   UNL     1      -6.968  -1.424   0.820  0.00  0.00    +0.000 HD
ENDBRANCH  17  18
ENDBRANCH  16  17
ENDBRANCH  15  16
ENDBRANCH  14  15
ENDBRANCH   1  14
TORSDOF 6
