REMARK  Name = 58367666
REMARK  6 active torsions:
REMARK  status: ('A' for Active; 'I' for Inactive)
REMARK    1  A    between atoms: N_3  and  C_8
REMARK    2  A    between atoms: C_4  and  C_6
REMARK    3  A    between atoms: C_5  and  C_6
REMARK    4  A    between atoms: C_5  and  C_10
REMARK    5  A    between atoms: C_7  and  C_11
REMARK    6  A    between atoms: C_11  and  C_14
REMARK                            x       y       z     vdW  Elec       q    Type
REMARK                         _______ _______ _______ _____ _____    ______ ____
ROOT
ATOM      1  N   UNL     1       3.573   0.196   0.485  0.00  0.00    +0.000 NA
ATOM      2  C   UNL     1       1.280   0.098  -0.275  0.00  0.00    +0.000 A 
ATOM      3  C   UNL     1       2.344   0.740   0.339  0.00  0.00    +0.000 A 
ATOM      4  C   UNL     1       1.492  -1.183  -0.771  0.00  0.00    +0.000 A 
ATOM      5  C   UNL     1       2.743  -1.776  -0.639  0.00  0.00    +0.000 A 
ATOM      6  C   UNL     1       3.741  -1.051  -0.009  0.00  0.00    +0.000 A 
ENDROOT
BRANCH   3   7
ATOM      7  N   UNL     1       2.137   2.048   0.845  0.00  0.00    +0.000 N 
ATOM      8  H   UNL     1       1.465   2.646   0.382  0.00  0.00    +0.000 HD
ATOM      9  H   UNL     1       2.931   2.490   1.292  0.00  0.00    +0.000 HD
ENDBRANCH   3   7
BRANCH   2  11
ATOM     10  O   UNL     1      -0.167   1.786  -1.023  0.00  0.00    +0.000 OA
ATOM     11  C   UNL     1      -0.054   0.722  -0.423  0.00  0.00    +0.000 C 
BRANCH  11  12
ATOM     12  C   UNL     1      -1.230   0.041   0.202  0.00  0.00    +0.000 C 
ATOM     13  C   UNL     1      -2.405   0.228  -0.428  0.00  0.00    +0.000 C 
ATOM     14  C   UNL     1      -1.020  -0.671   1.506  0.00  0.00    +0.000 C 
BRANCH  13  15
ATOM     15  C   UNL     1      -3.702  -0.288  -0.023  0.00  0.00    +0.000 C 
ATOM     16  C   UNL     1      -4.863   0.634  -0.258  0.00  0.00    +0.000 C 
ATOM     17  C   UNL     1      -3.869  -1.525   0.471  0.00  0.00    +0.000 C 
ENDBRANCH  13  15
ENDBRANCH  11  12
ENDBRANCH   2  11
TORSDOF 4
