REMARK  Name = 58772629
REMARK  6 active torsions:
REMARK  status: ('A' for Active; 'I' for Inactive)
REMARK    1  A    between atoms: O_1  and  C_7
REMARK    2  A    between atoms: O_1  and  C_15
REMARK    3  A    between atoms: N_3  and  C_6
REMARK    4  A    between atoms: N_3  and  C_9
REMARK    5  A    between atoms: C_6  and  C_7
REMARK    6  A    between atoms: C_8  and  C_10
REMARK                            x       y       z     vdW  Elec       q    Type
REMARK                         _______ _______ _______ _____ _____    ______ ____
ROOT
ATOM      1  N   UNL     1      -3.133  -0.819  -0.397  0.00  0.00    +0.000 NA
ATOM      2  N   UNL     1      -4.817   0.624   0.475  0.00  0.00    +0.000 N 
ATOM      3  C   UNL     1      -0.823  -0.107  -0.363  0.00  0.00    +0.000 A 
ATOM      4  C   UNL     1      -1.194   1.093   0.233  0.00  0.00    +0.000 A 
ATOM      5  C   UNL     1      -1.822  -1.022  -0.656  0.00  0.00    +0.000 A 
ATOM      6  C   UNL     1      -2.533   1.339   0.514  0.00  0.00    +0.000 A 
ATOM      7  C   UNL     1      -3.456   0.359   0.182  0.00  0.00    +0.000 A 
ATOM      8  H   UNL     1      -5.486  -0.097   0.237  0.00  0.00    +0.000 HD
ATOM      9  H   UNL     1      -5.032   1.242   1.249  0.00  0.00    +0.000 HD
ENDROOT
BRANCH   3  12
ATOM     10  O   UNL     1       0.985  -0.036  -1.781  0.00  0.00    +0.000 OA
ATOM     11  N   UNL     1       1.362  -1.036   0.298  0.00  0.00    +0.000 N 
ATOM     12  C   UNL     1       0.586  -0.397  -0.674  0.00  0.00    +0.000 C 
ATOM     13  C   UNL     1       0.817  -1.433   1.589  0.00  0.00    +0.000 C 
BRANCH  11  14
ATOM     14  C   UNL     1       2.774  -1.349   0.084  0.00  0.00    +0.000 C 
BRANCH  14  15
ATOM     15  C   UNL     1       3.672  -0.215   0.541  0.00  0.00    +0.000 C 
BRANCH  15  16
ATOM     16  O   UNL     1       3.380   0.953  -0.217  0.00  0.00    +0.000 OA
ATOM     17  C   UNL     1       4.202   2.045   0.171  0.00  0.00    +0.000 C 
ENDBRANCH  15  16
ENDBRANCH  14  15
ENDBRANCH  11  14
ENDBRANCH   3  12
TORSDOF 4
