REMARK  Name = 58772608
REMARK  6 active torsions:
REMARK  status: ('A' for Active; 'I' for Inactive)
REMARK    1  A    between atoms: N_2  and  C_6
REMARK    2  A    between atoms: N_2  and  C_8
REMARK    3  A    between atoms: N_3  and  C_7
REMARK    4  A    between atoms: C_6  and  C_7
REMARK    5  A    between atoms: C_8  and  C_11
REMARK    6  A    between atoms: C_9  and  C_10
REMARK                            x       y       z     vdW  Elec       q    Type
REMARK                         _______ _______ _______ _____ _____    ______ ____
ROOT
ATOM      1  O   UNL     1      -0.256  -1.501  -1.110  0.00  0.00    +0.000 OA
ATOM      2  N   UNL     1      -0.753   0.707  -0.600  0.00  0.00    +0.000 N 
ATOM      3  C   UNL     1       0.092  -0.391  -0.716  0.00  0.00    +0.000 C 
ATOM      4  H   UNL     1      -0.413   1.578  -0.207  0.00  0.00    +0.000 HD
ENDROOT
BRANCH   3   7
ATOM      5  N   UNL     1       3.568  -1.102   0.550  0.00  0.00    +0.000 NA
ATOM      6  N   UNL     1       5.446   0.328   0.875  0.00  0.00    +0.000 N 
ATOM      7  C   UNL     1       1.503  -0.177  -0.301  0.00  0.00    +0.000 A 
ATOM      8  C   UNL     1       2.084   1.084  -0.362  0.00  0.00    +0.000 A 
ATOM      9  C   UNL     1       2.280  -1.228   0.158  0.00  0.00    +0.000 A 
ATOM     10  C   UNL     1       3.407   1.254   0.032  0.00  0.00    +0.000 A 
ATOM     11  C   UNL     1       4.099   0.139   0.477  0.00  0.00    +0.000 A 
ATOM     12  H   UNL     1       5.973   1.080   0.450  0.00  0.00    +0.000 HD
ATOM     13  H   UNL     1       5.949  -0.491   1.193  0.00  0.00    +0.000 HD
ENDBRANCH   3   7
BRANCH   2  14
ATOM     14  C   UNL     1      -2.149   0.651  -0.938  0.00  0.00    +0.000 C 
BRANCH  14  15
ATOM     15  C   UNL     1      -2.991   0.253   0.265  0.00  0.00    +0.000 C 
BRANCH  15  16
ATOM     16  N   UNL     1      -4.404   0.230  -0.091  0.00  0.00    +0.000 NA
ATOM     17  H   UNL     1      -4.561  -0.443  -0.841  0.00  0.00    +0.000 HD
BRANCH  16  18
ATOM     18  C   UNL     1      -5.225  -0.114   1.062  0.00  0.00    +0.000 C 
ATOM     19  C   UNL     1      -6.701  -0.130   0.699  0.00  0.00    +0.000 C 
ENDBRANCH  16  18
ENDBRANCH  15  16
ENDBRANCH  14  15
ENDBRANCH   2  14
TORSDOF 5
