REMARK  Name = 58772605
REMARK  7 active torsions:
REMARK  status: ('A' for Active; 'I' for Inactive)
REMARK    1  A    between atoms: N_2  and  C_7
REMARK    2  A    between atoms: N_2  and  C_9
REMARK    3  A    between atoms: N_2  and  C_10
REMARK    4  A    between atoms: N_3  and  C_8
REMARK    5  A    between atoms: C_6  and  C_7
REMARK    6  A    between atoms: C_6  and  C_8
REMARK    7  A    between atoms: C_11  and  C_12
REMARK                            x       y       z     vdW  Elec       q    Type
REMARK                         _______ _______ _______ _____ _____    ______ ____
ROOT
ATOM      1  O   UNL     1      -0.344   2.501   0.372  0.00  0.00    +0.000 OA
ATOM      2  N   UNL     1       0.804   0.736  -0.603  0.00  0.00    +0.000 N 
ATOM      3  C   UNL     1      -0.322   1.357  -0.073  0.00  0.00    +0.000 C 
ATOM      4  H   UNL     1       0.741  -0.200  -0.989  0.00  0.00    +0.000 HD
ENDROOT
BRANCH   3   7
ATOM      5  N   UNL     1      -3.978   0.453  -0.043  0.00  0.00    +0.000 NA
ATOM      6  N   UNL     1      -5.075  -1.660   0.063  0.00  0.00    +0.000 N 
ATOM      7  C   UNL     1      -1.562   0.540  -0.036  0.00  0.00    +0.000 A 
ATOM      8  C   UNL     1      -1.505  -0.848   0.037  0.00  0.00    +0.000 A 
ATOM      9  C   UNL     1      -2.812   1.136  -0.073  0.00  0.00    +0.000 A 
ATOM     10  C   UNL     1      -2.683  -1.586   0.071  0.00  0.00    +0.000 A 
ATOM     11  C   UNL     1      -3.883  -0.894   0.029  0.00  0.00    +0.000 A 
ATOM     12  H   UNL     1      -5.949  -1.151   0.026  0.00  0.00    +0.000 HD
ATOM     13  H   UNL     1      -5.053  -2.603  -0.306  0.00  0.00    +0.000 HD
ENDBRANCH   3   7
BRANCH   2  14
ATOM     14  C   UNL     1       2.083   1.387  -0.684  0.00  0.00    +0.000 C 
BRANCH  14  15
ATOM     15  C   UNL     1       2.935   1.161   0.563  0.00  0.00    +0.000 C 
BRANCH  15  16
ATOM     16  C   UNL     1       3.222  -0.311   0.875  0.00  0.00    +0.000 C 
BRANCH  16  17
ATOM     17  N   UNL     1       3.948  -0.966  -0.206  0.00  0.00    +0.000 NA
ATOM     18  C   UNL     1       5.362  -0.585  -0.182  0.00  0.00    +0.000 C 
ATOM     19  C   UNL     1       3.812  -2.420  -0.112  0.00  0.00    +0.000 C 
ENDBRANCH  16  17
ENDBRANCH  15  16
ENDBRANCH  14  15
ENDBRANCH   2  14
TORSDOF 5
