REMARK  Name = 58772636
REMARK  5 active torsions:
REMARK  status: ('A' for Active; 'I' for Inactive)
REMARK    1  A    between atoms: O_1  and  C_7
REMARK    2  A    between atoms: O_1  and  C_14
REMARK    3  A    between atoms: N_3  and  C_6
REMARK    4  A    between atoms: C_6  and  C_7
REMARK    5  A    between atoms: C_8  and  C_9
REMARK                            x       y       z     vdW  Elec       q    Type
REMARK                         _______ _______ _______ _____ _____    ______ ____
ROOT
ATOM      1  N   UNL     1       3.235  -0.729  -0.300  0.00  0.00    +0.000 NA
ATOM      2  N   UNL     1       4.682   1.143  -0.026  0.00  0.00    +0.000 N 
ATOM      3  C   UNL     1       0.852  -0.442  -0.010  0.00  0.00    +0.000 A 
ATOM      4  C   UNL     1       1.041   0.907   0.268  0.00  0.00    +0.000 A 
ATOM      5  C   UNL     1       1.972  -1.211  -0.285  0.00  0.00    +0.000 A 
ATOM      6  C   UNL     1       2.326   1.439   0.263  0.00  0.00    +0.000 A 
ATOM      7  C   UNL     1       3.379   0.586  -0.024  0.00  0.00    +0.000 A 
ATOM      8  H   UNL     1       4.786   2.125  -0.251  0.00  0.00    +0.000 HD
ATOM      9  H   UNL     1       5.449   0.518  -0.243  0.00  0.00    +0.000 HD
ENDROOT
BRANCH   3  12
ATOM     10  O   UNL     1      -0.722  -2.041  -0.693  0.00  0.00    +0.000 OA
ATOM     11  N   UNL     1      -1.444  -0.416   0.796  0.00  0.00    +0.000 N 
ATOM     12  C   UNL     1      -0.477  -1.028  -0.012  0.00  0.00    +0.000 C 
ATOM     13  H   UNL     1      -1.193   0.379   1.373  0.00  0.00    +0.000 HD
BRANCH  11  14
ATOM     14  C   UNL     1      -2.803  -0.894   0.919  0.00  0.00    +0.000 C 
BRANCH  14  15
ATOM     15  C   UNL     1      -3.713  -0.257  -0.115  0.00  0.00    +0.000 C 
BRANCH  15  16
ATOM     16  O   UNL     1      -3.741   1.150   0.082  0.00  0.00    +0.000 OA
ATOM     17  C   UNL     1      -4.587   1.793  -0.862  0.00  0.00    +0.000 C 
ENDBRANCH  15  16
ENDBRANCH  14  15
ENDBRANCH  11  14
ENDBRANCH   3  12
TORSDOF 4
