REMARK  Name = 58772603
REMARK  1 active torsions:
REMARK  status: ('A' for Active; 'I' for Inactive)
REMARK    1  A    between atoms: C_10  and  C_11
REMARK                            x       y       z     vdW  Elec       q    Type
REMARK                         _______ _______ _______ _____ _____    ______ ____
ROOT
ATOM      1  O   UNL     1      -0.570   2.372  -0.423  0.00  0.00    +0.000 OA
ATOM      2  N   UNL     1      -1.575   0.366   0.233  0.00  0.00    +0.000 N 
ATOM      3  N   UNL     1      -3.891  -1.311   0.087  0.00  0.00    +0.000 NA
ATOM      4  C   UNL     1      -1.487  -1.051   0.607  0.00  0.00    +0.000 C 
ATOM      5  C   UNL     1      -2.917   0.940   0.323  0.00  0.00    +0.000 C 
ATOM      6  C   UNL     1      -2.555  -1.877  -0.108  0.00  0.00    +0.000 C 
ATOM      7  C   UNL     1      -3.943   0.070  -0.396  0.00  0.00    +0.000 C 
ATOM      8  C   UNL     1      -0.496   1.184  -0.109  0.00  0.00    +0.000 C 
ATOM      9  H   UNL     1      -4.572  -1.872  -0.423  0.00  0.00    +0.000 HD
ENDROOT
BRANCH   8  12
ATOM     10  N   UNL     1       2.874   0.113   1.142  0.00  0.00    +0.000 NA
ATOM     11  N   UNL     1       4.663  -1.024   0.054  0.00  0.00    +0.000 N 
ATOM     12  C   UNL     1       0.852   0.600  -0.090  0.00  0.00    +0.000 A 
ATOM     13  C   UNL     1       1.388  -0.002  -1.223  0.00  0.00    +0.000 A 
ATOM     14  C   UNL     1       1.628   0.631   1.057  0.00  0.00    +0.000 A 
ATOM     15  C   UNL     1       2.667  -0.546  -1.175  0.00  0.00    +0.000 A 
ATOM     16  C   UNL     1       3.362  -0.464   0.021  0.00  0.00    +0.000 A 
ATOM     17  H   UNL     1       4.873  -1.794  -0.569  0.00  0.00    +0.000 HD
ATOM     18  H   UNL     1       5.165  -0.967   0.932  0.00  0.00    +0.000 HD
ENDBRANCH   8  12
TORSDOF 1
