REMARK  Name = 58772618
REMARK  4 active torsions:
REMARK  status: ('A' for Active; 'I' for Inactive)
REMARK    1  A    between atoms: N_2  and  C_6
REMARK    2  A    between atoms: N_3  and  C_7
REMARK    3  A    between atoms: C_6  and  C_7
REMARK    4  A    between atoms: C_8  and  C_9
REMARK                            x       y       z     vdW  Elec       q    Type
REMARK                         _______ _______ _______ _____ _____    ______ ____
ROOT
ATOM      1  N   UNL     1      -2.449  -1.265  -0.234  0.00  0.00    +0.000 NA
ATOM      2  N   UNL     1      -4.598  -0.480   0.430  0.00  0.00    +0.000 N 
ATOM      3  C   UNL     1      -0.567   0.252  -0.201  0.00  0.00    +0.000 A 
ATOM      4  C   UNL     1      -1.390   1.276   0.254  0.00  0.00    +0.000 A 
ATOM      5  C   UNL     1      -1.139  -0.989  -0.428  0.00  0.00    +0.000 A 
ATOM      6  C   UNL     1      -2.742   1.030   0.466  0.00  0.00    +0.000 A 
ATOM      7  C   UNL     1      -3.218  -0.246   0.209  0.00  0.00    +0.000 A 
ATOM      8  H   UNL     1      -5.076   0.078   1.127  0.00  0.00    +0.000 HD
ATOM      9  H   UNL     1      -4.940  -1.415   0.247  0.00  0.00    +0.000 HD
ENDROOT
BRANCH   3  12
ATOM     10  O   UNL     1       1.275   1.615  -0.699  0.00  0.00    +0.000 OA
ATOM     11  N   UNL     1       1.706  -0.632  -0.318  0.00  0.00    +0.000 N 
ATOM     12  C   UNL     1       0.882   0.482  -0.437  0.00  0.00    +0.000 C 
ATOM     13  H   UNL     1       1.321  -1.528  -0.038  0.00  0.00    +0.000 HD
BRANCH  11  14
ATOM     14  C   UNL     1       3.131  -0.565  -0.492  0.00  0.00    +0.000 C 
BRANCH  14  15
ATOM     15  C   UNL     1       3.834  -0.275   0.826  0.00  0.00    +0.000 C 
BRANCH  15  16
ATOM     16  N   UNL     1       5.276  -0.202   0.625  0.00  0.00    +0.000 NA
ATOM     17  H   UNL     1       5.618  -1.093   0.267  0.00  0.00    +0.000 HD
ATOM     18  H   UNL     1       5.735  -0.059   1.523  0.00  0.00    +0.000 HD
ENDBRANCH  15  16
ENDBRANCH  14  15
ENDBRANCH  11  14
ENDBRANCH   3  12
TORSDOF 4
