REMARK  Name = 58779722
REMARK  1 active torsions:
REMARK  status: ('A' for Active; 'I' for Inactive)
REMARK    1  A    between atoms: C_6  and  C_12
REMARK                            x       y       z     vdW  Elec       q    Type
REMARK                         _______ _______ _______ _____ _____    ______ ____
ROOT
ATOM      1  O   UNL     1       3.511  -0.139  -0.001  0.00  0.00    +0.000 OA
ATOM      2  N   UNL     1       1.204  -0.126   0.000  0.00  0.00    +0.000 N 
ATOM      3  N   UNL     1       2.563   1.933   0.003  0.00  0.00    +0.000 N 
ATOM      4  C   UNL     1      -1.198  -0.106   0.002  0.00  0.00    +0.000 A 
ATOM      5  C   UNL     1       0.027   0.552   0.002  0.00  0.00    +0.000 A 
ATOM      6  C   UNL     1       1.165  -1.487  -0.002  0.00  0.00    +0.000 A 
ATOM      7  C   UNL     1      -1.228  -1.490  -0.001  0.00  0.00    +0.000 A 
ATOM      8  C   UNL     1      -0.034  -2.189  -0.003  0.00  0.00    +0.000 A 
ATOM      9  C   UNL     1       2.496   0.555   0.001  0.00  0.00    +0.000 C 
ATOM     10  H   UNL     1       1.760   2.550   0.004  0.00  0.00    +0.000 HD
ATOM     11  H   UNL     1       3.466   2.396   0.003  0.00  0.00    +0.000 HD
ENDROOT
BRANCH   4  14
ATOM     12  O   UNL     1      -2.434   1.898  -0.010  0.00  0.00    +0.000 OA
ATOM     13  N   UNL     1      -3.634  -0.056   0.004  0.00  0.00    +0.000 N 
ATOM     14  C   UNL     1      -2.437   0.655   0.004  0.00  0.00    +0.000 C 
ATOM     15  H   UNL     1      -3.725  -1.064   0.011  0.00  0.00    +0.000 HD
ATOM     16  H   UNL     1      -4.513   0.452  -0.001  0.00  0.00    +0.000 HD
ENDBRANCH   4  14
TORSDOF 1
