REMARK  Name = 58772627
REMARK  7 active torsions:
REMARK  status: ('A' for Active; 'I' for Inactive)
REMARK    1  A    between atoms: N_2  and  C_6
REMARK    2  A    between atoms: N_2  and  C_9
REMARK    3  A    between atoms: N_3  and  C_7
REMARK    4  A    between atoms: N_3  and  C_10
REMARK    5  A    between atoms: N_3  and  C_11
REMARK    6  A    between atoms: C_6  and  C_7
REMARK    7  A    between atoms: C_8  and  C_12
REMARK                            x       y       z     vdW  Elec       q    Type
REMARK                         _______ _______ _______ _____ _____    ______ ____
ROOT
ATOM      1  O   UNL     1       0.290   0.851   1.765  0.00  0.00    +0.000 OA
ATOM      2  N   UNL     1       0.895  -0.694   0.089  0.00  0.00    +0.000 N 
ATOM      3  C   UNL     1       0.002   0.127   0.813  0.00  0.00    +0.000 C 
ATOM      4  C   UNL     1       0.444  -1.522  -1.035  0.00  0.00    +0.000 C 
ENDROOT
BRANCH   3   7
ATOM      5  N   UNL     1      -3.179   1.043  -0.957  0.00  0.00    +0.000 NA
ATOM      6  N   UNL     1      -5.382   0.152  -0.788  0.00  0.00    +0.000 N 
ATOM      7  C   UNL     1      -1.414   0.114   0.409  0.00  0.00    +0.000 A 
ATOM      8  C   UNL     1      -2.312  -0.787   0.970  0.00  0.00    +0.000 A 
ATOM      9  C   UNL     1      -1.893   1.001  -0.541  0.00  0.00    +0.000 A 
ATOM     10  C   UNL     1      -3.643  -0.775   0.568  0.00  0.00    +0.000 A 
ATOM     11  C   UNL     1      -4.023   0.151  -0.390  0.00  0.00    +0.000 A 
ATOM     12  H   UNL     1      -5.654   0.826  -1.493  0.00  0.00    +0.000 HD
ATOM     13  H   UNL     1      -5.902  -0.715  -0.729  0.00  0.00    +0.000 HD
ENDBRANCH   3   7
BRANCH   2  14
ATOM     14  C   UNL     1       2.293  -0.761   0.414  0.00  0.00    +0.000 C 
BRANCH  14  15
ATOM     15  C   UNL     1       3.089   0.285  -0.354  0.00  0.00    +0.000 C 
BRANCH  15  16
ATOM     16  N   UNL     1       4.503   0.218   0.013  0.00  0.00    +0.000 NA
ATOM     17  C   UNL     1       5.160  -0.888  -0.682  0.00  0.00    +0.000 C 
ATOM     18  C   UNL     1       5.170   1.483  -0.293  0.00  0.00    +0.000 C 
ENDBRANCH  15  16
ENDBRANCH  14  15
ENDBRANCH   2  14
TORSDOF 4
