REMARK  Name = 58772613
REMARK  2 active torsions:
REMARK  status: ('A' for Active; 'I' for Inactive)
REMARK    1  A    between atoms: N_3  and  C_12
REMARK    2  A    between atoms: C_7  and  C_12
REMARK                            x       y       z     vdW  Elec       q    Type
REMARK                         _______ _______ _______ _____ _____    ______ ____
ROOT
ATOM      1  O   UNL     1       1.392  -1.954  -0.340  0.00  0.00    +0.000 OA
ATOM      2  C   UNL     1       1.038  -0.760  -0.399  0.00  0.00    +0.000 C 
ENDROOT
BRANCH   2   5
ATOM      3  N   UNL     1      -2.037   1.345  -0.149  0.00  0.00    +0.000 NA
ATOM      4  N   UNL     1      -4.301   0.764   0.312  0.00  0.00    +0.000 N 
ATOM      5  C   UNL     1      -0.353  -0.388  -0.210  0.00  0.00    +0.000 A 
ATOM      6  C   UNL     1      -1.318  -1.346   0.079  0.00  0.00    +0.000 A 
ATOM      7  C   UNL     1      -2.643  -0.960   0.255  0.00  0.00    +0.000 A 
ATOM      8  C   UNL     1      -0.760   0.932  -0.313  0.00  0.00    +0.000 A 
ATOM      9  C   UNL     1      -2.947   0.386   0.131  0.00  0.00    +0.000 A 
ATOM     10  H   UNL     1      -5.023   0.088   0.096  0.00  0.00    +0.000 HD
ATOM     11  H   UNL     1      -4.520   1.748   0.215  0.00  0.00    +0.000 HD
ENDBRANCH   2   5
BRANCH   2  12
ATOM     12  N   UNL     1       1.935   0.268  -0.686  0.00  0.00    +0.000 NA
ATOM     13  N   UNL     1       3.912   1.474  -0.025  0.00  0.00    +0.000 N 
ATOM     14  N   UNL     1       3.141  -0.267   1.233  0.00  0.00    +0.000 N 
ATOM     15  C   UNL     1       2.943   0.505   0.112  0.00  0.00    +0.000 C 
ATOM     16  H   UNL     1       3.900   2.118  -0.809  0.00  0.00    +0.000 HD
ATOM     17  H   UNL     1       4.660   1.575   0.652  0.00  0.00    +0.000 HD
ATOM     18  H   UNL     1       2.526  -1.030   1.488  0.00  0.00    +0.000 HD
ATOM     19  H   UNL     1       3.924  -0.089   1.854  0.00  0.00    +0.000 HD
ENDBRANCH   2  12
TORSDOF 2
