REMARK  Name = 58772630
REMARK  4 active torsions:
REMARK  status: ('A' for Active; 'I' for Inactive)
REMARK    1  A    between atoms: N_2  and  C_11
REMARK    2  A    between atoms: N_4  and  C_12
REMARK    3  A    between atoms: C_11  and  C_12
REMARK    4  A    between atoms: C_13  and  C_14
REMARK                            x       y       z     vdW  Elec       q    Type
REMARK                         _______ _______ _______ _____ _____    ______ ____
ROOT
ATOM      1  O   UNL     1       0.640   1.731   0.305  0.00  0.00    +0.000 OA
ATOM      2  N   UNL     1       0.279  -0.510   0.783  0.00  0.00    +0.000 N 
ATOM      3  C   UNL     1       1.059   0.582   0.424  0.00  0.00    +0.000 C 
ATOM      4  H   UNL     1       0.677  -1.443   0.802  0.00  0.00    +0.000 HD
ENDROOT
BRANCH   3   7
ATOM      5  N   UNL     1       4.435  -1.084   0.535  0.00  0.00    +0.000 NA
ATOM      6  N   UNL     1       6.484  -0.560  -0.562  0.00  0.00    +0.000 N 
ATOM      7  C   UNL     1       2.491   0.301   0.148  0.00  0.00    +0.000 A 
ATOM      8  C   UNL     1       3.227   1.106  -0.714  0.00  0.00    +0.000 A 
ATOM      9  C   UNL     1       3.136  -0.772   0.743  0.00  0.00    +0.000 A 
ATOM     10  C   UNL     1       4.566   0.817  -0.952  0.00  0.00    +0.000 A 
ATOM     11  C   UNL     1       5.118  -0.279  -0.309  0.00  0.00    +0.000 A 
ATOM     12  H   UNL     1       6.876  -0.281  -1.453  0.00  0.00    +0.000 HD
ATOM     13  H   UNL     1       6.881  -1.366  -0.095  0.00  0.00    +0.000 HD
ENDBRANCH   3   7
BRANCH   2  14
ATOM     14  C   UNL     1      -1.129  -0.403   1.057  0.00  0.00    +0.000 C 
BRANCH  14  15
ATOM     15  C   UNL     1      -1.953  -0.608  -0.206  0.00  0.00    +0.000 C 
BRANCH  15  16
ATOM     16  N   UNL     1      -3.378  -0.484   0.092  0.00  0.00    +0.000 NA
ATOM     17  N   UNL     1      -6.080   0.377  -0.506  0.00  0.00    +0.000 NA
ATOM     18  C   UNL     1      -3.768   0.927   0.203  0.00  0.00    +0.000 C 
ATOM     19  C   UNL     1      -4.186  -1.166  -0.927  0.00  0.00    +0.000 C 
ATOM     20  C   UNL     1      -5.264   1.053   0.505  0.00  0.00    +0.000 C 
ATOM     21  C   UNL     1      -5.678  -1.027  -0.618  0.00  0.00    +0.000 C 
ATOM     22  H   UNL     1      -7.063   0.430  -0.242  0.00  0.00    +0.000 HD
ENDBRANCH  15  16
ENDBRANCH  14  15
ENDBRANCH   2  14
TORSDOF 4
