REMARK  Name = 59128735
REMARK  5 active torsions:
REMARK  status: ('A' for Active; 'I' for Inactive)
REMARK    1  A    between atoms: C_4  and  C_5
REMARK    2  A    between atoms: C_4  and  C_6
REMARK    3  A    between atoms: C_4  and  C_7
REMARK    4  A    between atoms: C_4  and  C_8
REMARK    5  A    between atoms: C_5  and  C_9
REMARK                            x       y       z     vdW  Elec       q    Type
REMARK                         _______ _______ _______ _____ _____    ______ ____
ROOT
ATOM      1  N   UNL     1       2.193   1.187   0.227  0.00  0.00    +0.000 NA
ATOM      2  N   UNL     1       4.215   0.116  -0.438  0.00  0.00    +0.000 N 
ATOM      3  C   UNL     1       0.158  -0.109   0.386  0.00  0.00    +0.000 A 
ATOM      4  C   UNL     1       0.846  -1.251  -0.007  0.00  0.00    +0.000 A 
ATOM      5  C   UNL     1       0.871   1.075   0.487  0.00  0.00    +0.000 A 
ATOM      6  C   UNL     1       2.207  -1.176  -0.284  0.00  0.00    +0.000 A 
ATOM      7  C   UNL     1       2.828   0.056  -0.153  0.00  0.00    +0.000 A 
ATOM      8  H   UNL     1       4.666   1.017  -0.335  0.00  0.00    +0.000 HD
ATOM      9  H   UNL     1       4.772  -0.718  -0.299  0.00  0.00    +0.000 HD
ENDROOT
BRANCH   3  11
ATOM     10  O   UNL     1      -1.601  -0.413   1.847  0.00  0.00    +0.000 OA
ATOM     11  C   UNL     1      -1.285  -0.156   0.686  0.00  0.00    +0.000 C 
BRANCH  11  12
ATOM     12  C   UNL     1      -2.324   0.092  -0.424  0.00  0.00    +0.000 C 
ATOM     13  C   UNL     1      -3.255  -1.124  -0.512  0.00  0.00    +0.000 C 
ATOM     14  C   UNL     1      -3.153   1.326  -0.017  0.00  0.00    +0.000 C 
ATOM     15  C   UNL     1      -1.701   0.377  -1.799  0.00  0.00    +0.000 C 
ENDBRANCH  11  12
ENDBRANCH   3  11
TORSDOF 2
