REMARK  Name = 59156729
REMARK  3 active torsions:
REMARK  status: ('A' for Active; 'I' for Inactive)
REMARK    1  A    between atoms: N_2  and  C_5
REMARK    2  A    between atoms: N_4  and  C_14
REMARK    3  A    between atoms: C_11  and  C_13
REMARK                            x       y       z     vdW  Elec       q    Type
REMARK                         _______ _______ _______ _____ _____    ______ ____
ROOT
ATOM      1  N   UNL     1       2.661   0.744   0.055  0.00  0.00    +0.000 N 
ATOM      2  N   UNL     1       0.491   1.659  -0.303  0.00  0.00    +0.000 NA
ATOM      3  C   UNL     1       1.252   0.599   0.050  0.00  0.00    +0.000 A 
ATOM      4  C   UNL     1       0.740  -0.637   0.411  0.00  0.00    +0.000 A 
ATOM      5  C   UNL     1      -0.641  -0.795   0.411  0.00  0.00    +0.000 A 
ATOM      6  C   UNL     1      -1.458   0.273   0.054  0.00  0.00    +0.000 A 
ATOM      7  C   UNL     1      -0.848   1.468  -0.292  0.00  0.00    +0.000 A 
ATOM      8  H   UNL     1       3.000   1.663  -0.209  0.00  0.00    +0.000 HD
ENDROOT
BRANCH   6  11
ATOM      9  O   UNL     1      -3.633   1.136   0.201  0.00  0.00    +0.000 OA
ATOM     10  N   UNL     1      -3.424  -1.143  -0.174  0.00  0.00    +0.000 N 
ATOM     11  C   UNL     1      -2.904   0.139   0.043  0.00  0.00    +0.000 C 
ATOM     12  C   UNL     1      -4.838  -1.434  -0.235  0.00  0.00    +0.000 C 
ATOM     13  H   UNL     1      -2.798  -1.914  -0.380  0.00  0.00    +0.000 HD
ENDBRANCH   6  11
BRANCH   1  14
ATOM     14  C   UNL     1       3.582  -0.321   0.424  0.00  0.00    +0.000 C 
ATOM     15  C   UNL     1       4.999  -0.334  -0.072  0.00  0.00    +0.000 C 
ATOM     16  C   UNL     1       4.019  -1.354  -0.573  0.00  0.00    +0.000 C 
ENDBRANCH   1  14
TORSDOF 2
