REMARK  Name = 59208215
REMARK  2 active torsions:
REMARK  status: ('A' for Active; 'I' for Inactive)
REMARK    1  A    between atoms: N_4  and  C_10
REMARK    2  A    between atoms: C_5  and  C_10
REMARK                            x       y       z     vdW  Elec       q    Type
REMARK                         _______ _______ _______ _____ _____    ______ ____
ROOT
ATOM      1  N   UNL     1       2.450   0.873   0.000  0.00  0.00    +0.000 NA
ATOM      2  N   UNL     1       3.164  -1.401  -0.000  0.00  0.00    +0.000 N 
ATOM      3  C   UNL     1      -0.212   0.018  -0.000  0.00  0.00    +0.000 A 
ATOM      4  C   UNL     1       0.821  -0.914  -0.000  0.00  0.00    +0.000 A 
ATOM      5  C   UNL     1       2.123  -0.439  -0.000  0.00  0.00    +0.000 A 
ATOM      6  C   UNL     1       0.085   1.377   0.000  0.00  0.00    +0.000 A 
ATOM      7  C   UNL     1       1.420   1.748   0.000  0.00  0.00    +0.000 A 
ATOM      8  H   UNL     1       2.985  -2.305   0.419  0.00  0.00    +0.000 HD
ATOM      9  H   UNL     1       4.113  -1.049   0.006  0.00  0.00    +0.000 HD
ENDROOT
BRANCH   3  11
ATOM     10  O   UNL     1      -1.866  -1.643   0.001  0.00  0.00    +0.000 OA
ATOM     11  C   UNL     1      -1.596  -0.426  -0.000  0.00  0.00    +0.000 C 
BRANCH  11  12
ATOM     12  N   UNL     1      -2.572   0.572  -0.000  0.00  0.00    +0.000 NA
ATOM     13  C   UNL     1      -3.816   0.235  -0.000  0.00  0.00    +0.000 C 
ENDBRANCH  11  12
ENDBRANCH   3  11
TORSDOF 2
