REMARK  Name = 59276122
REMARK  11 active torsions:
REMARK  status: ('A' for Active; 'I' for Inactive)
REMARK    1  A    between atoms: N_2  and  C_5
REMARK    2  A    between atoms: N_2  and  C_6
REMARK    3  A    between atoms: C_5  and  C_7
REMARK    4  A    between atoms: C_6  and  C_8
REMARK    5  A    between atoms: C_7  and  C_9
REMARK    6  A    between atoms: C_8  and  C_10
REMARK    7  A    between atoms: C_9  and  C_11
REMARK    8  A    between atoms: C_9  and  C_12
REMARK    9  A    between atoms: C_10  and  C_13
REMARK   10  A    between atoms: C_10  and  C_14
REMARK   11  A    between atoms: C_15  and  C_16
REMARK                            x       y       z     vdW  Elec       q    Type
REMARK                         _______ _______ _______ _____ _____    ______ ____
ROOT
ATOM      1  O   UNL     1       0.833   2.040   1.253  0.00  0.00    +0.000 OA
ATOM      2  N   UNL     1       1.048  -0.061   0.247  0.00  0.00    +0.000 N 
ATOM      3  C   UNL     1       0.341   1.091   0.642  0.00  0.00    +0.000 C 
ENDROOT
BRANCH   3   6
ATOM      4  N   UNL     1      -2.833   1.875  -1.201  0.00  0.00    +0.000 NA
ATOM      5  N   UNL     1      -5.116   1.509  -0.623  0.00  0.00    +0.000 N 
ATOM      6  C   UNL     1      -1.094   1.190   0.332  0.00  0.00    +0.000 A 
ATOM      7  C   UNL     1      -2.054   0.721   1.222  0.00  0.00    +0.000 A 
ATOM      8  C   UNL     1      -1.532   1.754  -0.855  0.00  0.00    +0.000 A 
ATOM      9  C   UNL     1      -3.403   0.828   0.902  0.00  0.00    +0.000 A 
ATOM     10  C   UNL     1      -3.737   1.407  -0.311  0.00  0.00    +0.000 A 
ATOM     11  H   UNL     1      -5.751   0.827  -0.228  0.00  0.00    +0.000 HD
ATOM     12  H   UNL     1      -5.355   1.928  -1.514  0.00  0.00    +0.000 HD
ENDBRANCH   3   6
BRANCH   2  13
ATOM     13  C   UNL     1       0.397  -1.158  -0.483  0.00  0.00    +0.000 C 
BRANCH  13  14
ATOM     14  C   UNL     1      -0.188  -2.215   0.452  0.00  0.00    +0.000 C 
BRANCH  14  15
ATOM     15  C   UNL     1      -0.861  -3.409  -0.253  0.00  0.00    +0.000 C 
ATOM     16  C   UNL     1      -1.373  -4.458   0.735  0.00  0.00    +0.000 C 
ATOM     17  C   UNL     1      -2.018  -2.910  -1.122  0.00  0.00    +0.000 C 
ENDBRANCH  14  15
ENDBRANCH  13  14
ENDBRANCH   2  13
BRANCH   2  18
ATOM     18  C   UNL     1       2.446  -0.227   0.534  0.00  0.00    +0.000 C 
BRANCH  18  19
ATOM     19  C   UNL     1       3.340   0.326  -0.574  0.00  0.00    +0.000 C 
BRANCH  19  20
ATOM     20  C   UNL     1       4.853   0.152  -0.339  0.00  0.00    +0.000 C 
ATOM     21  C   UNL     1       5.690   0.673  -1.508  0.00  0.00    +0.000 C 
ATOM     22  C   UNL     1       5.262   0.872   0.949  0.00  0.00    +0.000 C 
ENDBRANCH  19  20
ENDBRANCH  18  19
ENDBRANCH   2  18
TORSDOF 7
