REMARK  Name = 59403155
REMARK  5 active torsions:
REMARK  status: ('A' for Active; 'I' for Inactive)
REMARK    1  A    between atoms: N_2  and  C_6
REMARK    2  A    between atoms: C_5  and  C_6
REMARK    3  A    between atoms: C_5  and  C_7
REMARK    4  A    between atoms: C_5  and  C_8
REMARK    5  A    between atoms: C_9  and  C_10
REMARK                            x       y       z     vdW  Elec       q    Type
REMARK                         _______ _______ _______ _____ _____    ______ ____
ROOT
ATOM      1  N   UNL     1      -3.210   0.942  -0.100  0.00  0.00    +0.000 NA
ATOM      2  N   UNL     1      -4.848  -0.789  -0.080  0.00  0.00    +0.000 N 
ATOM      3  C   UNL     1      -0.866   0.362   0.020  0.00  0.00    +0.000 A 
ATOM      4  C   UNL     1      -1.195  -0.988   0.073  0.00  0.00    +0.000 A 
ATOM      5  C   UNL     1      -1.901   1.279  -0.065  0.00  0.00    +0.000 A 
ATOM      6  C   UNL     1      -2.531  -1.374   0.039  0.00  0.00    +0.000 A 
ATOM      7  C   UNL     1      -3.491  -0.380  -0.047  0.00  0.00    +0.000 A 
ATOM      8  H   UNL     1      -5.067  -1.700  -0.464  0.00  0.00    +0.000 HD
ATOM      9  H   UNL     1      -5.546  -0.059  -0.149  0.00  0.00    +0.000 HD
ENDROOT
BRANCH   3  12
ATOM     10  O   UNL     1       0.855   1.882  -0.456  0.00  0.00    +0.000 OA
ATOM     11  N   UNL     1       1.443  -0.042   0.698  0.00  0.00    +0.000 N 
ATOM     12  C   UNL     1       0.551   0.806   0.054  0.00  0.00    +0.000 C 
ATOM     13  H   UNL     1       1.114  -0.891   1.146  0.00  0.00    +0.000 HD
BRANCH  11  14
ATOM     14  C   UNL     1       2.842   0.261   0.835  0.00  0.00    +0.000 C 
BRANCH  14  15
ATOM     15  C   UNL     1       3.672  -0.273  -0.338  0.00  0.00    +0.000 C 
ATOM     16  C   UNL     1       5.148   0.109  -0.205  0.00  0.00    +0.000 C 
ATOM     17  C   UNL     1       3.532  -1.793  -0.430  0.00  0.00    +0.000 C 
ENDBRANCH  14  15
ENDBRANCH  11  14
ENDBRANCH   3  12
TORSDOF 3
