REMARK  Name = 59514462
REMARK  1 active torsions:
REMARK  status: ('A' for Active; 'I' for Inactive)
REMARK    1  A    between atoms: N_2  and  C_10
REMARK                            x       y       z     vdW  Elec       q    Type
REMARK                         _______ _______ _______ _____ _____    ______ ____
ROOT
ATOM      1  O   UNL     1      -1.401   2.067  -0.001  0.00  0.00    +0.000 OA
ATOM      2  N   UNL     1      -1.965  -0.190   0.000  0.00  0.00    +0.000 N 
ATOM      3  N   UNL     1      -1.566  -1.500  -0.001  0.00  0.00    +0.000 NA
ATOM      4  N   UNL     1      -0.359  -1.827  -0.001  0.00  0.00    +0.000 NA
ATOM      5  N   UNL     1       1.903  -1.289   0.000  0.00  0.00    +0.000 NA
ATOM      6  C   UNL     1       0.325   0.510  -0.000  0.00  0.00    +0.000 A 
ATOM      7  C   UNL     1      -1.086   0.882  -0.000  0.00  0.00    +0.000 A 
ATOM      8  C   UNL     1       0.626  -0.836  -0.000  0.00  0.00    +0.000 A 
ATOM      9  C   UNL     1       1.354   1.449  -0.000  0.00  0.00    +0.000 A 
ATOM     10  C   UNL     1      -3.390   0.092   0.002  0.00  0.00    +0.000 C 
ATOM     11  C   UNL     1       2.669   1.005   0.000  0.00  0.00    +0.000 A 
ATOM     12  C   UNL     1       2.889  -0.362   0.001  0.00  0.00    +0.000 A 
ENDROOT
TORSDOF 0
