REMARK  Name = 59514468
REMARK  1 active torsions:
REMARK  status: ('A' for Active; 'I' for Inactive)
REMARK    1  A    between atoms: N_2  and  C_10
REMARK                            x       y       z     vdW  Elec       q    Type
REMARK                         _______ _______ _______ _____ _____    ______ ____
ROOT
ATOM      1  O   UNL     1      -1.426  -2.069  -0.005  0.00  0.00    +0.000 OA
ATOM      2  N   UNL     1      -1.998   0.193   0.001  0.00  0.00    +0.000 N 
ATOM      3  N   UNL     1      -0.308   1.867  -0.002  0.00  0.00    +0.000 NA
ATOM      4  N   UNL     1       1.946   1.275  -0.001  0.00  0.00    +0.000 NA
ATOM      5  C   UNL     1       0.318  -0.499  -0.000  0.00  0.00    +0.000 A 
ATOM      6  C   UNL     1      -1.108  -0.884  -0.001  0.00  0.00    +0.000 A 
ATOM      7  C   UNL     1       0.660   0.851  -0.001  0.00  0.00    +0.000 A 
ATOM      8  C   UNL     1       1.331  -1.456   0.002  0.00  0.00    +0.000 A 
ATOM      9  C   UNL     1      -1.548   1.502  -0.001  0.00  0.00    +0.000 A 
ATOM     10  C   UNL     1      -3.429  -0.066   0.005  0.00  0.00    +0.000 C 
ATOM     11  C   UNL     1       2.656  -1.038   0.003  0.00  0.00    +0.000 A 
ATOM     12  C   UNL     1       2.908   0.324   0.001  0.00  0.00    +0.000 A 
ENDROOT
TORSDOF 0
