REMARK  Name = 596269
REMARK  3 active torsions:
REMARK  status: ('A' for Active; 'I' for Inactive)
REMARK    1  A    between atoms: N_3  and  C_7
REMARK    2  A    between atoms: C_6  and  C_10
REMARK    3  A    between atoms: C_12  and  C_13
REMARK                            x       y       z     vdW  Elec       q    Type
REMARK                         _______ _______ _______ _____ _____    ______ ____
ROOT
ATOM      1  N   UNL     1       0.318   1.703   0.013  0.00  0.00    +0.000 NA
ATOM      2  C   UNL     1      -1.171  -0.202  -0.023  0.00  0.00    +0.000 A 
ATOM      3  C   UNL     1       0.091   0.370  -0.007  0.00  0.00    +0.000 A 
ATOM      4  C   UNL     1      -2.271   0.649  -0.018  0.00  0.00    +0.000 A 
ATOM      5  C   UNL     1      -2.078   2.026   0.003  0.00  0.00    +0.000 A 
ATOM      6  C   UNL     1      -0.776   2.498   0.017  0.00  0.00    +0.000 A 
ENDROOT
BRANCH   2   9
ATOM      7  O   UNL     1      -1.455  -2.269  -1.116  0.00  0.00    +0.000 OA
ATOM      8  N   UNL     1      -1.486  -2.299   1.177  0.00  0.00    +0.000 N 
ATOM      9  C   UNL     1      -1.384  -1.643  -0.045  0.00  0.00    +0.000 C 
ATOM     10  H   UNL     1      -1.422  -1.804   2.061  0.00  0.00    +0.000 HD
ATOM     11  H   UNL     1      -1.627  -3.302   1.220  0.00  0.00    +0.000 HD
ENDBRANCH   2   9
BRANCH   3  13
ATOM     12  O   UNL     1       3.010   1.039   0.020  0.00  0.00    +0.000 OA
ATOM     13  N   UNL     1       1.209  -0.476  -0.013  0.00  0.00    +0.000 N 
ATOM     14  C   UNL     1       2.543  -0.095   0.001  0.00  0.00    +0.000 C 
ATOM     15  C   UNL     1       3.449  -1.302  -0.009  0.00  0.00    +0.000 C 
ATOM     16  H   UNL     1       1.021  -1.475  -0.028  0.00  0.00    +0.000 HD
ENDBRANCH   3  13
TORSDOF 2
