REMARK  Name = 59700106
REMARK  6 active torsions:
REMARK  status: ('A' for Active; 'I' for Inactive)
REMARK    1  A    between atoms: O_1  and  N_3
REMARK    2  A    between atoms: O_1  and  C_14
REMARK    3  A    between atoms: N_3  and  C_13
REMARK    4  A    between atoms: N_5  and  C_9
REMARK    5  A    between atoms: C_6  and  C_10
REMARK    6  A    between atoms: C_8  and  C_12
REMARK                            x       y       z     vdW  Elec       q    Type
REMARK                         _______ _______ _______ _____ _____    ______ ____
ROOT
ATOM      1  N   UNL     1      -2.154   1.263  -0.689  0.00  0.00    +0.000 NA
ATOM      2  C   UNL     1      -0.164   0.340   0.328  0.00  0.00    +0.000 A 
ATOM      3  C   UNL     1      -0.859  -0.820   0.652  0.00  0.00    +0.000 A 
ATOM      4  C   UNL     1      -2.201  -0.939   0.307  0.00  0.00    +0.000 A 
ATOM      5  C   UNL     1      -0.851   1.343  -0.337  0.00  0.00    +0.000 A 
ATOM      6  C   UNL     1      -2.796   0.121  -0.357  0.00  0.00    +0.000 A 
ATOM      7  C   UNL     1      -2.972  -2.167   0.639  0.00  0.00    +0.000 C 
ENDROOT
BRANCH   2  10
ATOM      8  O   UNL     1       1.565   1.375   1.458  0.00  0.00    +0.000 OA
ATOM      9  N   UNL     1       2.139  -0.468   0.188  0.00  0.00    +0.000 N 
ATOM     10  C   UNL     1       1.259   0.457   0.699  0.00  0.00    +0.000 C 
ATOM     11  C   UNL     1       3.559  -0.476   0.485  0.00  0.00    +0.000 C 
BRANCH   9  12
ATOM     12  O   UNL     1       1.761  -1.508  -0.680  0.00  0.00    +0.000 OA
ATOM     13  C   UNL     1       1.862  -1.050  -2.025  0.00  0.00    +0.000 C 
ENDBRANCH   9  12
ENDBRANCH   2  10
BRANCH   5  14
ATOM     14  N   UNL     1      -0.148   2.528  -0.671  0.00  0.00    +0.000 N 
ATOM     15  H   UNL     1       0.606   2.832  -0.067  0.00  0.00    +0.000 HD
ATOM     16  H   UNL     1      -0.674   3.242  -1.160  0.00  0.00    +0.000 HD
ENDBRANCH   5  14
TORSDOF 3
