REMARK  Name = 59728841
REMARK  5 active torsions:
REMARK  status: ('A' for Active; 'I' for Inactive)
REMARK    1  A    between atoms: N_2  and  C_5
REMARK    2  A    between atoms: C_5  and  C_6
REMARK    3  A    between atoms: C_5  and  C_7
REMARK    4  A    between atoms: C_5  and  C_8
REMARK    5  A    between atoms: C_12  and  C_14
REMARK                            x       y       z     vdW  Elec       q    Type
REMARK                         _______ _______ _______ _____ _____    ______ ____
ROOT
ATOM      1  N   UNL     1      -2.034  -0.853   0.000  0.00  0.00    +0.000 N 
ATOM      2  N   UNL     1      -0.284   0.718   0.001  0.00  0.00    +0.000 NA
ATOM      3  C   UNL     1      -0.681  -0.574   0.001  0.00  0.00    +0.000 A 
ATOM      4  C   UNL     1       0.189  -1.653   0.002  0.00  0.00    +0.000 A 
ATOM      5  C   UNL     1       1.554  -1.388   0.003  0.00  0.00    +0.000 A 
ATOM      6  C   UNL     1       2.001  -0.072   0.002  0.00  0.00    +0.000 A 
ATOM      7  C   UNL     1       1.050   0.936   0.001  0.00  0.00    +0.000 A 
ATOM      8  H   UNL     1      -2.302  -1.775  -0.331  0.00  0.00    +0.000 HD
ENDROOT
BRANCH   6  11
ATOM      9  O   UNL     1       4.281  -0.661  -0.012  0.00  0.00    +0.000 OA
ATOM     10  N   UNL     1       3.793   1.579   0.002  0.00  0.00    +0.000 N 
ATOM     11  C   UNL     1       3.420   0.237   0.003  0.00  0.00    +0.000 C 
ATOM     12  H   UNL     1       3.157   2.367   0.009  0.00  0.00    +0.000 HD
ATOM     13  H   UNL     1       4.778   1.823  -0.004  0.00  0.00    +0.000 HD
ENDBRANCH   6  11
BRANCH   1  14
ATOM     14  C   UNL     1      -3.062   0.173  -0.001  0.00  0.00    +0.000 C 
ATOM     15  C   UNL     1      -2.899   1.032  -1.258  0.00  0.00    +0.000 C 
ATOM     16  C   UNL     1      -4.435  -0.505  -0.001  0.00  0.00    +0.000 C 
ATOM     17  C   UNL     1      -2.893   1.030   1.255  0.00  0.00    +0.000 C 
ENDBRANCH   1  14
TORSDOF 2
