REMARK  Name = 59750283
REMARK  6 active torsions:
REMARK  status: ('A' for Active; 'I' for Inactive)
REMARK    1  A    between atoms: N_2  and  C_5
REMARK    2  A    between atoms: N_2  and  C_6
REMARK    3  A    between atoms: N_4  and  C_14
REMARK    4  A    between atoms: C_5  and  C_8
REMARK    5  A    between atoms: C_6  and  C_9
REMARK    6  A    between atoms: C_7  and  C_10
REMARK                            x       y       z     vdW  Elec       q    Type
REMARK                         _______ _______ _______ _____ _____    ______ ____
ROOT
ATOM      1  N   UNL     1      -1.983  -0.799  -1.019  0.00  0.00    +0.000 NA
ATOM      2  C   UNL     1       0.008  -0.472   0.313  0.00  0.00    +0.000 A 
ATOM      3  C   UNL     1      -0.725   0.255   1.244  0.00  0.00    +0.000 A 
ATOM      4  C   UNL     1      -0.661  -0.973  -0.791  0.00  0.00    +0.000 A 
ATOM      5  C   UNL     1      -2.087   0.456   1.045  0.00  0.00    +0.000 A 
ATOM      6  C   UNL     1      -2.663  -0.086  -0.093  0.00  0.00    +0.000 A 
ENDROOT
BRANCH   2   9
ATOM      7  O   UNL     1       1.764  -1.725   1.106  0.00  0.00    +0.000 OA
ATOM      8  N   UNL     1       2.345   0.229  -0.039  0.00  0.00    +0.000 N 
ATOM      9  C   UNL     1       1.450  -0.703   0.496  0.00  0.00    +0.000 C 
BRANCH   8  10
ATOM     10  C   UNL     1       3.788   0.074   0.080  0.00  0.00    +0.000 C 
ATOM     11  C   UNL     1       4.360  -0.702  -1.088  0.00  0.00    +0.000 C 
ENDBRANCH   8  10
BRANCH   8  12
ATOM     12  C   UNL     1       1.893   1.421  -0.753  0.00  0.00    +0.000 C 
ATOM     13  C   UNL     1       1.699   2.591   0.189  0.00  0.00    +0.000 C 
ENDBRANCH   8  12
ENDBRANCH   2   9
BRANCH   6  14
ATOM     14  N   UNL     1      -4.020   0.127  -0.270  0.00  0.00    +0.000 NA
ATOM     15  C   UNL     1      -5.169   0.308  -0.420  0.00  0.00    +0.000 C 
ENDBRANCH   6  14
TORSDOF 4
