REMARK  Name = 59768561
REMARK  6 active torsions:
REMARK  status: ('A' for Active; 'I' for Inactive)
REMARK    1  A    between atoms: N_2  and  C_5
REMARK    2  A    between atoms: N_4  and  C_11
REMARK    3  A    between atoms: C_5  and  C_6
REMARK    4  A    between atoms: C_5  and  C_7
REMARK    5  A    between atoms: C_5  and  C_8
REMARK    6  A    between atoms: C_9  and  C_10
REMARK                            x       y       z     vdW  Elec       q    Type
REMARK                         _______ _______ _______ _____ _____    ______ ____
ROOT
ATOM      1  N   UNL     1       3.197   0.615  -0.429  0.00  0.00    +0.000 NA
ATOM      2  C   UNL     1       0.970  -0.086   0.199  0.00  0.00    +0.000 A 
ATOM      3  C   UNL     1       1.891   0.873  -0.191  0.00  0.00    +0.000 A 
ATOM      4  C   UNL     1       1.418  -1.393   0.355  0.00  0.00    +0.000 A 
ATOM      5  C   UNL     1       2.754  -1.697   0.119  0.00  0.00    +0.000 A 
ATOM      6  C   UNL     1       3.596  -0.666  -0.268  0.00  0.00    +0.000 A 
ENDROOT
BRANCH   2   9
ATOM      7  O   UNL     1      -0.750   1.056   1.309  0.00  0.00    +0.000 OA
ATOM      8  N   UNL     1      -1.368  -0.445  -0.346  0.00  0.00    +0.000 N 
ATOM      9  C   UNL     1      -0.460   0.228   0.450  0.00  0.00    +0.000 C 
ATOM     10  H   UNL     1      -1.027  -1.113  -1.032  0.00  0.00    +0.000 HD
BRANCH   8  11
ATOM     11  C   UNL     1      -2.799  -0.229  -0.239  0.00  0.00    +0.000 C 
ATOM     12  C   UNL     1      -3.103   1.261  -0.432  0.00  0.00    +0.000 C 
ATOM     13  C   UNL     1      -3.271  -0.678   1.148  0.00  0.00    +0.000 C 
ATOM     14  C   UNL     1      -3.517  -1.044  -1.321  0.00  0.00    +0.000 C 
ENDBRANCH   8  11
ENDBRANCH   2   9
BRANCH   3  15
ATOM     15  N   UNL     1       1.442   2.207  -0.354  0.00  0.00    +0.000 N 
ATOM     16  H   UNL     1       0.485   2.364  -0.647  0.00  0.00    +0.000 HD
ATOM     17  H   UNL     1       2.137   2.887  -0.637  0.00  0.00    +0.000 HD
ENDBRANCH   3  15
TORSDOF 3
