REMARK  Name = 59970224
REMARK  2 active torsions:
REMARK  status: ('A' for Active; 'I' for Inactive)
REMARK    1  A    between atoms: N_3  and  C_12
REMARK    2  A    between atoms: C_6  and  C_8
REMARK                            x       y       z     vdW  Elec       q    Type
REMARK                         _______ _______ _______ _____ _____    ______ ____
ROOT
ATOM      1  I   UNL     1      -0.316  -2.939  -0.323  0.00  0.00    +0.000 I 
ATOM      2  N   UNL     1       1.727   1.470   0.186  0.00  0.00    +0.000 NA
ATOM      3  N   UNL     1       3.859   0.468  -0.168  0.00  0.00    +0.000 N 
ATOM      4  C   UNL     1      -0.257   0.089   0.151  0.00  0.00    +0.000 A 
ATOM      5  C   UNL     1       0.521  -1.036  -0.099  0.00  0.00    +0.000 A 
ATOM      6  C   UNL     1       0.389   1.308   0.284  0.00  0.00    +0.000 A 
ATOM      7  C   UNL     1       1.902  -0.910  -0.206  0.00  0.00    +0.000 A 
ATOM      8  C   UNL     1       2.451   0.354  -0.057  0.00  0.00    +0.000 A 
ATOM      9  H   UNL     1       4.428  -0.333   0.079  0.00  0.00    +0.000 HD
ATOM     10  H   UNL     1       4.255   1.392  -0.052  0.00  0.00    +0.000 HD
ENDROOT
BRANCH   4  13
ATOM     11  O   UNL     1      -2.245  -0.633   1.164  0.00  0.00    +0.000 OA
ATOM     12  N   UNL     1      -2.441   0.843  -0.614  0.00  0.00    +0.000 N 
ATOM     13  C   UNL     1      -1.707   0.055   0.279  0.00  0.00    +0.000 C 
ATOM     14  C   UNL     1      -3.883   0.934  -0.599  0.00  0.00    +0.000 C 
ATOM     15  H   UNL     1      -1.945   1.362  -1.333  0.00  0.00    +0.000 HD
ENDBRANCH   4  13
TORSDOF 1
