REMARK  Name = 602287
REMARK  4 active torsions:
REMARK  status: ('A' for Active; 'I' for Inactive)
REMARK    1  A    between atoms: N_2  and  C_5
REMARK    2  A    between atoms: N_2  and  C_7
REMARK    3  A    between atoms: C_5  and  C_6
REMARK    4  A    between atoms: C_8  and  C_16
REMARK                            x       y       z     vdW  Elec       q    Type
REMARK                         _______ _______ _______ _____ _____    ______ ____
ROOT
ATOM      1  N   UNL     1       1.850   1.849  -0.046  0.00  0.00    +0.000 NA
ATOM      2  C   UNL     1       1.459   0.541  -0.017  0.00  0.00    +0.000 A 
ATOM      3  C   UNL     1       2.387  -0.506   0.034  0.00  0.00    +0.000 A 
ATOM      4  C   UNL     1       3.744  -0.204   0.053  0.00  0.00    +0.000 A 
ATOM      5  C   UNL     1       4.155   1.124   0.023  0.00  0.00    +0.000 A 
ATOM      6  C   UNL     1       3.177   2.105  -0.026  0.00  0.00    +0.000 A 
ENDROOT
BRANCH   3   9
ATOM      7  O   UNL     1       1.743  -2.483   1.139  0.00  0.00    +0.000 OA
ATOM      8  N   UNL     1       1.807  -2.554  -1.152  0.00  0.00    +0.000 N 
ATOM      9  C   UNL     1       1.967  -1.901   0.065  0.00  0.00    +0.000 C 
ATOM     10  H   UNL     1       1.978  -2.091  -2.039  0.00  0.00    +0.000 HD
ATOM     11  H   UNL     1       1.510  -3.523  -1.188  0.00  0.00    +0.000 HD
ENDBRANCH   3   9
BRANCH   2  12
ATOM     12  N   UNL     1       0.103   0.246  -0.036  0.00  0.00    +0.000 N 
ATOM     13  H   UNL     1      -0.155  -0.696  -0.310  0.00  0.00    +0.000 HD
BRANCH  12  14
ATOM     14  C   UNL     1      -0.933   1.245  -0.087  0.00  0.00    +0.000 C 
BRANCH  14  15
ATOM     15  C   UNL     1      -2.299   0.648  -0.038  0.00  0.00    +0.000 A 
ATOM     16  C   UNL     1      -2.950   0.295  -1.221  0.00  0.00    +0.000 A 
ATOM     17  C   UNL     1      -2.926   0.442   1.191  0.00  0.00    +0.000 A 
ATOM     18  C   UNL     1      -4.227  -0.263  -1.174  0.00  0.00    +0.000 A 
ATOM     19  C   UNL     1      -4.204  -0.116   1.237  0.00  0.00    +0.000 A 
ATOM     20  C   UNL     1      -4.854  -0.469   0.054  0.00  0.00    +0.000 A 
ENDBRANCH  14  15
ENDBRANCH  12  14
ENDBRANCH   2  12
TORSDOF 4
