REMARK  Name = 60725755
REMARK  4 active torsions:
REMARK  status: ('A' for Active; 'I' for Inactive)
REMARK    1  A    between atoms: N_2  and  C_5
REMARK    2  A    between atoms: N_2  and  C_7
REMARK    3  A    between atoms: C_6  and  C_10
REMARK    4  A    between atoms: C_7  and  C_12
REMARK                            x       y       z     vdW  Elec       q    Type
REMARK                         _______ _______ _______ _____ _____    ______ ____
ROOT
ATOM      1  N   UNL     1      -0.325   1.859  -0.031  0.00  0.00    +0.000 NA
ATOM      2  C   UNL     1      -0.176   0.516  -0.067  0.00  0.00    +0.000 A 
ATOM      3  C   UNL     1      -1.228  -0.383  -0.006  0.00  0.00    +0.000 A 
ATOM      4  C   UNL     1      -2.517   0.129   0.097  0.00  0.00    +0.000 A 
ATOM      5  C   UNL     1      -2.711   1.505   0.136  0.00  0.00    +0.000 A 
ATOM      6  C   UNL     1      -1.592   2.320   0.069  0.00  0.00    +0.000 A 
ENDROOT
BRANCH   3   9
ATOM      7  O   UNL     1      -1.011  -2.448  -1.119  0.00  0.00    +0.000 OA
ATOM      8  N   UNL     1      -0.859  -2.485   1.169  0.00  0.00    +0.000 N 
ATOM      9  C   UNL     1      -1.035  -1.827  -0.043  0.00  0.00    +0.000 C 
ATOM     10  H   UNL     1      -0.868  -1.993   2.057  0.00  0.00    +0.000 HD
ATOM     11  H   UNL     1      -0.714  -3.489   1.201  0.00  0.00    +0.000 HD
ENDBRANCH   3   9
BRANCH   2  12
ATOM     12  N   UNL     1       1.141   0.001  -0.169  0.00  0.00    +0.000 N 
ATOM     13  H   UNL     1       1.268  -0.951   0.161  0.00  0.00    +0.000 HD
BRANCH  12  14
ATOM     14  C   UNL     1       2.292   0.841  -0.237  0.00  0.00    +0.000 C 
BRANCH  14  15
ATOM     15  C   UNL     1       3.511  -0.018  -0.343  0.00  0.00    +0.000 C 
ATOM     16  C   UNL     1       4.511  -0.010   0.545  0.00  0.00    +0.000 C 
ENDBRANCH  14  15
ENDBRANCH  12  14
ENDBRANCH   2  12
TORSDOF 4
