REMARK  Name = 60753376
REMARK  5 active torsions:
REMARK  status: ('A' for Active; 'I' for Inactive)
REMARK    1  A    between atoms: N_2  and  C_12
REMARK    2  A    between atoms: N_2  and  C_13
REMARK    3  A    between atoms: N_3  and  C_10
REMARK    4  A    between atoms: C_6  and  C_9
REMARK    5  A    between atoms: C_10  and  C_14
REMARK                            x       y       z     vdW  Elec       q    Type
REMARK                         _______ _______ _______ _____ _____    ______ ____
ROOT
ATOM      1  N   UNL     1       3.501   0.175   0.153  0.00  0.00    +0.000 N 
ATOM      2  N   UNL     1       1.363   1.156  -0.233  0.00  0.00    +0.000 NA
ATOM      3  C   UNL     1       2.095   0.048   0.025  0.00  0.00    +0.000 A 
ATOM      4  C   UNL     1      -0.608  -0.244  -0.212  0.00  0.00    +0.000 A 
ATOM      5  C   UNL     1       1.556  -1.219   0.175  0.00  0.00    +0.000 A 
ATOM      6  C   UNL     1       0.178  -1.360   0.053  0.00  0.00    +0.000 A 
ATOM      7  C   UNL     1       0.028   0.980  -0.345  0.00  0.00    +0.000 A 
ATOM      8  C   UNL     1       4.131   1.468   0.000  0.00  0.00    +0.000 C 
ATOM      9  C   UNL     1       4.314  -0.988   0.428  0.00  0.00    +0.000 C 
ENDROOT
BRANCH   4  12
ATOM     10  O   UNL     1      -2.569  -1.432  -0.703  0.00  0.00    +0.000 OA
ATOM     11  N   UNL     1      -2.810   0.776  -0.034  0.00  0.00    +0.000 N 
ATOM     12  C   UNL     1      -2.049  -0.358  -0.346  0.00  0.00    +0.000 C 
ATOM     13  H   UNL     1      -2.353   1.612   0.315  0.00  0.00    +0.000 HD
BRANCH  11  14
ATOM     14  C   UNL     1      -4.253   0.813  -0.095  0.00  0.00    +0.000 C 
ATOM     15  C   UNL     1      -4.877   0.185   1.135  0.00  0.00    +0.000 C 
ENDBRANCH  11  14
ENDBRANCH   4  12
TORSDOF 2
