REMARK  Name = 61357616
REMARK  3 active torsions:
REMARK  status: ('A' for Active; 'I' for Inactive)
REMARK    1  A    between atoms: N_3  and  C_8
REMARK    2  A    between atoms: N_4  and  C_9
REMARK    3  A    between atoms: C_6  and  C_11
REMARK                            x       y       z     vdW  Elec       q    Type
REMARK                         _______ _______ _______ _____ _____    ______ ____
ROOT
ATOM      1  N   UNL     1      -1.091   1.678   0.021  0.00  0.00    +0.000 NA
ATOM      2  C   UNL     1       0.474  -0.164  -0.024  0.00  0.00    +0.000 A 
ATOM      3  C   UNL     1      -0.581  -1.070  -0.023  0.00  0.00    +0.000 A 
ATOM      4  C   UNL     1       0.168   1.187  -0.002  0.00  0.00    +0.000 A 
ATOM      5  C   UNL     1      -1.891  -0.604   0.000  0.00  0.00    +0.000 A 
ATOM      6  C   UNL     1      -2.090   0.767   0.021  0.00  0.00    +0.000 A 
ENDROOT
BRANCH   2   9
ATOM      7  O   UNL     1       2.442  -0.855  -1.118  0.00  0.00    +0.000 OA
ATOM      8  N   UNL     1       2.464  -0.898   1.174  0.00  0.00    +0.000 N 
ATOM      9  C   UNL     1       1.843  -0.662  -0.047  0.00  0.00    +0.000 C 
ATOM     10  H   UNL     1       1.992  -0.740   2.059  0.00  0.00    +0.000 HD
ATOM     11  H   UNL     1       3.418  -1.240   1.217  0.00  0.00    +0.000 HD
ENDBRANCH   2   9
BRANCH   4  12
ATOM     12  N   UNL     1       1.238   2.117  -0.003  0.00  0.00    +0.000 N 
ATOM     13  H   UNL     1       2.110   1.852   0.439  0.00  0.00    +0.000 HD
ATOM     14  H   UNL     1       0.985   3.097   0.009  0.00  0.00    +0.000 HD
ENDBRANCH   4  12
BRANCH   5  15
ATOM     15  N   UNL     1      -2.976  -1.495   0.002  0.00  0.00    +0.000 N 
ATOM     16  H   UNL     1      -2.814  -2.493  -0.013  0.00  0.00    +0.000 HD
ATOM     17  H   UNL     1      -3.923  -1.140   0.020  0.00  0.00    +0.000 HD
ENDBRANCH   5  15
TORSDOF 3
