REMARK  Name = 62074154
REMARK  4 active torsions:
REMARK  status: ('A' for Active; 'I' for Inactive)
REMARK    1  A    between atoms: N_2  and  C_5
REMARK    2  A    between atoms: C_5  and  C_6
REMARK    3  A    between atoms: C_6  and  C_7
REMARK    4  A    between atoms: C_8  and  C_9
REMARK                            x       y       z     vdW  Elec       q    Type
REMARK                         _______ _______ _______ _____ _____    ______ ____
ROOT
ATOM      1  N   UNL     1      -2.274   1.139   0.653  0.00  0.00    +0.000 NA
ATOM      2  N   UNL     1      -4.430   0.758  -0.288  0.00  0.00    +0.000 N 
ATOM      3  C   UNL     1      -0.471  -0.392   0.153  0.00  0.00    +0.000 A 
ATOM      4  C   UNL     1      -1.325  -1.149  -0.642  0.00  0.00    +0.000 A 
ATOM      5  C   UNL     1      -0.990   0.733   0.773  0.00  0.00    +0.000 A 
ATOM      6  C   UNL     1      -2.653  -0.763  -0.790  0.00  0.00    +0.000 A 
ATOM      7  C   UNL     1      -3.074   0.378  -0.127  0.00  0.00    +0.000 A 
ATOM      8  H   UNL     1      -4.905   0.499  -1.144  0.00  0.00    +0.000 HD
ATOM      9  H   UNL     1      -4.732   1.596   0.193  0.00  0.00    +0.000 HD
ENDROOT
BRANCH   3  12
ATOM     10  O   UNL     1       1.276  -1.955   0.201  0.00  0.00    +0.000 OA
ATOM     11  N   UNL     1       1.836   0.258   0.615  0.00  0.00    +0.000 N 
ATOM     12  C   UNL     1       0.953  -0.777   0.331  0.00  0.00    +0.000 C 
ATOM     13  H   UNL     1       1.509   1.218   0.652  0.00  0.00    +0.000 HD
BRANCH  11  14
ATOM     14  C   UNL     1       3.247   0.049   0.790  0.00  0.00    +0.000 C 
BRANCH  14  15
ATOM     15  C   UNL     1       4.018   0.171  -0.518  0.00  0.00    +0.000 C 
ATOM     16  C   UNL     1       3.887   1.549  -1.152  0.00  0.00    +0.000 C 
ENDBRANCH  14  15
ENDBRANCH  11  14
ENDBRANCH   3  12
TORSDOF 3
