REMARK  Name = 62073111
REMARK  3 active torsions:
REMARK  status: ('A' for Active; 'I' for Inactive)
REMARK    1  A    between atoms: N_2  and  C_6
REMARK    2  A    between atoms: C_6  and  C_7
REMARK    3  A    between atoms: C_8  and  C_9
REMARK                            x       y       z     vdW  Elec       q    Type
REMARK                         _______ _______ _______ _____ _____    ______ ____
ROOT
ATOM      1  O   UNL     1       0.106   1.989   0.365  0.00  0.00    +0.000 OA
ATOM      2  N   UNL     1      -0.399   0.338  -1.183  0.00  0.00    +0.000 N 
ATOM      3  C   UNL     1       0.448   0.971  -0.264  0.00  0.00    +0.000 C 
ATOM      4  H   UNL     1      -0.069  -0.464  -1.709  0.00  0.00    +0.000 HD
ENDROOT
BRANCH   3   7
ATOM      5  N   UNL     1       4.094   0.719   0.507  0.00  0.00    +0.000 NA
ATOM      6  N   UNL     1       5.583  -1.140   0.449  0.00  0.00    +0.000 N 
ATOM      7  C   UNL     1       1.772   0.401  -0.086  0.00  0.00    +0.000 A 
ATOM      8  C   UNL     1       2.009  -0.949  -0.319  0.00  0.00    +0.000 A 
ATOM      9  C   UNL     1       2.838   1.185   0.322  0.00  0.00    +0.000 A 
ATOM     10  C   UNL     1       3.287  -1.466  -0.140  0.00  0.00    +0.000 A 
ATOM     11  C   UNL     1       4.286  -0.598   0.271  0.00  0.00    +0.000 A 
ATOM     12  H   UNL     1       5.667  -2.118   0.699  0.00  0.00    +0.000 HD
ATOM     13  H   UNL     1       6.309  -0.503   0.755  0.00  0.00    +0.000 HD
ENDBRANCH   3   7
BRANCH   2  14
ATOM     14  C   UNL     1      -1.735   0.798  -1.488  0.00  0.00    +0.000 C 
BRANCH  14  16
ATOM     15  N   UNL     1      -4.268   0.399   1.292  0.00  0.00    +0.000 NA
ATOM     16  C   UNL     1      -2.763   0.176  -0.587  0.00  0.00    +0.000 A 
ATOM     17  C   UNL     1      -3.166  -1.143  -0.763  0.00  0.00    +0.000 A 
ATOM     18  C   UNL     1      -3.339   0.898   0.446  0.00  0.00    +0.000 A 
ATOM     19  C   UNL     1      -4.120  -1.692   0.087  0.00  0.00    +0.000 A 
ATOM     20  C   UNL     1      -4.635  -0.886   1.090  0.00  0.00    +0.000 A 
ENDBRANCH  14  16
ENDBRANCH   2  14
TORSDOF 3
