REMARK  Name = 62074662
REMARK  8 active torsions:
REMARK  status: ('A' for Active; 'I' for Inactive)
REMARK    1  A    between atoms: N_2  and  C_8
REMARK    2  A    between atoms: N_4  and  C_13
REMARK    3  A    between atoms: C_5  and  C_6
REMARK    4  A    between atoms: C_5  and  C_7
REMARK    5  A    between atoms: C_6  and  C_8
REMARK    6  A    between atoms: C_7  and  C_9
REMARK    7  A    between atoms: C_9  and  C_10
REMARK    8  A    between atoms: C_11  and  C_12
REMARK                            x       y       z     vdW  Elec       q    Type
REMARK                         _______ _______ _______ _____ _____    ______ ____
ROOT
ATOM      1  O   UNL     1       0.974   1.799  -1.435  0.00  0.00    +0.000 OA
ATOM      2  N   UNL     1      -0.089   1.378   0.583  0.00  0.00    +0.000 N 
ATOM      3  C   UNL     1       0.927   1.221  -0.353  0.00  0.00    +0.000 C 
ATOM      4  H   UNL     1      -0.055   0.846   1.448  0.00  0.00    +0.000 HD
ENDROOT
BRANCH   3   6
ATOM      5  N   UNL     1       3.259  -1.753  -0.458  0.00  0.00    +0.000 NA
ATOM      6  C   UNL     1       2.002   0.260   0.004  0.00  0.00    +0.000 A 
ATOM      7  C   UNL     1       2.289  -0.861  -0.760  0.00  0.00    +0.000 A 
ATOM      8  C   UNL     1       2.758   0.478   1.150  0.00  0.00    +0.000 A 
ATOM      9  C   UNL     1       3.764  -0.418   1.493  0.00  0.00    +0.000 A 
ATOM     10  C   UNL     1       3.973  -1.508   0.664  0.00  0.00    +0.000 A 
BRANCH   7  11
ATOM     11  N   UNL     1       1.521  -1.091  -1.928  0.00  0.00    +0.000 N 
ATOM     12  H   UNL     1       1.755  -1.916  -2.468  0.00  0.00    +0.000 HD
ATOM     13  H   UNL     1       0.558  -0.777  -1.945  0.00  0.00    +0.000 HD
ENDBRANCH   7  11
ENDBRANCH   3   6
BRANCH   2  14
ATOM     14  C   UNL     1      -1.210   2.253   0.373  0.00  0.00    +0.000 C 
BRANCH  14  15
ATOM     15  C   UNL     1      -2.381   1.552  -0.308  0.00  0.00    +0.000 C 
BRANCH  15  16
ATOM     16  C   UNL     1      -2.926   0.382   0.517  0.00  0.00    +0.000 C 
BRANCH  16  17
ATOM     17  C   UNL     1      -4.136  -0.260  -0.166  0.00  0.00    +0.000 C 
BRANCH  17  18
ATOM     18  C   UNL     1      -4.740  -1.418   0.632  0.00  0.00    +0.000 C 
ATOM     19  C   UNL     1      -5.985  -2.013  -0.008  0.00  0.00    +0.000 C 
ENDBRANCH  17  18
ENDBRANCH  16  17
ENDBRANCH  15  16
ENDBRANCH  14  15
ENDBRANCH   2  14
TORSDOF 7
