REMARK  Name = 62072773
REMARK  5 active torsions:
REMARK  status: ('A' for Active; 'I' for Inactive)
REMARK    1  A    between atoms: N_2  and  C_5
REMARK    2  A    between atoms: C_5  and  C_6
REMARK    3  A    between atoms: C_5  and  C_7
REMARK    4  A    between atoms: C_6  and  C_8
REMARK    5  A    between atoms: C_9  and  C_10
REMARK                            x       y       z     vdW  Elec       q    Type
REMARK                         _______ _______ _______ _____ _____    ______ ____
ROOT
ATOM      1  N   UNL     1       2.415  -1.058   0.862  0.00  0.00    +0.000 NA
ATOM      2  N   UNL     1       4.676  -0.858   0.139  0.00  0.00    +0.000 N 
ATOM      3  C   UNL     1       0.740   0.427  -0.049  0.00  0.00    +0.000 A 
ATOM      4  C   UNL     1       1.706   1.049  -0.832  0.00  0.00    +0.000 A 
ATOM      5  C   UNL     1       1.142  -0.612   0.774  0.00  0.00    +0.000 A 
ATOM      6  C   UNL     1       3.026   0.618  -0.770  0.00  0.00    +0.000 A 
ATOM      7  C   UNL     1       3.327  -0.430   0.086  0.00  0.00    +0.000 A 
ATOM      8  H   UNL     1       5.255  -0.730  -0.683  0.00  0.00    +0.000 HD
ATOM      9  H   UNL     1       4.890  -1.628   0.760  0.00  0.00    +0.000 HD
ENDROOT
BRANCH   3  12
ATOM     10  O   UNL     1      -0.942   2.020  -0.417  0.00  0.00    +0.000 OA
ATOM     11  N   UNL     1      -1.621  -0.104   0.222  0.00  0.00    +0.000 N 
ATOM     12  C   UNL     1      -0.680   0.864  -0.093  0.00  0.00    +0.000 C 
ATOM     13  H   UNL     1      -1.331  -1.042   0.477  0.00  0.00    +0.000 HD
BRANCH  11  14
ATOM     14  C   UNL     1      -3.041   0.160   0.200  0.00  0.00    +0.000 C 
ATOM     15  C   UNL     1      -3.483   0.709   1.552  0.00  0.00    +0.000 C 
BRANCH  14  16
ATOM     16  C   UNL     1      -3.837  -1.100  -0.164  0.00  0.00    +0.000 C 
ATOM     17  C   UNL     1      -3.429  -1.685  -1.510  0.00  0.00    +0.000 C 
ENDBRANCH  14  16
ENDBRANCH  11  14
ENDBRANCH   3  12
TORSDOF 3
