REMARK  Name = 62074199
REMARK  3 active torsions:
REMARK  status: ('A' for Active; 'I' for Inactive)
REMARK    1  A    between atoms: N_2  and  C_8
REMARK    2  A    between atoms: C_5  and  C_8
REMARK    3  A    between atoms: C_9  and  C_10
REMARK                            x       y       z     vdW  Elec       q    Type
REMARK                         _______ _______ _______ _____ _____    ______ ____
ROOT
ATOM      1  N   UNL     1       3.269  -0.860  -0.092  0.00  0.00    +0.000 NA
ATOM      2  N   UNL     1       4.834   0.937  -0.070  0.00  0.00    +0.000 N 
ATOM      3  C   UNL     1       0.902  -0.377   0.013  0.00  0.00    +0.000 A 
ATOM      4  C   UNL     1       1.176   0.986   0.062  0.00  0.00    +0.000 A 
ATOM      5  C   UNL     1       1.975  -1.251  -0.063  0.00  0.00    +0.000 A 
ATOM      6  C   UNL     1       2.494   1.427   0.034  0.00  0.00    +0.000 A 
ATOM      7  C   UNL     1       3.495   0.472  -0.043  0.00  0.00    +0.000 A 
ATOM      8  H   UNL     1       5.017   1.855  -0.457  0.00  0.00    +0.000 HD
ATOM      9  H   UNL     1       5.562   0.236  -0.133  0.00  0.00    +0.000 HD
ENDROOT
BRANCH   3  12
ATOM     10  O   UNL     1      -0.751  -1.968  -0.466  0.00  0.00    +0.000 OA
ATOM     11  N   UNL     1      -1.418  -0.063   0.676  0.00  0.00    +0.000 N 
ATOM     12  C   UNL     1      -0.464  -0.868   0.041  0.00  0.00    +0.000 C 
ATOM     13  H   UNL     1      -1.137   0.808   1.113  0.00  0.00    +0.000 HD
BRANCH  11  14
ATOM     14  C   UNL     1      -2.811  -0.424   0.806  0.00  0.00    +0.000 C 
BRANCH  14  15
ATOM     15  C   UNL     1      -3.606   0.069  -0.355  0.00  0.00    +0.000 C 
ATOM     16  C   UNL     1      -5.052   0.417  -0.158  0.00  0.00    +0.000 C 
ATOM     17  C   UNL     1      -4.043   1.504  -0.386  0.00  0.00    +0.000 C 
ENDBRANCH  14  15
ENDBRANCH  11  14
ENDBRANCH   3  12
TORSDOF 3
