REMARK  Name = 62073450
REMARK  7 active torsions:
REMARK  status: ('A' for Active; 'I' for Inactive)
REMARK    1  A    between atoms: N_2  and  C_5
REMARK    2  A    between atoms: N_2  and  C_6
REMARK    3  A    between atoms: C_5  and  C_7
REMARK    4  A    between atoms: C_6  and  C_8
REMARK    5  A    between atoms: C_7  and  C_10
REMARK    6  A    between atoms: C_8  and  C_11
REMARK    7  A    between atoms: C_9  and  C_12
REMARK                            x       y       z     vdW  Elec       q    Type
REMARK                         _______ _______ _______ _____ _____    ______ ____
ROOT
ATOM      1  O   UNL     1       0.936   1.931  -1.148  0.00  0.00    +0.000 OA
ATOM      2  N   UNL     1       1.585  -0.081  -0.149  0.00  0.00    +0.000 N 
ATOM      3  C   UNL     1       0.650   0.884  -0.568  0.00  0.00    +0.000 C 
ENDROOT
BRANCH   3   6
ATOM      4  N   UNL     1      -2.663   0.944   1.196  0.00  0.00    +0.000 NA
ATOM      5  N   UNL     1      -4.792   0.079   0.568  0.00  0.00    +0.000 N 
ATOM      6  C   UNL     1      -0.778   0.661  -0.292  0.00  0.00    +0.000 A 
ATOM      7  C   UNL     1      -1.588  -0.011  -1.202  0.00  0.00    +0.000 A 
ATOM      8  C   UNL     1      -1.359   1.115   0.881  0.00  0.00    +0.000 A 
ATOM      9  C   UNL     1      -2.934  -0.206  -0.913  0.00  0.00    +0.000 A 
ATOM     10  C   UNL     1      -3.418   0.286   0.288  0.00  0.00    +0.000 A 
ATOM     11  H   UNL     1      -5.143   0.446   1.444  0.00  0.00    +0.000 HD
ATOM     12  H   UNL     1      -5.435  -0.001  -0.210  0.00  0.00    +0.000 HD
ENDBRANCH   3   6
BRANCH   2  13
ATOM     13  C   UNL     1       1.173  -1.312   0.540  0.00  0.00    +0.000 C 
BRANCH  13  14
ATOM     14  C   UNL     1       0.891  -2.454  -0.429  0.00  0.00    +0.000 C 
ATOM     15  C   UNL     1       0.443  -3.727   0.275  0.00  0.00    +0.000 C 
ENDBRANCH  13  14
ENDBRANCH   2  13
BRANCH   2  16
ATOM     16  C   UNL     1       2.995   0.083  -0.371  0.00  0.00    +0.000 C 
BRANCH  16  17
ATOM     17  C   UNL     1       3.684   0.805   0.781  0.00  0.00    +0.000 C 
ATOM     18  C   UNL     1       5.175   1.003   0.544  0.00  0.00    +0.000 C 
ENDBRANCH  16  17
ENDBRANCH   2  16
TORSDOF 5
