REMARK  Name = 62073744
REMARK  3 active torsions:
REMARK  status: ('A' for Active; 'I' for Inactive)
REMARK    1  A    between atoms: N_2  and  C_5
REMARK    2  A    between atoms: C_5  and  C_9
REMARK    3  A    between atoms: C_6  and  C_7
REMARK                            x       y       z     vdW  Elec       q    Type
REMARK                         _______ _______ _______ _____ _____    ______ ____
ROOT
ATOM      1  N   UNL     1       2.279  -1.101   0.317  0.00  0.00    +0.000 NA
ATOM      2  N   UNL     1       4.196   0.314   0.308  0.00  0.00    +0.000 N 
ATOM      3  C   UNL     1       0.106  -0.162  -0.175  0.00  0.00    +0.000 A 
ATOM      4  C   UNL     1       0.679   1.094  -0.343  0.00  0.00    +0.000 A 
ATOM      5  C   UNL     1       0.943  -1.217   0.151  0.00  0.00    +0.000 A 
ATOM      6  C   UNL     1       2.051   1.254  -0.181  0.00  0.00    +0.000 A 
ATOM      7  C   UNL     1       2.800   0.135   0.146  0.00  0.00    +0.000 A 
ATOM      8  H   UNL     1       4.649   1.060  -0.206  0.00  0.00    +0.000 HD
ATOM      9  H   UNL     1       4.741  -0.507   0.541  0.00  0.00    +0.000 HD
ENDROOT
BRANCH   3  12
ATOM     10  O   UNL     1      -1.774  -1.474  -0.663  0.00  0.00    +0.000 OA
ATOM     11  N   UNL     1      -2.152   0.740  -0.090  0.00  0.00    +0.000 N 
ATOM     12  C   UNL     1      -1.323  -0.361  -0.338  0.00  0.00    +0.000 C 
ATOM     13  H   UNL     1      -1.750   1.613   0.236  0.00  0.00    +0.000 HD
BRANCH  11  14
ATOM     14  C   UNL     1      -3.593   0.695  -0.186  0.00  0.00    +0.000 C 
ATOM     15  C   UNL     1      -4.213   0.082   1.053  0.00  0.00    +0.000 C 
ENDBRANCH  11  14
ENDBRANCH   3  12
TORSDOF 2
