REMARK  Name = 62072611
REMARK  3 active torsions:
REMARK  status: ('A' for Active; 'I' for Inactive)
REMARK    1  A    between atoms: N_4  and  C_13
REMARK    2  A    between atoms: C_5  and  C_10
REMARK    3  A    between atoms: C_11  and  C_12
REMARK                            x       y       z     vdW  Elec       q    Type
REMARK                         _______ _______ _______ _____ _____    ______ ____
ROOT
ATOM      1  O   UNL     1       0.387   2.254   0.926  0.00  0.00    +0.000 OA
ATOM      2  N   UNL     1      -0.932   0.785  -0.326  0.00  0.00    +0.000 N 
ATOM      3  C   UNL     1      -3.468  -0.612  -0.407  0.00  0.00    +0.000 C 
ATOM      4  C   UNL     1      -2.133  -1.342  -0.627  0.00  0.00    +0.000 C 
ATOM      5  C   UNL     1      -3.257   0.638   0.461  0.00  0.00    +0.000 C 
ATOM      6  C   UNL     1      -1.074  -0.395  -1.188  0.00  0.00    +0.000 C 
ATOM      7  C   UNL     1      -2.167   1.540  -0.117  0.00  0.00    +0.000 C 
ATOM      8  C   UNL     1      -4.499  -1.544   0.224  0.00  0.00    +0.000 C 
ATOM      9  C   UNL     1       0.261   1.241   0.240  0.00  0.00    +0.000 C 
ENDROOT
BRANCH   9  11
ATOM     10  N   UNL     1       2.996  -1.305   0.696  0.00  0.00    +0.000 NA
ATOM     11  C   UNL     1       1.479   0.451   0.019  0.00  0.00    +0.000 A 
ATOM     12  C   UNL     1       1.879  -0.564   0.873  0.00  0.00    +0.000 A 
ATOM     13  C   UNL     1       2.276   0.724  -1.087  0.00  0.00    +0.000 A 
ATOM     14  C   UNL     1       3.433  -0.016  -1.302  0.00  0.00    +0.000 A 
ATOM     15  C   UNL     1       3.746  -1.011  -0.390  0.00  0.00    +0.000 A 
BRANCH  12  16
ATOM     16  N   UNL     1       1.073  -0.846   2.005  0.00  0.00    +0.000 N 
ATOM     17  H   UNL     1       1.388  -1.595   2.610  0.00  0.00    +0.000 HD
ATOM     18  H   UNL     1       0.545  -0.091   2.426  0.00  0.00    +0.000 HD
ENDBRANCH  12  16
ENDBRANCH   9  11
TORSDOF 2
