REMARK  Name = 62074491
REMARK  6 active torsions:
REMARK  status: ('A' for Active; 'I' for Inactive)
REMARK    1  A    between atoms: N_2  and  C_7
REMARK    2  A    between atoms: C_5  and  C_6
REMARK    3  A    between atoms: C_5  and  C_8
REMARK    4  A    between atoms: C_5  and  C_9
REMARK    5  A    between atoms: C_6  and  C_7
REMARK    6  A    between atoms: C_10  and  C_11
REMARK                            x       y       z     vdW  Elec       q    Type
REMARK                         _______ _______ _______ _____ _____    ______ ____
ROOT
ATOM      1  O   UNL     1       0.243  -2.239   0.590  0.00  0.00    +0.000 OA
ATOM      2  N   UNL     1       1.123  -0.564  -0.753  0.00  0.00    +0.000 N 
ATOM      3  C   UNL     1       0.116  -1.177  -0.015  0.00  0.00    +0.000 C 
ATOM      4  H   UNL     1       0.935   0.287  -1.271  0.00  0.00    +0.000 HD
ENDROOT
BRANCH   3   7
ATOM      5  N   UNL     1      -3.603  -0.626   0.215  0.00  0.00    +0.000 NA
ATOM      6  N   UNL     1      -4.910   1.360   0.057  0.00  0.00    +0.000 N 
ATOM      7  C   UNL     1      -1.199  -0.486  -0.000  0.00  0.00    +0.000 A 
ATOM      8  C   UNL     1      -1.287   0.890  -0.177  0.00  0.00    +0.000 A 
ATOM      9  C   UNL     1      -2.376  -1.192   0.190  0.00  0.00    +0.000 A 
ATOM     10  C   UNL     1      -2.532   1.510  -0.158  0.00  0.00    +0.000 A 
ATOM     11  C   UNL     1      -3.649   0.714   0.040  0.00  0.00    +0.000 A 
ATOM     12  H   UNL     1      -5.723   0.775   0.207  0.00  0.00    +0.000 HD
ATOM     13  H   UNL     1      -4.953   2.327   0.355  0.00  0.00    +0.000 HD
ENDBRANCH   3   7
BRANCH   2  14
ATOM     14  C   UNL     1       2.440  -1.122  -0.883  0.00  0.00    +0.000 C 
BRANCH  14  15
ATOM     15  C   UNL     1       3.388  -0.644   0.213  0.00  0.00    +0.000 C 
BRANCH  15  16
ATOM     16  C   UNL     1       3.586   0.883   0.284  0.00  0.00    +0.000 C 
ATOM     17  C   UNL     1       4.161   1.392  -1.040  0.00  0.00    +0.000 C 
ATOM     18  C   UNL     1       4.499   1.301   1.438  0.00  0.00    +0.000 C 
ENDBRANCH  15  16
ENDBRANCH  14  15
ENDBRANCH   2  14
TORSDOF 4
