REMARK  Name = 62075007
REMARK  2 active torsions:
REMARK  status: ('A' for Active; 'I' for Inactive)
REMARK    1  A    between atoms: N_2  and  C_5
REMARK    2  A    between atoms: C_10  and  C_11
REMARK                            x       y       z     vdW  Elec       q    Type
REMARK                         _______ _______ _______ _____ _____    ______ ____
ROOT
ATOM      1  O   UNL     1      -0.416  -2.206  -0.449  0.00  0.00    +0.000 OA
ATOM      2  N   UNL     1      -1.312  -0.070  -0.330  0.00  0.00    +0.000 N 
ATOM      3  C   UNL     1      -0.274  -0.992  -0.338  0.00  0.00    +0.000 C 
ATOM      4  H   UNL     1      -1.121   0.907  -0.135  0.00  0.00    +0.000 HD
ENDROOT
BRANCH   3   7
ATOM      5  N   UNL     1       3.377  -0.745   0.554  0.00  0.00    +0.000 NA
ATOM      6  N   UNL     1       4.934   1.044   0.324  0.00  0.00    +0.000 N 
ATOM      7  C   UNL     1       1.093  -0.433  -0.173  0.00  0.00    +0.000 A 
ATOM      8  C   UNL     1       1.387   0.868  -0.566  0.00  0.00    +0.000 A 
ATOM      9  C   UNL     1       2.113  -1.192   0.377  0.00  0.00    +0.000 A 
ATOM     10  C   UNL     1       2.676   1.363  -0.399  0.00  0.00    +0.000 A 
ATOM     11  C   UNL     1       3.626   0.524   0.161  0.00  0.00    +0.000 A 
ATOM     12  H   UNL     1       5.249   1.766  -0.312  0.00  0.00    +0.000 HD
ATOM     13  H   UNL     1       5.627   0.425   0.728  0.00  0.00    +0.000 HD
ENDBRANCH   3   7
BRANCH   2  14
ATOM     14  C   UNL     1      -2.695  -0.459  -0.454  0.00  0.00    +0.000 C 
ATOM     15  C   UNL     1      -3.538   0.650  -1.069  0.00  0.00    +0.000 C 
ATOM     16  C   UNL     1      -3.351  -0.668   0.905  0.00  0.00    +0.000 C 
ATOM     17  C   UNL     1      -3.850   1.586   0.095  0.00  0.00    +0.000 C 
ATOM     18  C   UNL     1      -3.772   0.729   1.359  0.00  0.00    +0.000 C 
ENDBRANCH   2  14
TORSDOF 2
