REMARK  Name = 62072664
REMARK  4 active torsions:
REMARK  status: ('A' for Active; 'I' for Inactive)
REMARK    1  A    between atoms: N_2  and  C_7
REMARK    2  A    between atoms: C_6  and  C_7
REMARK    3  A    between atoms: C_6  and  C_8
REMARK    4  A    between atoms: C_9  and  C_11
REMARK                            x       y       z     vdW  Elec       q    Type
REMARK                         _______ _______ _______ _____ _____    ______ ____
ROOT
ATOM      1  O   UNL     1       0.950  -2.590  -0.741  0.00  0.00    +0.000 OA
ATOM      2  N   UNL     1      -0.288  -1.263   0.703  0.00  0.00    +0.000 N 
ATOM      3  C   UNL     1       0.853  -1.555  -0.056  0.00  0.00    +0.000 C 
ATOM      4  H   UNL     1      -0.308  -0.436   1.289  0.00  0.00    +0.000 HD
ENDROOT
BRANCH   3   7
ATOM      5  N   UNL     1       4.319  -0.168  -0.175  0.00  0.00    +0.000 NA
ATOM      6  N   UNL     1       5.132   2.047   0.152  0.00  0.00    +0.000 N 
ATOM      7  C   UNL     1       1.947  -0.602   0.003  0.00  0.00    +0.000 A 
ATOM      8  C   UNL     1       1.715   0.740   0.281  0.00  0.00    +0.000 A 
ATOM      9  C   UNL     1       3.255  -1.002  -0.216  0.00  0.00    +0.000 A 
ATOM     10  C   UNL     1       2.783   1.629   0.331  0.00  0.00    +0.000 A 
ATOM     11  C   UNL     1       4.054   1.129   0.098  0.00  0.00    +0.000 A 
ATOM     12  H   UNL     1       4.951   3.017  -0.074  0.00  0.00    +0.000 HD
ATOM     13  H   UNL     1       6.059   1.679  -0.025  0.00  0.00    +0.000 HD
ENDBRANCH   3   7
BRANCH   2  14
ATOM     14  C   UNL     1      -1.448  -2.122   0.767  0.00  0.00    +0.000 C 
BRANCH  14  15
ATOM     15  C   UNL     1      -2.480  -1.794  -0.310  0.00  0.00    +0.000 C 
BRANCH  15  17
ATOM     16  N   UNL     1      -4.592   1.201   0.650  0.00  0.00    +0.000 NA
ATOM     17  C   UNL     1      -2.982  -0.374  -0.230  0.00  0.00    +0.000 A 
ATOM     18  C   UNL     1      -2.347   0.651  -0.923  0.00  0.00    +0.000 A 
ATOM     19  C   UNL     1      -4.091  -0.049   0.535  0.00  0.00    +0.000 A 
ATOM     20  C   UNL     1      -2.833   1.951  -0.830  0.00  0.00    +0.000 A 
ATOM     21  C   UNL     1      -3.948   2.171  -0.037  0.00  0.00    +0.000 A 
ENDBRANCH  15  17
ENDBRANCH  14  15
ENDBRANCH   2  14
TORSDOF 4
