REMARK  Name = 62072404
REMARK  3 active torsions:
REMARK  status: ('A' for Active; 'I' for Inactive)
REMARK    1  A    between atoms: N_5  and  C_8
REMARK    2  A    between atoms: C_8  and  C_11
REMARK    3  A    between atoms: C_9  and  C_10
REMARK                            x       y       z     vdW  Elec       q    Type
REMARK                         _______ _______ _______ _____ _____    ______ ____
ROOT
ATOM      1  N   UNL     1       3.171  -0.962   0.625  0.00  0.00    +0.000 NA
ATOM      2  N   UNL     1       5.032   0.525   0.573  0.00  0.00    +0.000 N 
ATOM      3  C   UNL     1       1.057  -0.253  -0.310  0.00  0.00    +0.000 A 
ATOM      4  C   UNL     1       1.611   0.976  -0.651  0.00  0.00    +0.000 A 
ATOM      5  C   UNL     1       1.871  -1.179   0.321  0.00  0.00    +0.000 A 
ATOM      6  C   UNL     1       2.945   1.237  -0.355  0.00  0.00    +0.000 A 
ATOM      7  C   UNL     1       3.675   0.244   0.278  0.00  0.00    +0.000 A 
ATOM      8  H   UNL     1       5.528   1.180  -0.018  0.00  0.00    +0.000 HD
ATOM      9  H   UNL     1       5.563  -0.206   1.030  0.00  0.00    +0.000 HD
ENDROOT
BRANCH   3  12
ATOM     10  O   UNL     1      -0.706  -1.733  -0.758  0.00  0.00    +0.000 OA
ATOM     11  N   UNL     1      -1.217   0.527  -0.686  0.00  0.00    +0.000 N 
ATOM     12  C   UNL     1      -0.333  -0.556  -0.606  0.00  0.00    +0.000 C 
ATOM     13  H   UNL     1      -0.887   1.467  -0.495  0.00  0.00    +0.000 HD
BRANCH  11  14
ATOM     14  C   UNL     1      -2.631   0.387  -0.950  0.00  0.00    +0.000 C 
BRANCH  14  18
ATOM     15  F   UNL     1      -3.272   1.308   1.130  0.00  0.00    +0.000 F 
ATOM     16  F   UNL     1      -4.740   0.108   0.052  0.00  0.00    +0.000 F 
ATOM     17  F   UNL     1      -3.041  -0.863   1.013  0.00  0.00    +0.000 F 
ATOM     18  C   UNL     1      -3.422   0.234   0.325  0.00  0.00    +0.000 C 
ENDBRANCH  14  18
ENDBRANCH  11  14
ENDBRANCH   3  12
TORSDOF 3
