REMARK  Name = 62074318
REMARK  4 active torsions:
REMARK  status: ('A' for Active; 'I' for Inactive)
REMARK    1  A    between atoms: N_2  and  C_5
REMARK    2  A    between atoms: N_2  and  C_8
REMARK    3  A    between atoms: C_5  and  C_6
REMARK    4  A    between atoms: C_7  and  C_9
REMARK                            x       y       z     vdW  Elec       q    Type
REMARK                         _______ _______ _______ _____ _____    ______ ____
ROOT
ATOM      1  O   UNL     1      -0.188  -1.046  -1.818  0.00  0.00    +0.000 OA
ATOM      2  N   UNL     1       0.401  -1.081   0.444  0.00  0.00    +0.000 N 
ATOM      3  C   UNL     1      -0.456  -0.839  -0.635  0.00  0.00    +0.000 C 
ATOM      4  C   UNL     1       0.010  -0.810   1.820  0.00  0.00    +0.000 C 
ENDROOT
BRANCH   3   7
ATOM      5  N   UNL     1      -4.123  -0.653   0.143  0.00  0.00    +0.000 NA
ATOM      6  N   UNL     1      -5.573   1.215   0.433  0.00  0.00    +0.000 N 
ATOM      7  C   UNL     1      -1.788  -0.278  -0.357  0.00  0.00    +0.000 A 
ATOM      8  C   UNL     1      -1.994   1.097  -0.326  0.00  0.00    +0.000 A 
ATOM      9  C   UNL     1      -2.875  -1.103  -0.118  0.00  0.00    +0.000 A 
ATOM     10  C   UNL     1      -3.264   1.597  -0.061  0.00  0.00    +0.000 A 
ATOM     11  C   UNL     1      -4.285   0.689   0.164  0.00  0.00    +0.000 A 
ATOM     12  H   UNL     1      -5.641   2.127   0.867  0.00  0.00    +0.000 HD
ATOM     13  H   UNL     1      -6.316   0.547   0.604  0.00  0.00    +0.000 HD
ENDBRANCH   3   7
BRANCH   2  14
ATOM     14  C   UNL     1       1.747  -1.622   0.263  0.00  0.00    +0.000 C 
BRANCH  14  15
ATOM     15  C   UNL     1       2.775  -0.536   0.131  0.00  0.00    +0.000 A 
ATOM     16  C   UNL     1       3.094  -0.027  -1.128  0.00  0.00    +0.000 A 
ATOM     17  C   UNL     1       3.412  -0.037   1.267  0.00  0.00    +0.000 A 
ATOM     18  C   UNL     1       4.050   0.982  -1.251  0.00  0.00    +0.000 A 
ATOM     19  C   UNL     1       4.368   0.971   1.144  0.00  0.00    +0.000 A 
ATOM     20  C   UNL     1       4.687   1.481  -0.115  0.00  0.00    +0.000 A 
ENDBRANCH  14  15
ENDBRANCH   2  14
TORSDOF 3
