REMARK  Name = 62074661
REMARK  7 active torsions:
REMARK  status: ('A' for Active; 'I' for Inactive)
REMARK    1  A    between atoms: N_2  and  C_8
REMARK    2  A    between atoms: C_5  and  C_6
REMARK    3  A    between atoms: C_5  and  C_7
REMARK    4  A    between atoms: C_6  and  C_8
REMARK    5  A    between atoms: C_7  and  C_9
REMARK    6  A    between atoms: C_9  and  C_10
REMARK    7  A    between atoms: C_11  and  C_12
REMARK                            x       y       z     vdW  Elec       q    Type
REMARK                         _______ _______ _______ _____ _____    ______ ____
ROOT
ATOM      1  O   UNL     1       0.547   2.299  -1.090  0.00  0.00    +0.000 OA
ATOM      2  N   UNL     1      -0.398   1.278   0.766  0.00  0.00    +0.000 N 
ATOM      3  C   UNL     1       0.588   1.457  -0.198  0.00  0.00    +0.000 C 
ATOM      4  H   UNL     1      -0.327   0.524   1.441  0.00  0.00    +0.000 HD
ENDROOT
BRANCH   3   7
ATOM      5  N   UNL     1       3.172  -0.897   1.207  0.00  0.00    +0.000 NA
ATOM      6  N   UNL     1       4.966  -2.067   0.162  0.00  0.00    +0.000 N 
ATOM      7  C   UNL     1       1.747   0.530  -0.127  0.00  0.00    +0.000 A 
ATOM      8  C   UNL     1       2.482   0.213  -1.264  0.00  0.00    +0.000 A 
ATOM      9  C   UNL     1       2.129  -0.047   1.073  0.00  0.00    +0.000 A 
ATOM     10  C   UNL     1       3.562  -0.658  -1.167  0.00  0.00    +0.000 A 
ATOM     11  C   UNL     1       3.863  -1.181   0.080  0.00  0.00    +0.000 A 
ATOM     12  H   UNL     1       5.178  -2.452   1.074  0.00  0.00    +0.000 HD
ATOM     13  H   UNL     1       5.209  -2.611  -0.656  0.00  0.00    +0.000 HD
ENDBRANCH   3   7
BRANCH   2  14
ATOM     14  C   UNL     1      -1.590   2.079   0.814  0.00  0.00    +0.000 C 
BRANCH  14  15
ATOM     15  C   UNL     1      -2.730   1.484  -0.006  0.00  0.00    +0.000 C 
BRANCH  15  16
ATOM     16  C   UNL     1      -3.151   0.097   0.492  0.00  0.00    +0.000 C 
BRANCH  16  17
ATOM     17  C   UNL     1      -4.335  -0.444  -0.314  0.00  0.00    +0.000 C 
BRANCH  17  18
ATOM     18  C   UNL     1      -4.816  -1.816   0.162  0.00  0.00    +0.000 C 
ATOM     19  C   UNL     1      -6.036  -2.326  -0.589  0.00  0.00    +0.000 C 
ENDBRANCH  17  18
ENDBRANCH  16  17
ENDBRANCH  15  16
ENDBRANCH  14  15
ENDBRANCH   2  14
TORSDOF 6
