REMARK  Name = 62072944
REMARK  4 active torsions:
REMARK  status: ('A' for Active; 'I' for Inactive)
REMARK    1  A    between atoms: N_2  and  C_6
REMARK    2  A    between atoms: N_5  and  C_12
REMARK    3  A    between atoms: C_6  and  C_7
REMARK    4  A    between atoms: C_8  and  C_9
REMARK                            x       y       z     vdW  Elec       q    Type
REMARK                         _______ _______ _______ _____ _____    ______ ____
ROOT
ATOM      1  O   UNL     1      -0.462   1.831  -0.926  0.00  0.00    +0.000 OA
ATOM      2  N   UNL     1       0.075   0.709   1.030  0.00  0.00    +0.000 N 
ATOM      3  C   UNL     1      -0.773   1.018  -0.038  0.00  0.00    +0.000 C 
ATOM      4  H   UNL     1      -0.236   0.034   1.724  0.00  0.00    +0.000 HD
ENDROOT
BRANCH   3   6
ATOM      5  N   UNL     1      -3.405  -1.655  -0.144  0.00  0.00    +0.000 NA
ATOM      6  C   UNL     1      -2.071   0.360  -0.063  0.00  0.00    +0.000 A 
ATOM      7  C   UNL     1      -2.213  -1.018  -0.117  0.00  0.00    +0.000 A 
ATOM      8  C   UNL     1      -3.227   1.132  -0.033  0.00  0.00    +0.000 A 
ATOM      9  C   UNL     1      -4.471   0.512  -0.059  0.00  0.00    +0.000 A 
ATOM     10  C   UNL     1      -4.506  -0.872  -0.114  0.00  0.00    +0.000 A 
BRANCH   7  11
ATOM     11  N   UNL     1      -1.039  -1.812  -0.151  0.00  0.00    +0.000 N 
ATOM     12  H   UNL     1      -0.207  -1.431  -0.584  0.00  0.00    +0.000 HD
ATOM     13  H   UNL     1      -1.172  -2.815  -0.188  0.00  0.00    +0.000 HD
ENDBRANCH   7  11
ENDBRANCH   3   6
BRANCH   2  14
ATOM     14  C   UNL     1       1.383   1.296   1.207  0.00  0.00    +0.000 C 
BRANCH  14  16
ATOM     15  N   UNL     1       4.454  -1.000  -0.732  0.00  0.00    +0.000 NA
ATOM     16  C   UNL     1       2.456   0.494   0.530  0.00  0.00    +0.000 A 
ATOM     17  C   UNL     1       2.896  -0.700   1.092  0.00  0.00    +0.000 A 
ATOM     18  C   UNL     1       3.014   0.941  -0.662  0.00  0.00    +0.000 A 
ATOM     19  C   UNL     1       3.888  -1.403   0.428  0.00  0.00    +0.000 A 
ATOM     20  C   UNL     1       4.002   0.165  -1.248  0.00  0.00    +0.000 A 
ENDBRANCH  14  16
ENDBRANCH   2  14
TORSDOF 4
