REMARK  Name = 62073119
REMARK  6 active torsions:
REMARK  status: ('A' for Active; 'I' for Inactive)
REMARK    1  A    between atoms: N_2  and  C_5
REMARK    2  A    between atoms: C_5  and  C_6
REMARK    3  A    between atoms: C_5  and  C_8
REMARK    4  A    between atoms: C_6  and  C_7
REMARK    5  A    between atoms: C_7  and  C_9
REMARK    6  A    between atoms: C_10  and  C_11
REMARK                            x       y       z     vdW  Elec       q    Type
REMARK                         _______ _______ _______ _____ _____    ______ ____
ROOT
ATOM      1  O   UNL     1      -0.399   2.016  -1.053  0.00  0.00    +0.000 OA
ATOM      2  N   UNL     1      -1.307   0.387   0.324  0.00  0.00    +0.000 N 
ATOM      3  C   UNL     1      -0.269   1.033  -0.330  0.00  0.00    +0.000 C 
ATOM      4  H   UNL     1      -1.126  -0.424   0.906  0.00  0.00    +0.000 HD
ENDROOT
BRANCH   3   7
ATOM      5  N   UNL     1       3.320   0.092  -0.981  0.00  0.00    +0.000 NA
ATOM      6  N   UNL     1       4.880  -1.152   0.320  0.00  0.00    +0.000 N 
ATOM      7  C   UNL     1       1.082   0.447  -0.136  0.00  0.00    +0.000 A 
ATOM      8  C   UNL     1       1.395  -0.271   1.013  0.00  0.00    +0.000 A 
ATOM      9  C   UNL     1       2.071   0.599  -1.095  0.00  0.00    +0.000 A 
ATOM     10  C   UNL     1       2.669  -0.808   1.166  0.00  0.00    +0.000 A 
ATOM     11  C   UNL     1       3.586  -0.600   0.149  0.00  0.00    +0.000 A 
ATOM     12  H   UNL     1       5.549  -0.993  -0.423  0.00  0.00    +0.000 HD
ATOM     13  H   UNL     1       5.230  -1.278   1.261  0.00  0.00    +0.000 HD
ENDBRANCH   3   7
BRANCH   2  14
ATOM     14  C   UNL     1      -2.680   0.821   0.215  0.00  0.00    +0.000 C 
ATOM     15  C   UNL     1      -2.971   1.880   1.274  0.00  0.00    +0.000 C 
BRANCH  14  16
ATOM     16  C   UNL     1      -3.653  -0.360   0.344  0.00  0.00    +0.000 C 
BRANCH  16  17
ATOM     17  C   UNL     1      -3.382  -1.458  -0.689  0.00  0.00    +0.000 C 
ATOM     18  C   UNL     1      -4.341  -2.627  -0.520  0.00  0.00    +0.000 C 
ENDBRANCH  16  17
ENDBRANCH  14  16
ENDBRANCH   2  14
TORSDOF 4
