REMARK  Name = 62072598
REMARK  6 active torsions:
REMARK  status: ('A' for Active; 'I' for Inactive)
REMARK    1  A    between atoms: O_1  and  C_7
REMARK    2  A    between atoms: O_1  and  C_14
REMARK    3  A    between atoms: N_3  and  C_6
REMARK    4  A    between atoms: N_5  and  C_10
REMARK    5  A    between atoms: C_6  and  C_7
REMARK    6  A    between atoms: C_8  and  C_9
REMARK                            x       y       z     vdW  Elec       q    Type
REMARK                         _______ _______ _______ _____ _____    ______ ____
ROOT
ATOM      1  N   UNL     1      -2.556  -1.615   0.004  0.00  0.00    +0.000 NA
ATOM      2  C   UNL     1      -1.219   0.398  -0.081  0.00  0.00    +0.000 A 
ATOM      3  C   UNL     1      -1.371  -0.979  -0.129  0.00  0.00    +0.000 A 
ATOM      4  C   UNL     1      -2.357   1.171   0.118  0.00  0.00    +0.000 A 
ATOM      5  C   UNL     1      -3.595   0.553   0.260  0.00  0.00    +0.000 A 
ATOM      6  C   UNL     1      -3.640  -0.830   0.196  0.00  0.00    +0.000 A 
ENDROOT
BRANCH   2   9
ATOM      7  O   UNL     1       0.257   1.876  -1.145  0.00  0.00    +0.000 OA
ATOM      8  N   UNL     1       1.059   0.732   0.706  0.00  0.00    +0.000 N 
ATOM      9  C   UNL     1       0.072   1.054  -0.231  0.00  0.00    +0.000 C 
ATOM     10  H   UNL     1       0.845   0.054   1.431  0.00  0.00    +0.000 HD
BRANCH   8  11
ATOM     11  C   UNL     1       2.381   1.316   0.704  0.00  0.00    +0.000 C 
BRANCH  11  12
ATOM     12  C   UNL     1       3.349   0.503  -0.136  0.00  0.00    +0.000 C 
BRANCH  12  13
ATOM     13  O   UNL     1       3.467  -0.803   0.410  0.00  0.00    +0.000 OA
ATOM     14  C   UNL     1       4.369  -1.604  -0.341  0.00  0.00    +0.000 C 
ENDBRANCH  12  13
ENDBRANCH  11  12
ENDBRANCH   8  11
ENDBRANCH   2   9
BRANCH   3  15
ATOM     15  N   UNL     1      -0.215  -1.774  -0.334  0.00  0.00    +0.000 N 
ATOM     16  H   UNL     1       0.549  -1.390  -0.875  0.00  0.00    +0.000 HD
ATOM     17  H   UNL     1      -0.355  -2.777  -0.363  0.00  0.00    +0.000 HD
ENDBRANCH   3  15
TORSDOF 5
