REMARK  Name = 62072405
REMARK  4 active torsions:
REMARK  status: ('A' for Active; 'I' for Inactive)
REMARK    1  A    between atoms: N_5  and  C_8
REMARK    2  A    between atoms: N_7  and  C_12
REMARK    3  A    between atoms: C_8  and  C_11
REMARK    4  A    between atoms: C_9  and  C_10
REMARK                            x       y       z     vdW  Elec       q    Type
REMARK                         _______ _______ _______ _____ _____    ______ ____
ROOT
ATOM      1  N   UNL     1      -3.264   0.997   0.521  0.00  0.00    +0.000 NA
ATOM      2  C   UNL     1      -1.338  -0.222  -0.286  0.00  0.00    +0.000 A 
ATOM      3  C   UNL     1      -1.989   0.947   0.072  0.00  0.00    +0.000 A 
ATOM      4  C   UNL     1      -2.040  -1.418  -0.176  0.00  0.00    +0.000 A 
ATOM      5  C   UNL     1      -3.353  -1.407   0.281  0.00  0.00    +0.000 A 
ATOM      6  C   UNL     1      -3.914  -0.184   0.614  0.00  0.00    +0.000 A 
ENDROOT
BRANCH   2   9
ATOM      7  O   UNL     1       0.361   0.392  -1.780  0.00  0.00    +0.000 OA
ATOM      8  N   UNL     1       0.956  -0.987  -0.013  0.00  0.00    +0.000 N 
ATOM      9  C   UNL     1       0.038  -0.245  -0.763  0.00  0.00    +0.000 C 
ATOM     10  H   UNL     1       0.633  -1.470   0.821  0.00  0.00    +0.000 HD
BRANCH   8  11
ATOM     11  C   UNL     1       2.359  -1.088  -0.344  0.00  0.00    +0.000 C 
BRANCH  11  15
ATOM     12  F   UNL     1       3.069  -0.064   1.664  0.00  0.00    +0.000 F 
ATOM     13  F   UNL     1       4.473  -0.117  -0.004  0.00  0.00    +0.000 F 
ATOM     14  F   UNL     1       2.757   1.226  -0.073  0.00  0.00    +0.000 F 
ATOM     15  C   UNL     1       3.166   0.001   0.319  0.00  0.00    +0.000 C 
ENDBRANCH  11  15
ENDBRANCH   8  11
ENDBRANCH   2   9
BRANCH   3  16
ATOM     16  N   UNL     1      -1.279   2.170  -0.034  0.00  0.00    +0.000 N 
ATOM     17  H   UNL     1      -0.276   2.161   0.102  0.00  0.00    +0.000 HD
ATOM     18  H   UNL     1      -1.781   3.008   0.232  0.00  0.00    +0.000 HD
ENDBRANCH   3  16
TORSDOF 4
