REMARK  Name = 62073107
REMARK  5 active torsions:
REMARK  status: ('A' for Active; 'I' for Inactive)
REMARK    1  A    between atoms: N_2  and  C_6
REMARK    2  A    between atoms: N_4  and  C_14
REMARK    3  A    between atoms: C_5  and  C_6
REMARK    4  A    between atoms: C_5  and  C_7
REMARK    5  A    between atoms: C_10  and  C_11
REMARK                            x       y       z     vdW  Elec       q    Type
REMARK                         _______ _______ _______ _____ _____    ______ ____
ROOT
ATOM      1  O   UNL     1       1.354   2.312  -0.818  0.00  0.00    +0.000 OA
ATOM      2  N   UNL     1      -0.031   1.253   0.712  0.00  0.00    +0.000 N 
ATOM      3  C   UNL     1       1.139   1.401  -0.023  0.00  0.00    +0.000 C 
ATOM      4  H   UNL     1      -0.130   0.457   1.336  0.00  0.00    +0.000 HD
ENDROOT
BRANCH   3   6
ATOM      5  N   UNL     1       3.569  -1.414  -0.708  0.00  0.00    +0.000 NA
ATOM      6  C   UNL     1       2.171   0.350   0.174  0.00  0.00    +0.000 A 
ATOM      7  C   UNL     1       2.634  -0.449  -0.859  0.00  0.00    +0.000 A 
ATOM      8  C   UNL     1       2.703   0.147   1.443  0.00  0.00    +0.000 A 
ATOM      9  C   UNL     1       3.667  -0.835   1.637  0.00  0.00    +0.000 A 
ATOM     10  C   UNL     1       4.063  -1.582   0.539  0.00  0.00    +0.000 A 
BRANCH   7  11
ATOM     11  N   UNL     1       2.095  -0.250  -2.155  0.00  0.00    +0.000 N 
ATOM     12  H   UNL     1       1.139   0.074  -2.237  0.00  0.00    +0.000 HD
ATOM     13  H   UNL     1       2.454  -0.847  -2.890  0.00  0.00    +0.000 HD
ENDBRANCH   7  11
ENDBRANCH   3   6
BRANCH   2  14
ATOM     14  C   UNL     1      -1.132   2.173   0.612  0.00  0.00    +0.000 C 
BRANCH  14  15
ATOM     15  C   UNL     1      -2.135   1.766  -0.473  0.00  0.00    +0.000 C 
BRANCH  15  16
ATOM     16  C   UNL     1      -2.763   0.434  -0.236  0.00  0.00    +0.000 A 
ATOM     17  C   UNL     1      -2.167  -0.719  -0.748  0.00  0.00    +0.000 A 
ATOM     18  C   UNL     1      -3.945   0.341   0.498  0.00  0.00    +0.000 A 
ATOM     19  C   UNL     1      -2.754  -1.965  -0.526  0.00  0.00    +0.000 A 
ATOM     20  C   UNL     1      -4.532  -0.905   0.721  0.00  0.00    +0.000 A 
ATOM     21  C   UNL     1      -3.936  -2.058   0.208  0.00  0.00    +0.000 A 
ENDBRANCH  15  16
ENDBRANCH  14  15
ENDBRANCH   2  14
TORSDOF 5
