REMARK  Name = 62074657
REMARK  3 active torsions:
REMARK  status: ('A' for Active; 'I' for Inactive)
REMARK    1  A    between atoms: N_2  and  C_5
REMARK    2  A    between atoms: C_5  and  C_6
REMARK    3  A    between atoms: C_7  and  C_8
REMARK                            x       y       z     vdW  Elec       q    Type
REMARK                         _______ _______ _______ _____ _____    ______ ____
ROOT
ATOM      1  O   UNL     1       0.094   1.943   0.724  0.00  0.00    +0.000 OA
ATOM      2  N   UNL     1      -0.394  -0.270   1.218  0.00  0.00    +0.000 N 
ATOM      3  C   UNL     1       0.421   0.760   0.769  0.00  0.00    +0.000 C 
ATOM      4  H   UNL     1      -0.085  -1.234   1.161  0.00  0.00    +0.000 HD
ENDROOT
BRANCH   3   7
ATOM      5  N   UNL     1       3.617  -1.196   0.390  0.00  0.00    +0.000 NA
ATOM      6  N   UNL     1       5.535  -0.826  -0.974  0.00  0.00    +0.000 N 
ATOM      7  C   UNL     1       1.771   0.362   0.294  0.00  0.00    +0.000 A 
ATOM      8  C   UNL     1       2.451   1.121  -0.652  0.00  0.00    +0.000 A 
ATOM      9  C   UNL     1       2.392  -0.778   0.779  0.00  0.00    +0.000 A 
ATOM     10  C   UNL     1       3.714   0.723  -1.077  0.00  0.00    +0.000 A 
ATOM     11  C   UNL     1       4.248  -0.433  -0.530  0.00  0.00    +0.000 A 
ATOM     12  H   UNL     1       5.825  -0.559  -1.907  0.00  0.00    +0.000 HD
ATOM     13  H   UNL     1       5.919  -1.674  -0.576  0.00  0.00    +0.000 HD
ENDBRANCH   3   7
BRANCH   2  14
ATOM     14  C   UNL     1      -1.739  -0.047   1.686  0.00  0.00    +0.000 C 
BRANCH  14  15
ATOM     15  C   UNL     1      -2.744  -0.140   0.589  0.00  0.00    +0.000 A 
ATOM     16  C   UNL     1      -3.093   1.000  -0.137  0.00  0.00    +0.000 A 
ATOM     17  C   UNL     1      -3.337  -1.366   0.288  0.00  0.00    +0.000 A 
ATOM     18  C   UNL     1      -4.033   0.913  -1.163  0.00  0.00    +0.000 A 
ATOM     19  C   UNL     1      -4.277  -1.453  -0.738  0.00  0.00    +0.000 A 
ATOM     20  C   UNL     1      -4.626  -0.314  -1.464  0.00  0.00    +0.000 A 
ENDBRANCH  14  15
ENDBRANCH   2  14
TORSDOF 3
