REMARK  Name = 62075008
REMARK  3 active torsions:
REMARK  status: ('A' for Active; 'I' for Inactive)
REMARK    1  A    between atoms: N_2  and  C_5
REMARK    2  A    between atoms: N_4  and  C_12
REMARK    3  A    between atoms: C_10  and  C_11
REMARK                            x       y       z     vdW  Elec       q    Type
REMARK                         _______ _______ _______ _____ _____    ______ ____
ROOT
ATOM      1  O   UNL     1      -0.012  -1.864  -1.252  0.00  0.00    +0.000 OA
ATOM      2  N   UNL     1      -1.000  -0.379   0.230  0.00  0.00    +0.000 N 
ATOM      3  C   UNL     1       0.074  -0.946  -0.440  0.00  0.00    +0.000 C 
ATOM      4  H   UNL     1      -0.832   0.398   0.864  0.00  0.00    +0.000 HD
ENDROOT
BRANCH   3   6
ATOM      5  N   UNL     1       2.955   1.464  -0.011  0.00  0.00    +0.000 NA
ATOM      6  C   UNL     1       1.413  -0.395  -0.107  0.00  0.00    +0.000 A 
ATOM      7  C   UNL     1       1.745   0.936  -0.302  0.00  0.00    +0.000 A 
ATOM      8  C   UNL     1       2.385  -1.238   0.420  0.00  0.00    +0.000 A 
ATOM      9  C   UNL     1       3.642  -0.732   0.732  0.00  0.00    +0.000 A 
ATOM     10  C   UNL     1       3.874   0.614   0.499  0.00  0.00    +0.000 A 
BRANCH   7  11
ATOM     11  N   UNL     1       0.761   1.802  -0.841  0.00  0.00    +0.000 N 
ATOM     12  H   UNL     1       0.068   1.417  -1.472  0.00  0.00    +0.000 HD
ATOM     13  H   UNL     1       1.030   2.769  -0.971  0.00  0.00    +0.000 HD
ENDBRANCH   7  11
ENDBRANCH   3   6
BRANCH   2  14
ATOM     14  C   UNL     1      -2.358  -0.822   0.034  0.00  0.00    +0.000 C 
ATOM     15  C   UNL     1      -3.065  -0.009  -1.044  0.00  0.00    +0.000 C 
ATOM     16  C   UNL     1      -3.221  -0.573   1.265  0.00  0.00    +0.000 C 
ATOM     17  C   UNL     1      -3.525   1.258  -0.329  0.00  0.00    +0.000 C 
ATOM     18  C   UNL     1      -3.666   0.884   1.147  0.00  0.00    +0.000 C 
ENDBRANCH   2  14
TORSDOF 3
