REMARK  Name = 62074367
REMARK  4 active torsions:
REMARK  status: ('A' for Active; 'I' for Inactive)
REMARK    1  A    between atoms: N_2  and  C_8
REMARK    2  A    between atoms: N_4  and  C_11
REMARK    3  A    between atoms: C_5  and  C_8
REMARK    4  A    between atoms: C_9  and  C_10
REMARK                            x       y       z     vdW  Elec       q    Type
REMARK                         _______ _______ _______ _____ _____    ______ ____
ROOT
ATOM      1  N   UNL     1       3.092   1.080  -0.426  0.00  0.00    +0.000 NA
ATOM      2  C   UNL     1       1.157  -0.217   0.224  0.00  0.00    +0.000 A 
ATOM      3  C   UNL     1       1.788   0.978  -0.084  0.00  0.00    +0.000 A 
ATOM      4  C   UNL     1       1.914  -1.383   0.177  0.00  0.00    +0.000 A 
ATOM      5  C   UNL     1       3.259  -1.319  -0.171  0.00  0.00    +0.000 A 
ATOM      6  C   UNL     1       3.795  -0.075  -0.461  0.00  0.00    +0.000 A 
ENDROOT
BRANCH   2   9
ATOM      7  O   UNL     1      -0.683   0.328   1.571  0.00  0.00    +0.000 OA
ATOM      8  N   UNL     1      -1.073  -1.074  -0.234  0.00  0.00    +0.000 N 
ATOM      9  C   UNL     1      -0.251  -0.295   0.586  0.00  0.00    +0.000 C 
ATOM     10  H   UNL     1      -0.666  -1.537  -1.042  0.00  0.00    +0.000 HD
BRANCH   8  11
ATOM     11  C   UNL     1      -2.494  -1.232  -0.020  0.00  0.00    +0.000 C 
BRANCH  11  12
ATOM     12  C   UNL     1      -3.267  -0.184  -0.747  0.00  0.00    +0.000 C 
ATOM     13  C   UNL     1      -4.675   0.114  -0.324  0.00  0.00    +0.000 C 
ATOM     14  C   UNL     1      -3.584   1.108  -0.051  0.00  0.00    +0.000 C 
ENDBRANCH  11  12
ENDBRANCH   8  11
ENDBRANCH   2   9
BRANCH   3  15
ATOM     15  N   UNL     1       1.023   2.171  -0.040  0.00  0.00    +0.000 N 
ATOM     16  H   UNL     1       0.035   2.121  -0.257  0.00  0.00    +0.000 HD
ATOM     17  H   UNL     1       1.511   3.029  -0.266  0.00  0.00    +0.000 HD
ENDBRANCH   3  15
TORSDOF 4
