REMARK  Name = 62140327
REMARK  4 active torsions:
REMARK  status: ('A' for Active; 'I' for Inactive)
REMARK    1  A    between atoms: N_2  and  C_6
REMARK    2  A    between atoms: N_2  and  C_9
REMARK    3  A    between atoms: C_5  and  C_10
REMARK    4  A    between atoms: C_9  and  C_12
REMARK                            x       y       z     vdW  Elec       q    Type
REMARK                         _______ _______ _______ _____ _____    ______ ____
ROOT
ATOM      1  N   UNL     1      -0.469   1.872  -0.022  0.00  0.00    +0.000 NA
ATOM      2  C   UNL     1      -1.198  -0.433   0.022  0.00  0.00    +0.000 A 
ATOM      3  C   UNL     1      -0.216   0.544  -0.004  0.00  0.00    +0.000 A 
ATOM      4  C   UNL     1      -2.526  -0.020   0.030  0.00  0.00    +0.000 A 
ATOM      5  C   UNL     1      -2.826   1.338   0.011  0.00  0.00    +0.000 A 
ATOM      6  C   UNL     1      -1.771   2.235  -0.014  0.00  0.00    +0.000 A 
ENDROOT
BRANCH   2   9
ATOM      7  O   UNL     1      -0.763  -2.473   1.116  0.00  0.00    +0.000 OA
ATOM      8  N   UNL     1      -0.774  -2.511  -1.177  0.00  0.00    +0.000 N 
ATOM      9  C   UNL     1      -0.894  -1.857   0.045  0.00  0.00    +0.000 C 
ATOM     10  H   UNL     1      -0.884  -2.025  -2.062  0.00  0.00    +0.000 HD
ATOM     11  H   UNL     1      -0.569  -3.503  -1.220  0.00  0.00    +0.000 HD
ENDBRANCH   2   9
BRANCH   3  12
ATOM     12  N   UNL     1       1.140   0.131  -0.009  0.00  0.00    +0.000 N 
ATOM     13  H   UNL     1       1.315  -0.811  -0.347  0.00  0.00    +0.000 HD
BRANCH  12  14
ATOM     14  C   UNL     1       2.226   1.055  -0.035  0.00  0.00    +0.000 C 
BRANCH  14  15
ATOM     15  C   UNL     1       3.509   0.347   0.003  0.00  0.00    +0.000 C 
ATOM     16  C   UNL     1       4.562  -0.229   0.034  0.00  0.00    +0.000 C 
ENDBRANCH  14  15
ENDBRANCH  12  14
ENDBRANCH   3  12
TORSDOF 4
