REMARK  Name = 62155230
REMARK  2 active torsions:
REMARK  status: ('A' for Active; 'I' for Inactive)
REMARK    1  A    between atoms: N_3  and  C_6
REMARK    2  A    between atoms: C_7  and  C_8
REMARK                            x       y       z     vdW  Elec       q    Type
REMARK                         _______ _______ _______ _____ _____    ______ ____
ROOT
ATOM      1  O   UNL     1       0.038   2.047  -0.205  0.00  0.00    +0.000 OA
ATOM      2  N   UNL     1      -0.703  -0.176  -0.011  0.00  0.00    +0.000 N 
ATOM      3  C   UNL     1       0.253   0.844  -0.110  0.00  0.00    +0.000 C 
ATOM      4  H   UNL     1      -0.377  -1.130   0.114  0.00  0.00    +0.000 HD
ENDROOT
BRANCH   3   7
ATOM      5  N   UNL     1       3.977   0.889   0.459  0.00  0.00    +0.000 NA
ATOM      6  N   UNL     1       5.645  -0.772   0.088  0.00  0.00    +0.000 N 
ATOM      7  C   UNL     1       1.669   0.395  -0.067  0.00  0.00    +0.000 A 
ATOM      8  C   UNL     1       2.031  -0.880  -0.487  0.00  0.00    +0.000 A 
ATOM      9  C   UNL     1       2.671   1.234   0.393  0.00  0.00    +0.000 A 
ATOM     10  C   UNL     1       3.364  -1.272  -0.435  0.00  0.00    +0.000 A 
ATOM     11  C   UNL     1       4.290  -0.358   0.042  0.00  0.00    +0.000 A 
ATOM     12  H   UNL     1       5.844  -1.758   0.202  0.00  0.00    +0.000 HD
ATOM     13  H   UNL     1       6.317  -0.103   0.443  0.00  0.00    +0.000 HD
ENDBRANCH   3   7
BRANCH   2  15
ATOM     14  F   UNL     1      -2.343  -2.400   0.263  0.00  0.00    +0.000 F 
ATOM     15  C   UNL     1      -2.093  -0.052   0.001  0.00  0.00    +0.000 A 
ATOM     16  C   UNL     1      -2.896  -1.184   0.139  0.00  0.00    +0.000 A 
ATOM     17  C   UNL     1      -2.679   1.207  -0.126  0.00  0.00    +0.000 A 
ATOM     18  C   UNL     1      -4.285  -1.058   0.150  0.00  0.00    +0.000 A 
ATOM     19  C   UNL     1      -4.068   1.334  -0.116  0.00  0.00    +0.000 A 
ATOM     20  C   UNL     1      -4.871   0.202   0.022  0.00  0.00    +0.000 A 
ENDBRANCH   2  15
TORSDOF 2
