REMARK  Name = 62154320
REMARK  4 active torsions:
REMARK  status: ('A' for Active; 'I' for Inactive)
REMARK    1  A    between atoms: N_2  and  C_9
REMARK    2  A    between atoms: N_2  and  C_10
REMARK    3  A    between atoms: N_4  and  C_7
REMARK    4  A    between atoms: C_5  and  C_6
REMARK                            x       y       z     vdW  Elec       q    Type
REMARK                         _______ _______ _______ _____ _____    ______ ____
ROOT
ATOM      1  N   UNL     1      -2.324  -0.901  -0.359  0.00  0.00    +0.000 NA
ATOM      2  C   UNL     1      -0.251   0.147   0.314  0.00  0.00    +0.000 A 
ATOM      3  C   UNL     1      -1.006  -0.954  -0.059  0.00  0.00    +0.000 A 
ATOM      4  C   UNL     1      -0.889   1.380   0.384  0.00  0.00    +0.000 A 
ATOM      5  C   UNL     1      -2.243   1.475   0.083  0.00  0.00    +0.000 A 
ATOM      6  C   UNL     1      -2.909   0.315  -0.279  0.00  0.00    +0.000 A 
ENDROOT
BRANCH   2   9
ATOM      7  O   UNL     1       1.468  -0.175   1.805  0.00  0.00    +0.000 OA
ATOM      8  N   UNL     1       2.105   0.227  -0.408  0.00  0.00    +0.000 N 
ATOM      9  C   UNL     1       1.183   0.058   0.630  0.00  0.00    +0.000 C 
ATOM     10  C   UNL     1       3.542   0.140  -0.192  0.00  0.00    +0.000 C 
ATOM     11  C   UNL     1       1.687   0.502  -1.782  0.00  0.00    +0.000 C 
ENDBRANCH   2   9
BRANCH   3  12
ATOM     12  N   UNL     1      -0.363  -2.214  -0.136  0.00  0.00    +0.000 N 
ATOM     13  H   UNL     1       0.617  -2.243  -0.389  0.00  0.00    +0.000 HD
ATOM     14  H   UNL     1      -0.941  -3.001  -0.408  0.00  0.00    +0.000 HD
ENDBRANCH   3  12
TORSDOF 2
