REMARK  Name = 62159833
REMARK  7 active torsions:
REMARK  status: ('A' for Active; 'I' for Inactive)
REMARK    1  A    between atoms: N_5  and  C_8
REMARK    2  A    between atoms: N_5  and  C_9
REMARK    3  A    between atoms: N_7  and  C_15
REMARK    4  A    between atoms: C_8  and  C_10
REMARK    5  A    between atoms: C_9  and  C_12
REMARK    6  A    between atoms: C_10  and  C_14
REMARK    7  A    between atoms: C_11  and  C_13
REMARK                            x       y       z     vdW  Elec       q    Type
REMARK                         _______ _______ _______ _____ _____    ______ ____
ROOT
ATOM      1  O   UNL     1      -0.294   1.433   1.673  0.00  0.00    +0.000 OA
ATOM      2  N   UNL     1      -0.921  -0.425   0.398  0.00  0.00    +0.000 N 
ATOM      3  C   UNL     1      -0.007   0.526   0.892  0.00  0.00    +0.000 C 
ENDROOT
BRANCH   3   5
ATOM      4  N   UNL     1       3.134   1.106  -1.107  0.00  0.00    +0.000 NA
ATOM      5  C   UNL     1       1.394   0.469   0.446  0.00  0.00    +0.000 A 
ATOM      6  C   UNL     1       1.854   1.143  -0.674  0.00  0.00    +0.000 A 
ATOM      7  C   UNL     1       2.307  -0.293   1.168  0.00  0.00    +0.000 A 
ATOM      8  C   UNL     1       3.633  -0.356   0.753  0.00  0.00    +0.000 A 
ATOM      9  C   UNL     1       3.992   0.355  -0.381  0.00  0.00    +0.000 A 
BRANCH   6  10
ATOM     10  N   UNL     1       0.928   1.919  -1.416  0.00  0.00    +0.000 N 
ATOM     11  H   UNL     1      -0.041   1.626  -1.440  0.00  0.00    +0.000 HD
ATOM     12  H   UNL     1       1.293   2.403  -2.227  0.00  0.00    +0.000 HD
ENDBRANCH   6  10
ENDBRANCH   3   5
BRANCH   2  13
ATOM     13  C   UNL     1      -0.519  -1.460  -0.513  0.00  0.00    +0.000 C 
BRANCH  13  14
ATOM     14  C   UNL     1      -0.064  -2.724   0.207  0.00  0.00    +0.000 C 
ATOM     15  C   UNL     1       0.385  -3.818  -0.751  0.00  0.00    +0.000 C 
ENDBRANCH  13  14
ENDBRANCH   2  13
BRANCH   2  16
ATOM     16  C   UNL     1      -2.338  -0.414   0.788  0.00  0.00    +0.000 C 
BRANCH  16  20
ATOM     17  F   UNL     1      -4.463   0.423   0.231  0.00  0.00    +0.000 F 
ATOM     18  F   UNL     1      -2.749   1.715  -0.151  0.00  0.00    +0.000 F 
ATOM     19  F   UNL     1      -3.106  -0.032  -1.414  0.00  0.00    +0.000 F 
ATOM     20  C   UNL     1      -3.166   0.431  -0.148  0.00  0.00    +0.000 C 
ENDBRANCH  16  20
ENDBRANCH   2  16
TORSDOF 6
