REMARK  Name = 62155825
REMARK  4 active torsions:
REMARK  status: ('A' for Active; 'I' for Inactive)
REMARK    1  A    between atoms: N_3  and  C_6
REMARK    2  A    between atoms: N_3  and  C_12
REMARK    3  A    between atoms: N_3  and  C_13
REMARK    4  A    between atoms: C_11  and  C_14
REMARK                            x       y       z     vdW  Elec       q    Type
REMARK                         _______ _______ _______ _____ _____    ______ ____
ROOT
ATOM      1  O   UNL     1       0.817   2.596   0.687  0.00  0.00    +0.000 OA
ATOM      2  N   UNL     1      -0.515   0.991  -0.369  0.00  0.00    +0.000 N 
ATOM      3  C   UNL     1      -3.112  -0.277  -0.319  0.00  0.00    +0.000 C 
ATOM      4  C   UNL     1      -1.816  -1.099  -0.322  0.00  0.00    +0.000 C 
ATOM      5  C   UNL     1      -2.876   1.102   0.314  0.00  0.00    +0.000 C 
ATOM      6  C   UNL     1      -0.684  -0.326  -0.997  0.00  0.00    +0.000 C 
ATOM      7  C   UNL     1      -1.716   1.827  -0.369  0.00  0.00    +0.000 C 
ATOM      8  C   UNL     1       0.675   1.493   0.161  0.00  0.00    +0.000 C 
ENDROOT
BRANCH   8  11
ATOM      9  N   UNL     1       3.256  -1.040   1.156  0.00  0.00    +0.000 NA
ATOM     10  N   UNL     1       5.222  -1.797   0.043  0.00  0.00    +0.000 N 
ATOM     11  C   UNL     1       1.871   0.642   0.108  0.00  0.00    +0.000 A 
ATOM     12  C   UNL     1       2.734   0.686  -0.981  0.00  0.00    +0.000 A 
ATOM     13  C   UNL     1       2.173  -0.230   1.141  0.00  0.00    +0.000 A 
ATOM     14  C   UNL     1       3.858  -0.132  -1.003  0.00  0.00    +0.000 A 
ATOM     15  C   UNL     1       4.072  -0.970   0.080  0.00  0.00    +0.000 A 
ATOM     16  H   UNL     1       5.371  -2.412   0.834  0.00  0.00    +0.000 HD
ATOM     17  H   UNL     1       5.582  -2.081  -0.859  0.00  0.00    +0.000 HD
ENDBRANCH   8  11
BRANCH   3  18
ATOM     18  N   UNL     1      -4.156  -0.991   0.411  0.00  0.00    +0.000 NA
ATOM     19  C   UNL     1      -4.426  -2.286  -0.214  0.00  0.00    +0.000 C 
ATOM     20  C   UNL     1      -5.379  -0.190   0.472  0.00  0.00    +0.000 C 
ENDBRANCH   3  18
TORSDOF 2
