REMARK  Name = 62153986
REMARK  5 active torsions:
REMARK  status: ('A' for Active; 'I' for Inactive)
REMARK    1  A    between atoms: N_2  and  C_5
REMARK    2  A    between atoms: C_5  and  C_6
REMARK    3  A    between atoms: C_5  and  C_7
REMARK    4  A    between atoms: C_5  and  C_8
REMARK    5  A    between atoms: C_9  and  C_10
REMARK                            x       y       z     vdW  Elec       q    Type
REMARK                         _______ _______ _______ _____ _____    ______ ____
ROOT
ATOM      1  N   UNL     1       2.964   1.016  -0.284  0.00  0.00    +0.000 NA
ATOM      2  N   UNL     1       4.765  -0.537  -0.143  0.00  0.00    +0.000 N 
ATOM      3  C   UNL     1       0.702   0.250   0.090  0.00  0.00    +0.000 A 
ATOM      4  C   UNL     1       1.167  -1.042   0.308  0.00  0.00    +0.000 A 
ATOM      5  C   UNL     1       1.633   1.235  -0.200  0.00  0.00    +0.000 A 
ATOM      6  C   UNL     1       2.530  -1.306   0.230  0.00  0.00    +0.000 A 
ATOM      7  C   UNL     1       3.380  -0.252  -0.067  0.00  0.00    +0.000 A 
ATOM      8  H   UNL     1       5.130  -1.305   0.407  0.00  0.00    +0.000 HD
ATOM      9  H   UNL     1       5.383   0.237  -0.353  0.00  0.00    +0.000 HD
ENDROOT
BRANCH   3  12
ATOM     10  O   UNL     1      -1.100   1.707   0.449  0.00  0.00    +0.000 OA
ATOM     11  N   UNL     1      -1.603  -0.484  -0.118  0.00  0.00    +0.000 N 
ATOM     12  C   UNL     1      -0.748   0.565   0.167  0.00  0.00    +0.000 C 
ATOM     13  H   UNL     1      -1.233  -1.384  -0.403  0.00  0.00    +0.000 HD
BRANCH  11  14
ATOM     14  C   UNL     1      -3.046  -0.328  -0.110  0.00  0.00    +0.000 C 
ATOM     15  C   UNL     1      -3.440   0.800  -1.070  0.00  0.00    +0.000 C 
ATOM     16  C   UNL     1      -3.505   0.016   1.311  0.00  0.00    +0.000 C 
ATOM     17  C   UNL     1      -3.699  -1.639  -0.562  0.00  0.00    +0.000 C 
ENDBRANCH  11  14
ENDBRANCH   3  12
TORSDOF 2
