REMARK  Name = 62154341
REMARK  6 active torsions:
REMARK  status: ('A' for Active; 'I' for Inactive)
REMARK    1  A    between atoms: N_2  and  C_6
REMARK    2  A    between atoms: N_2  and  C_8
REMARK    3  A    between atoms: N_2  and  C_9
REMARK    4  A    between atoms: N_3  and  C_7
REMARK    5  A    between atoms: C_6  and  C_7
REMARK    6  A    between atoms: C_10  and  C_11
REMARK                            x       y       z     vdW  Elec       q    Type
REMARK                         _______ _______ _______ _____ _____    ______ ____
ROOT
ATOM      1  O   UNL     1       0.468  -1.716   0.518  0.00  0.00    +0.000 OA
ATOM      2  N   UNL     1       0.886   0.562   0.635  0.00  0.00    +0.000 N 
ATOM      3  C   UNL     1       0.074  -0.554   0.470  0.00  0.00    +0.000 C 
ATOM      4  H   UNL     1       0.507   1.496   0.521  0.00  0.00    +0.000 HD
ENDROOT
BRANCH   3   7
ATOM      5  N   UNL     1      -3.263   1.191   0.412  0.00  0.00    +0.000 NA
ATOM      6  N   UNL     1      -5.354   0.554  -0.537  0.00  0.00    +0.000 N 
ATOM      7  C   UNL     1      -1.360  -0.283   0.192  0.00  0.00    +0.000 A 
ATOM      8  C   UNL     1      -2.137  -1.193  -0.516  0.00  0.00    +0.000 A 
ATOM      9  C   UNL     1      -1.965   0.883   0.631  0.00  0.00    +0.000 A 
ATOM     10  C   UNL     1      -3.477  -0.912  -0.761  0.00  0.00    +0.000 A 
ATOM     11  C   UNL     1      -3.987   0.283  -0.280  0.00  0.00    +0.000 A 
ATOM     12  H   UNL     1      -5.778   0.151  -1.363  0.00  0.00    +0.000 HD
ATOM     13  H   UNL     1      -5.721   1.431  -0.189  0.00  0.00    +0.000 HD
ENDBRANCH   3   7
BRANCH   2  14
ATOM     14  C   UNL     1       2.299   0.465   0.885  0.00  0.00    +0.000 C 
BRANCH  14  15
ATOM     15  C   UNL     1       3.089   0.453  -0.415  0.00  0.00    +0.000 C 
BRANCH  15  16
ATOM     16  N   UNL     1       4.523   0.382  -0.138  0.00  0.00    +0.000 NA
ATOM     17  C   UNL     1       4.913  -0.989   0.187  0.00  0.00    +0.000 C 
ATOM     18  C   UNL     1       5.290   0.874  -1.282  0.00  0.00    +0.000 C 
ENDBRANCH  15  16
ENDBRANCH  14  15
ENDBRANCH   2  14
TORSDOF 4
