REMARK  Name = 62159706
REMARK  5 active torsions:
REMARK  status: ('A' for Active; 'I' for Inactive)
REMARK    1  A    between atoms: N_2  and  C_11
REMARK    2  A    between atoms: N_3  and  C_12
REMARK    3  A    between atoms: N_5  and  C_15
REMARK    4  A    between atoms: C_11  and  C_12
REMARK    5  A    between atoms: C_13  and  C_14
REMARK                            x       y       z     vdW  Elec       q    Type
REMARK                         _______ _______ _______ _____ _____    ______ ____
ROOT
ATOM      1  O   UNL     1      -0.909  -0.157   1.642  0.00  0.00    +0.000 OA
ATOM      2  N   UNL     1      -0.484   1.020  -0.311  0.00  0.00    +0.000 N 
ATOM      3  C   UNL     1      -1.297   0.338   0.587  0.00  0.00    +0.000 C 
ATOM      4  H   UNL     1      -0.886   1.381  -1.172  0.00  0.00    +0.000 HD
ENDROOT
BRANCH   3   6
ATOM      5  N   UNL     1      -4.631  -1.194  -0.327  0.00  0.00    +0.000 NA
ATOM      6  C   UNL     1      -2.724   0.196   0.199  0.00  0.00    +0.000 A 
ATOM      7  C   UNL     1      -3.336  -1.035   0.027  0.00  0.00    +0.000 A 
ATOM      8  C   UNL     1      -3.491   1.338  -0.006  0.00  0.00    +0.000 A 
ATOM      9  C   UNL     1      -4.827   1.215  -0.372  0.00  0.00    +0.000 A 
ATOM     10  C   UNL     1      -5.344  -0.061  -0.518  0.00  0.00    +0.000 A 
BRANCH   7  11
ATOM     11  N   UNL     1      -2.560  -2.204   0.232  0.00  0.00    +0.000 N 
ATOM     12  H   UNL     1      -3.034  -3.089   0.102  0.00  0.00    +0.000 HD
ATOM     13  H   UNL     1      -1.568  -2.168   0.032  0.00  0.00    +0.000 HD
ENDBRANCH   7  11
ENDBRANCH   3   6
BRANCH   2  14
ATOM     14  C   UNL     1       0.922   1.218  -0.089  0.00  0.00    +0.000 C 
BRANCH  14  15
ATOM     15  C   UNL     1       1.738   0.077  -0.678  0.00  0.00    +0.000 C 
BRANCH  15  16
ATOM     16  N   UNL     1       3.164   0.292  -0.433  0.00  0.00    +0.000 NA
ATOM     17  C   UNL     1       3.973  -0.525  -1.349  0.00  0.00    +0.000 C 
ATOM     18  C   UNL     1       3.494   0.003   0.970  0.00  0.00    +0.000 C 
ATOM     19  C   UNL     1       5.467  -0.274  -1.139  0.00  0.00    +0.000 C 
ATOM     20  C   UNL     1       4.973   0.271   1.255  0.00  0.00    +0.000 C 
ATOM     21  C   UNL     1       5.872  -0.518   0.310  0.00  0.00    +0.000 C 
ENDBRANCH  15  16
ENDBRANCH  14  15
ENDBRANCH   2  14
TORSDOF 5
