REMARK  Name = 62155126
REMARK  3 active torsions:
REMARK  status: ('A' for Active; 'I' for Inactive)
REMARK    1  A    between atoms: N_2  and  C_11
REMARK    2  A    between atoms: C_5  and  C_11
REMARK    3  A    between atoms: C_12  and  C_13
REMARK                            x       y       z     vdW  Elec       q    Type
REMARK                         _______ _______ _______ _____ _____    ______ ____
ROOT
ATOM      1  O   UNL     1      -0.281  -2.089  -0.703  0.00  0.00    +0.000 OA
ATOM      2  N   UNL     1       0.371  -0.569   0.924  0.00  0.00    +0.000 N 
ATOM      3  C   UNL     1      -0.534  -1.137   0.030  0.00  0.00    +0.000 C 
ATOM      4  H   UNL     1       0.110   0.248   1.466  0.00  0.00    +0.000 HD
ENDROOT
BRANCH   3   7
ATOM      5  N   UNL     1      -3.623   0.753   1.068  0.00  0.00    +0.000 NA
ATOM      6  N   UNL     1      -5.623   1.270  -0.119  0.00  0.00    +0.000 N 
ATOM      7  C   UNL     1      -1.879  -0.510  -0.033  0.00  0.00    +0.000 A 
ATOM      8  C   UNL     1      -2.649  -0.577  -1.189  0.00  0.00    +0.000 A 
ATOM      9  C   UNL     1      -2.407   0.161   1.059  0.00  0.00    +0.000 A 
ATOM     10  C   UNL     1      -3.904   0.020  -1.218  0.00  0.00    +0.000 A 
ATOM     11  C   UNL     1      -4.341   0.667  -0.074  0.00  0.00    +0.000 A 
ATOM     12  H   UNL     1      -5.936   1.747   0.717  0.00  0.00    +0.000 HD
ATOM     13  H   UNL     1      -5.973   1.591  -1.014  0.00  0.00    +0.000 HD
ENDBRANCH   3   7
BRANCH   2  14
ATOM     14  C   UNL     1       1.711  -1.046   1.081  0.00  0.00    +0.000 C 
BRANCH  14  15
ATOM     15  C   UNL     1       2.663  -0.328   0.126  0.00  0.00    +0.000 C 
ATOM     16  C   UNL     1       2.658   1.184   0.389  0.00  0.00    +0.000 C 
ATOM     17  C   UNL     1       4.083  -0.898   0.245  0.00  0.00    +0.000 C 
ATOM     18  C   UNL     1       3.642   1.918  -0.519  0.00  0.00    +0.000 C 
ATOM     19  C   UNL     1       5.064  -0.161  -0.663  0.00  0.00    +0.000 C 
ATOM     20  C   UNL     1       5.050   1.342  -0.404  0.00  0.00    +0.000 C 
ENDBRANCH  14  15
ENDBRANCH   2  14
TORSDOF 3
