REMARK  Name = 62155287
REMARK  5 active torsions:
REMARK  status: ('A' for Active; 'I' for Inactive)
REMARK    1  A    between atoms: N_2  and  C_5
REMARK    2  A    between atoms: N_2  and  C_8
REMARK    3  A    between atoms: C_5  and  C_6
REMARK    4  A    between atoms: C_6  and  C_9
REMARK    5  A    between atoms: C_7  and  C_10
REMARK                            x       y       z     vdW  Elec       q    Type
REMARK                         _______ _______ _______ _____ _____    ______ ____
ROOT
ATOM      1  N   UNL     1      -2.530  -0.825   1.056  0.00  0.00    +0.000 NA
ATOM      2  N   UNL     1      -4.693  -0.602   0.081  0.00  0.00    +0.000 N 
ATOM      3  C   UNL     1      -0.668   0.389   0.107  0.00  0.00    +0.000 A 
ATOM      4  C   UNL     1      -1.506   0.938  -0.857  0.00  0.00    +0.000 A 
ATOM      5  C   UNL     1      -1.224  -0.479   1.033  0.00  0.00    +0.000 A 
ATOM      6  C   UNL     1      -2.856   0.605  -0.866  0.00  0.00    +0.000 A 
ATOM      7  C   UNL     1      -3.315  -0.273   0.103  0.00  0.00    +0.000 A 
ATOM      8  H   UNL     1      -5.025  -1.239   0.794  0.00  0.00    +0.000 HD
ATOM      9  H   UNL     1      -5.344   0.075  -0.298  0.00  0.00    +0.000 HD
ENDROOT
BRANCH   3  12
ATOM     10  O   UNL     1       1.083   1.688   0.835  0.00  0.00    +0.000 OA
ATOM     11  N   UNL     1       1.645  -0.097  -0.600  0.00  0.00    +0.000 N 
ATOM     12  C   UNL     1       0.766   0.721   0.144  0.00  0.00    +0.000 C 
ATOM     13  C   UNL     1       1.158  -1.231  -1.394  0.00  0.00    +0.000 C 
BRANCH  11  14
ATOM     14  C   UNL     1       3.062   0.137  -0.619  0.00  0.00    +0.000 C 
BRANCH  14  15
ATOM     15  C   UNL     1       3.789  -0.616   0.489  0.00  0.00    +0.000 C 
ATOM     16  C   UNL     1       5.289  -0.356   0.490  0.00  0.00    +0.000 C 
ENDBRANCH  14  15
ENDBRANCH  11  14
ENDBRANCH   3  12
TORSDOF 3
