REMARK  Name = 62154705
REMARK  3 active torsions:
REMARK  status: ('A' for Active; 'I' for Inactive)
REMARK    1  A    between atoms: N_3  and  C_7
REMARK    2  A    between atoms: N_5  and  C_9
REMARK    3  A    between atoms: C_6  and  C_8
REMARK                            x       y       z     vdW  Elec       q    Type
REMARK                         _______ _______ _______ _____ _____    ______ ____
ROOT
ATOM      1  O   UNL     1       0.348  -1.763   0.759  0.00  0.00    +0.000 OA
ATOM      2  N   UNL     1      -0.511   0.298   0.024  0.00  0.00    +0.000 N 
ATOM      3  C   UNL     1       0.498  -0.607   0.379  0.00  0.00    +0.000 C 
ATOM      4  H   UNL     1      -0.214   1.220  -0.291  0.00  0.00    +0.000 HD
ENDROOT
BRANCH   2   6
ATOM      5  F   UNL     1      -2.265   2.287  -0.800  0.00  0.00    +0.000 F 
ATOM      6  C   UNL     1      -1.891   0.091   0.025  0.00  0.00    +0.000 A 
ATOM      7  C   UNL     1      -2.751   1.106  -0.394  0.00  0.00    +0.000 A 
ATOM      8  C   UNL     1      -2.409  -1.134   0.445  0.00  0.00    +0.000 A 
ATOM      9  C   UNL     1      -4.130   0.896  -0.391  0.00  0.00    +0.000 A 
ATOM     10  C   UNL     1      -3.788  -1.344   0.448  0.00  0.00    +0.000 A 
ATOM     11  C   UNL     1      -4.649  -0.329   0.030  0.00  0.00    +0.000 A 
ENDBRANCH   2   6
BRANCH   3  13
ATOM     12  N   UNL     1       4.099  -0.248  -0.718  0.00  0.00    +0.000 NA
ATOM     13  C   UNL     1       1.888  -0.097   0.247  0.00  0.00    +0.000 A 
ATOM     14  C   UNL     1       2.829  -0.688  -0.581  0.00  0.00    +0.000 A 
ATOM     15  C   UNL     1       2.276   1.019   0.980  0.00  0.00    +0.000 A 
ATOM     16  C   UNL     1       3.575   1.502   0.866  0.00  0.00    +0.000 A 
ATOM     17  C   UNL     1       4.440   0.839   0.011  0.00  0.00    +0.000 A 
BRANCH  14  18
ATOM     18  N   UNL     1       2.441  -1.828  -1.330  0.00  0.00    +0.000 N 
ATOM     19  H   UNL     1       1.738  -2.446  -0.944  0.00  0.00    +0.000 HD
ATOM     20  H   UNL     1       3.148  -2.237  -1.928  0.00  0.00    +0.000 HD
ENDBRANCH  14  18
ENDBRANCH   3  13
TORSDOF 3
