REMARK  Name = 62161643
REMARK  4 active torsions:
REMARK  status: ('A' for Active; 'I' for Inactive)
REMARK    1  A    between atoms: N_5  and  C_8
REMARK    2  A    between atoms: N_5  and  C_11
REMARK    3  A    between atoms: C_8  and  C_12
REMARK    4  A    between atoms: C_9  and  C_10
REMARK                            x       y       z     vdW  Elec       q    Type
REMARK                         _______ _______ _______ _____ _____    ______ ____
ROOT
ATOM      1  O   UNL     1       0.588  -1.554  -1.192  0.00  0.00    +0.000 OA
ATOM      2  N   UNL     1       1.174  -0.326   0.709  0.00  0.00    +0.000 N 
ATOM      3  C   UNL     1       0.288  -0.807  -0.261  0.00  0.00    +0.000 C 
ATOM      4  C   UNL     1       0.743   0.558   1.782  0.00  0.00    +0.000 C 
ENDROOT
BRANCH   3   7
ATOM      5  N   UNL     1      -3.357  -0.784   0.635  0.00  0.00    +0.000 NA
ATOM      6  N   UNL     1      -5.106   0.727   0.059  0.00  0.00    +0.000 N 
ATOM      7  C   UNL     1      -1.120  -0.385  -0.192  0.00  0.00    +0.000 A 
ATOM      8  C   UNL     1      -1.559   0.759  -0.849  0.00  0.00    +0.000 A 
ATOM      9  C   UNL     1      -2.050  -1.115   0.530  0.00  0.00    +0.000 A 
ATOM     10  C   UNL     1      -2.896   1.132  -0.765  0.00  0.00    +0.000 A 
ATOM     11  C   UNL     1      -3.747   0.334  -0.017  0.00  0.00    +0.000 A 
ATOM     12  H   UNL     1      -5.328   1.711  -0.030  0.00  0.00    +0.000 HD
ATOM     13  H   UNL     1      -5.722   0.144   0.612  0.00  0.00    +0.000 HD
ENDBRANCH   3   7
BRANCH   2  14
ATOM     14  C   UNL     1       2.592  -0.678   0.710  0.00  0.00    +0.000 C 
BRANCH  14  18
ATOM     15  F   UNL     1       3.311   1.552   0.403  0.00  0.00    +0.000 F 
ATOM     16  F   UNL     1       4.716  -0.045  -0.075  0.00  0.00    +0.000 F 
ATOM     17  F   UNL     1       3.014   0.331  -1.385  0.00  0.00    +0.000 F 
ATOM     18  C   UNL     1       3.410   0.301  -0.095  0.00  0.00    +0.000 C 
ENDBRANCH  14  18
ENDBRANCH   2  14
TORSDOF 3
