REMARK  Name = 62162030
REMARK  7 active torsions:
REMARK  status: ('A' for Active; 'I' for Inactive)
REMARK    1  A    between atoms: N_5  and  C_8
REMARK    2  A    between atoms: N_5  and  C_9
REMARK    3  A    between atoms: N_7  and  C_15
REMARK    4  A    between atoms: C_8  and  C_10
REMARK    5  A    between atoms: C_8  and  C_11
REMARK    6  A    between atoms: C_9  and  C_13
REMARK    7  A    between atoms: C_12  and  C_14
REMARK                            x       y       z     vdW  Elec       q    Type
REMARK                         _______ _______ _______ _____ _____    ______ ____
ROOT
ATOM      1  O   UNL     1       0.309   2.068  -1.240  0.00  0.00    +0.000 OA
ATOM      2  N   UNL     1       1.246   0.495   0.239  0.00  0.00    +0.000 N 
ATOM      3  C   UNL     1       0.203   1.094  -0.495  0.00  0.00    +0.000 C 
ENDROOT
BRANCH   3   5
ATOM      4  N   UNL     1      -3.291   0.438   0.753  0.00  0.00    +0.000 NA
ATOM      5  C   UNL     1      -1.146   0.522  -0.359  0.00  0.00    +0.000 A 
ATOM      6  C   UNL     1      -2.048   0.947   0.604  0.00  0.00    +0.000 A 
ATOM      7  C   UNL     1      -1.547  -0.490  -1.225  0.00  0.00    +0.000 A 
ATOM      8  C   UNL     1      -2.818  -1.039  -1.102  0.00  0.00    +0.000 A 
ATOM      9  C   UNL     1      -3.645  -0.544  -0.106  0.00  0.00    +0.000 A 
BRANCH   6  10
ATOM     10  N   UNL     1      -1.646   1.976   1.491  0.00  0.00    +0.000 N 
ATOM     11  H   UNL     1      -0.666   2.050   1.736  0.00  0.00    +0.000 HD
ATOM     12  H   UNL     1      -2.326   2.268   2.183  0.00  0.00    +0.000 HD
ENDBRANCH   6  10
ENDBRANCH   3   5
BRANCH   2  13
ATOM     13  C   UNL     1       2.600   0.992   0.182  0.00  0.00    +0.000 C 
ATOM     14  C   UNL     1       2.660   2.424   0.698  0.00  0.00    +0.000 C 
ATOM     15  C   UNL     1       3.147   0.892  -1.236  0.00  0.00    +0.000 C 
ENDBRANCH   2  13
BRANCH   2  16
ATOM     16  C   UNL     1       1.016  -0.666   1.101  0.00  0.00    +0.000 C 
BRANCH  16  20
ATOM     17  F   UNL     1       0.983  -3.015   1.168  0.00  0.00    +0.000 F 
ATOM     18  F   UNL     1       0.331  -2.059  -0.680  0.00  0.00    +0.000 F 
ATOM     19  F   UNL     1       2.449  -2.074  -0.143  0.00  0.00    +0.000 F 
ATOM     20  C   UNL     1       1.198  -1.961   0.350  0.00  0.00    +0.000 C 
ENDBRANCH  16  20
ENDBRANCH   2  16
TORSDOF 5
