REMARK  Name = 62160972
REMARK  4 active torsions:
REMARK  status: ('A' for Active; 'I' for Inactive)
REMARK    1  A    between atoms: N_2  and  C_7
REMARK    2  A    between atoms: C_6  and  C_7
REMARK    3  A    between atoms: C_6  and  C_8
REMARK    4  A    between atoms: C_9  and  C_12
REMARK                            x       y       z     vdW  Elec       q    Type
REMARK                         _______ _______ _______ _____ _____    ______ ____
ROOT
ATOM      1  O   UNL     1       0.945  -2.590  -0.747  0.00  0.00    +0.000 OA
ATOM      2  N   UNL     1      -0.290  -1.270   0.705  0.00  0.00    +0.000 N 
ATOM      3  C   UNL     1       0.848  -1.558  -0.059  0.00  0.00    +0.000 C 
ATOM      4  H   UNL     1      -0.310  -0.445   1.294  0.00  0.00    +0.000 HD
ENDROOT
BRANCH   3   7
ATOM      5  N   UNL     1       4.312  -0.165  -0.182  0.00  0.00    +0.000 NA
ATOM      6  N   UNL     1       5.123   2.050   0.151  0.00  0.00    +0.000 N 
ATOM      7  C   UNL     1       1.942  -0.603   0.001  0.00  0.00    +0.000 A 
ATOM      8  C   UNL     1       1.708   0.738   0.284  0.00  0.00    +0.000 A 
ATOM      9  C   UNL     1       3.250  -1.001  -0.223  0.00  0.00    +0.000 A 
ATOM     10  C   UNL     1       2.775   1.628   0.334  0.00  0.00    +0.000 A 
ATOM     11  C   UNL     1       4.046   1.131   0.096  0.00  0.00    +0.000 A 
ATOM     12  H   UNL     1       4.940   3.021  -0.071  0.00  0.00    +0.000 HD
ATOM     13  H   UNL     1       6.050   1.683  -0.030  0.00  0.00    +0.000 HD
ENDBRANCH   3   7
BRANCH   2  14
ATOM     14  C   UNL     1      -1.450  -2.131   0.769  0.00  0.00    +0.000 C 
BRANCH  14  15
ATOM     15  C   UNL     1      -2.485  -1.801  -0.304  0.00  0.00    +0.000 C 
BRANCH  15  17
ATOM     16  N   UNL     1      -3.923   2.248  -0.057  0.00  0.00    +0.000 NA
ATOM     17  C   UNL     1      -2.989  -0.381  -0.217  0.00  0.00    +0.000 A 
ATOM     18  C   UNL     1      -4.101  -0.082   0.561  0.00  0.00    +0.000 A 
ATOM     19  C   UNL     1      -2.343   0.633  -0.916  0.00  0.00    +0.000 A 
ATOM     20  C   UNL     1      -4.525   1.237   0.608  0.00  0.00    +0.000 A 
ATOM     21  C   UNL     1      -2.845   1.919  -0.804  0.00  0.00    +0.000 A 
ENDBRANCH  15  17
ENDBRANCH  14  15
ENDBRANCH   2  14
TORSDOF 4
