REMARK  Name = 62160333
REMARK  6 active torsions:
REMARK  status: ('A' for Active; 'I' for Inactive)
REMARK    1  A    between atoms: N_5  and  C_8
REMARK    2  A    between atoms: N_5  and  C_9
REMARK    3  A    between atoms: C_8  and  C_10
REMARK    4  A    between atoms: C_8  and  C_11
REMARK    5  A    between atoms: C_9  and  C_13
REMARK    6  A    between atoms: C_12  and  C_14
REMARK                            x       y       z     vdW  Elec       q    Type
REMARK                         _______ _______ _______ _____ _____    ______ ____
ROOT
ATOM      1  O   UNL     1       0.510   1.743   1.559  0.00  0.00    +0.000 OA
ATOM      2  N   UNL     1       1.330   0.527  -0.282  0.00  0.00    +0.000 N 
ATOM      3  C   UNL     1       0.331   1.009   0.588  0.00  0.00    +0.000 C 
ENDROOT
BRANCH   3   6
ATOM      4  N   UNL     1      -2.956   0.543  -1.164  0.00  0.00    +0.000 NA
ATOM      5  N   UNL     1      -4.965  -0.536  -0.472  0.00  0.00    +0.000 N 
ATOM      6  C   UNL     1      -1.058   0.594   0.333  0.00  0.00    +0.000 A 
ATOM      7  C   UNL     1      -1.782  -0.113   1.287  0.00  0.00    +0.000 A 
ATOM      8  C   UNL     1      -1.685   0.894  -0.866  0.00  0.00    +0.000 A 
ATOM      9  C   UNL     1      -3.092  -0.492   1.017  0.00  0.00    +0.000 A 
ATOM     10  C   UNL     1      -3.628  -0.143  -0.212  0.00  0.00    +0.000 A 
ATOM     11  H   UNL     1      -5.321  -1.365  -0.013  0.00  0.00    +0.000 HD
ATOM     12  H   UNL     1      -5.350  -0.284  -1.374  0.00  0.00    +0.000 HD
ENDBRANCH   3   6
BRANCH   2  13
ATOM     13  C   UNL     1       2.532   1.279  -0.551  0.00  0.00    +0.000 C 
ATOM     14  C   UNL     1       3.328   1.480   0.732  0.00  0.00    +0.000 C 
ATOM     15  C   UNL     1       2.194   2.612  -1.206  0.00  0.00    +0.000 C 
ENDBRANCH   2  13
BRANCH   2  16
ATOM     16  C   UNL     1       1.205  -0.763  -0.963  0.00  0.00    +0.000 C 
BRANCH  16  20
ATOM     17  F   UNL     1       1.663  -3.062  -0.792  0.00  0.00    +0.000 F 
ATOM     18  F   UNL     1       3.109  -1.688   0.089  0.00  0.00    +0.000 F 
ATOM     19  F   UNL     1       1.170  -2.002   1.049  0.00  0.00    +0.000 F 
ATOM     20  C   UNL     1       1.793  -1.884  -0.143  0.00  0.00    +0.000 C 
ENDBRANCH  16  20
ENDBRANCH   2  16
TORSDOF 4
