REMARK  Name = 62161137
REMARK  5 active torsions:
REMARK  status: ('A' for Active; 'I' for Inactive)
REMARK    1  A    between atoms: N_5  and  C_8
REMARK    2  A    between atoms: N_5  and  C_11
REMARK    3  A    between atoms: N_7  and  C_13
REMARK    4  A    between atoms: C_8  and  C_12
REMARK    5  A    between atoms: C_9  and  C_10
REMARK                            x       y       z     vdW  Elec       q    Type
REMARK                         _______ _______ _______ _____ _____    ______ ____
ROOT
ATOM      1  O   UNL     1       0.250   0.533   1.877  0.00  0.00    +0.000 OA
ATOM      2  N   UNL     1       0.905   0.818  -0.349  0.00  0.00    +0.000 N 
ATOM      3  C   UNL     1      -0.012   0.559   0.675  0.00  0.00    +0.000 C 
ATOM      4  C   UNL     1       0.517   0.831  -1.753  0.00  0.00    +0.000 C 
ENDROOT
BRANCH   3   6
ATOM      5  N   UNL     1      -3.150  -1.289  -0.293  0.00  0.00    +0.000 NA
ATOM      6  C   UNL     1      -1.409   0.278   0.307  0.00  0.00    +0.000 A 
ATOM      7  C   UNL     1      -1.874  -1.002   0.050  0.00  0.00    +0.000 A 
ATOM      8  C   UNL     1      -2.312   1.331   0.205  0.00  0.00    +0.000 A 
ATOM      9  C   UNL     1      -3.633   1.075  -0.145  0.00  0.00    +0.000 A 
ATOM     10  C   UNL     1      -3.998  -0.241  -0.381  0.00  0.00    +0.000 A 
BRANCH   7  11
ATOM     11  N   UNL     1      -0.959  -2.080   0.148  0.00  0.00    +0.000 N 
ATOM     12  H   UNL     1       0.016  -1.910  -0.068  0.00  0.00    +0.000 HD
ATOM     13  H   UNL     1      -1.327  -3.004  -0.042  0.00  0.00    +0.000 HD
ENDBRANCH   7  11
ENDBRANCH   3   6
BRANCH   2  14
ATOM     14  C   UNL     1       2.315   1.092  -0.080  0.00  0.00    +0.000 C 
BRANCH  14  18
ATOM     15  F   UNL     1       3.075  -0.810  -1.258  0.00  0.00    +0.000 F 
ATOM     16  F   UNL     1       4.434   0.107   0.179  0.00  0.00    +0.000 F 
ATOM     17  F   UNL     1       2.712  -1.028   0.887  0.00  0.00    +0.000 F 
ATOM     18  C   UNL     1       3.136  -0.173  -0.069  0.00  0.00    +0.000 C 
ENDBRANCH  14  18
ENDBRANCH   2  14
TORSDOF 4
