REMARK  Name = 62160659
REMARK  2 active torsions:
REMARK  status: ('A' for Active; 'I' for Inactive)
REMARK    1  A    between atoms: C_5  and  C_9
REMARK    2  A    between atoms: C_10  and  C_11
REMARK                            x       y       z     vdW  Elec       q    Type
REMARK                         _______ _______ _______ _____ _____    ______ ____
ROOT
ATOM      1  N   UNL     1      -3.030   0.291  -0.988  0.00  0.00    +0.000 NA
ATOM      2  N   UNL     1      -4.553  -1.310  -0.095  0.00  0.00    +0.000 N 
ATOM      3  C   UNL     1      -0.902   0.645   0.103  0.00  0.00    +0.000 A 
ATOM      4  C   UNL     1      -1.225  -0.312   1.060  0.00  0.00    +0.000 A 
ATOM      5  C   UNL     1      -1.831   0.907  -0.891  0.00  0.00    +0.000 A 
ATOM      6  C   UNL     1      -2.450  -0.967   0.993  0.00  0.00    +0.000 A 
ATOM      7  C   UNL     1      -3.309  -0.633  -0.041  0.00  0.00    +0.000 A 
ATOM      8  H   UNL     1      -5.175  -1.066  -0.856  0.00  0.00    +0.000 HD
ATOM      9  H   UNL     1      -4.611  -2.244   0.291  0.00  0.00    +0.000 HD
ENDROOT
BRANCH   3  17
ATOM     10  O   UNL     1       0.351   2.581   0.245  0.00  0.00    +0.000 OA
ATOM     11  N   UNL     1       1.541   0.595   0.061  0.00  0.00    +0.000 N 
ATOM     12  C   UNL     1       3.094  -1.080  -0.543  0.00  0.00    +0.000 C 
ATOM     13  C   UNL     1       3.825   0.037   0.205  0.00  0.00    +0.000 C 
ATOM     14  C   UNL     1       1.638  -0.851  -0.138  0.00  0.00    +0.000 C 
ATOM     15  C   UNL     1       2.861   1.208   0.082  0.00  0.00    +0.000 C 
ATOM     16  C   UNL     1       3.605  -2.467  -0.199  0.00  0.00    +0.000 C 
ATOM     17  C   UNL     1       0.385   1.356   0.146  0.00  0.00    +0.000 C 
ENDBRANCH   3  17
TORSDOF 1
