REMARK  Name = 62161692
REMARK  5 active torsions:
REMARK  status: ('A' for Active; 'I' for Inactive)
REMARK    1  A    between atoms: N_5  and  C_8
REMARK    2  A    between atoms: N_5  and  C_11
REMARK    3  A    between atoms: N_7  and  C_15
REMARK    4  A    between atoms: C_11  and  C_13
REMARK    5  A    between atoms: C_12  and  C_14
REMARK                            x       y       z     vdW  Elec       q    Type
REMARK                         _______ _______ _______ _____ _____    ______ ____
ROOT
ATOM      1  O   UNL     1       0.182   1.978   0.685  0.00  0.00    +0.000 OA
ATOM      2  N   UNL     1       0.937  -0.222   0.437  0.00  0.00    +0.000 N 
ATOM      3  C   UNL     1      -0.011   0.805   0.373  0.00  0.00    +0.000 C 
ENDROOT
BRANCH   3   5
ATOM      4  N   UNL     1      -3.747   0.331   0.228  0.00  0.00    +0.000 NA
ATOM      5  C   UNL     1      -1.358   0.467  -0.117  0.00  0.00    +0.000 A 
ATOM      6  C   UNL     1      -2.499   0.636   0.650  0.00  0.00    +0.000 A 
ATOM      7  C   UNL     1      -1.506  -0.049  -1.399  0.00  0.00    +0.000 A 
ATOM      8  C   UNL     1      -2.774  -0.374  -1.869  0.00  0.00    +0.000 A 
ATOM      9  C   UNL     1      -3.852  -0.168  -1.024  0.00  0.00    +0.000 A 
BRANCH   6  10
ATOM     10  N   UNL     1      -2.356   1.158   1.960  0.00  0.00    +0.000 N 
ATOM     11  H   UNL     1      -1.504   0.958   2.470  0.00  0.00    +0.000 HD
ATOM     12  H   UNL     1      -3.207   1.274   2.496  0.00  0.00    +0.000 HD
ENDBRANCH   6  10
ENDBRANCH   3   5
BRANCH   2  13
ATOM     13  C   UNL     1       0.670  -1.596   0.059  0.00  0.00    +0.000 C 
ATOM     14  C   UNL     1      -0.475  -2.357   0.659  0.00  0.00    +0.000 C 
ATOM     15  C   UNL     1       0.937  -2.729   1.006  0.00  0.00    +0.000 C 
ENDBRANCH   2  13
BRANCH   2  16
ATOM     16  C   UNL     1       2.305   0.076   0.842  0.00  0.00    +0.000 C 
BRANCH  16  20
ATOM     17  F   UNL     1       2.705   1.513  -0.991  0.00  0.00    +0.000 F 
ATOM     18  F   UNL     1       4.433   0.700   0.063  0.00  0.00    +0.000 F 
ATOM     19  F   UNL     1       3.238  -0.595  -1.222  0.00  0.00    +0.000 F 
ATOM     20  C   UNL     1       3.172   0.426  -0.340  0.00  0.00    +0.000 C 
ENDBRANCH  16  20
ENDBRANCH   2  16
TORSDOF 5
