REMARK  Name = 62160515
REMARK  6 active torsions:
REMARK  status: ('A' for Active; 'I' for Inactive)
REMARK    1  A    between atoms: N_5  and  C_8
REMARK    2  A    between atoms: N_5  and  C_9
REMARK    3  A    between atoms: C_8  and  C_10
REMARK    4  A    between atoms: C_9  and  C_12
REMARK    5  A    between atoms: C_10  and  C_13
REMARK    6  A    between atoms: C_11  and  C_14
REMARK                            x       y       z     vdW  Elec       q    Type
REMARK                         _______ _______ _______ _____ _____    ______ ____
ROOT
ATOM      1  O   UNL     1       0.574   1.718   1.416  0.00  0.00    +0.000 OA
ATOM      2  N   UNL     1       1.174  -0.285   0.367  0.00  0.00    +0.000 N 
ATOM      3  C   UNL     1       0.271   0.723   0.759  0.00  0.00    +0.000 C 
ENDROOT
BRANCH   3   6
ATOM      4  N   UNL     1      -2.909   1.038  -1.210  0.00  0.00    +0.000 NA
ATOM      5  N   UNL     1      -5.122   0.285  -0.749  0.00  0.00    +0.000 N 
ATOM      6  C   UNL     1      -1.147   0.596   0.385  0.00  0.00    +0.000 A 
ATOM      7  C   UNL     1      -2.052  -0.053   1.217  0.00  0.00    +0.000 A 
ATOM      8  C   UNL     1      -1.621   1.119  -0.807  0.00  0.00    +0.000 A 
ATOM      9  C   UNL     1      -3.386  -0.157   0.837  0.00  0.00    +0.000 A 
ATOM     10  C   UNL     1      -3.760   0.400  -0.375  0.00  0.00    +0.000 A 
ATOM     11  H   UNL     1      -5.652  -0.504  -0.401  0.00  0.00    +0.000 HD
ATOM     12  H   UNL     1      -5.390   0.689  -1.638  0.00  0.00    +0.000 HD
ENDBRANCH   3   6
BRANCH   2  13
ATOM     13  C   UNL     1       0.752  -1.423  -0.402  0.00  0.00    +0.000 C 
BRANCH  13  14
ATOM     14  C   UNL     1       0.313  -2.587   0.478  0.00  0.00    +0.000 C 
ATOM     15  C   UNL     1      -0.115  -3.805  -0.329  0.00  0.00    +0.000 C 
ENDBRANCH  13  14
ENDBRANCH   2  13
BRANCH   2  16
ATOM     16  C   UNL     1       2.599  -0.230   0.722  0.00  0.00    +0.000 C 
BRANCH  16  20
ATOM     17  F   UNL     1       4.711   0.531   0.024  0.00  0.00    +0.000 F 
ATOM     18  F   UNL     1       3.324  -0.126  -1.524  0.00  0.00    +0.000 F 
ATOM     19  F   UNL     1       2.987   1.766  -0.483  0.00  0.00    +0.000 F 
ATOM     20  C   UNL     1       3.407   0.492  -0.327  0.00  0.00    +0.000 C 
ENDBRANCH  16  20
ENDBRANCH   2  16
TORSDOF 5
