REMARK  Name = 62166888
REMARK  7 active torsions:
REMARK  status: ('A' for Active; 'I' for Inactive)
REMARK    1  A    between atoms: N_2  and  C_5
REMARK    2  A    between atoms: N_2  and  C_9
REMARK    3  A    between atoms: N_3  and  C_15
REMARK    4  A    between atoms: C_5  and  C_6
REMARK    5  A    between atoms: C_5  and  C_7
REMARK    6  A    between atoms: C_8  and  C_10
REMARK    7  A    between atoms: C_15  and  C_16
REMARK                            x       y       z     vdW  Elec       q    Type
REMARK                         _______ _______ _______ _____ _____    ______ ____
ROOT
ATOM      1  N   UNL     1      -3.831  -0.394  -0.178  0.00  0.00    +0.000 N 
ATOM      2  N   UNL     1      -1.696  -1.450  -0.223  0.00  0.00    +0.000 NA
ATOM      3  C   UNL     1       0.276  -0.170   0.341  0.00  0.00    +0.000 A 
ATOM      4  C   UNL     1      -0.508   0.958   0.555  0.00  0.00    +0.000 A 
ATOM      5  C   UNL     1      -0.360  -1.339  -0.044  0.00  0.00    +0.000 A 
ATOM      6  C   UNL     1      -2.426  -0.333  -0.005  0.00  0.00    +0.000 A 
ATOM      7  C   UNL     1      -1.886   0.883   0.381  0.00  0.00    +0.000 A 
ATOM      8  H   UNL     1      -4.212  -1.290  -0.460  0.00  0.00    +0.000 HD
ENDROOT
BRANCH   3  11
ATOM      9  O   UNL     1       2.159  -0.400   1.638  0.00  0.00    +0.000 OA
ATOM     10  N   UNL     1       2.521   0.219  -0.604  0.00  0.00    +0.000 N 
ATOM     11  C   UNL     1       1.736  -0.123   0.516  0.00  0.00    +0.000 C 
ATOM     12  C   UNL     1       1.920   0.533  -1.901  0.00  0.00    +0.000 C 
BRANCH  10  13
ATOM     13  C   UNL     1       3.961   0.278  -0.534  0.00  0.00    +0.000 C 
ATOM     14  C   UNL     1       4.531  -1.089  -0.180  0.00  0.00    +0.000 C 
ATOM     15  C   UNL     1       4.405   1.338   0.467  0.00  0.00    +0.000 C 
ENDBRANCH  10  13
ENDBRANCH   3  11
BRANCH   1  16
ATOM     16  C   UNL     1      -4.681   0.733   0.029  0.00  0.00    +0.000 C 
ATOM     17  C   UNL     1      -6.123   0.358  -0.256  0.00  0.00    +0.000 C 
ENDBRANCH   1  16
TORSDOF 3
