REMARK  Name = 62160163
REMARK  6 active torsions:
REMARK  status: ('A' for Active; 'I' for Inactive)
REMARK    1  A    between atoms: N_5  and  C_8
REMARK    2  A    between atoms: N_5  and  C_9
REMARK    3  A    between atoms: N_7  and  C_14
REMARK    4  A    between atoms: C_8  and  C_12
REMARK    5  A    between atoms: C_9  and  C_13
REMARK    6  A    between atoms: C_10  and  C_11
REMARK                            x       y       z     vdW  Elec       q    Type
REMARK                         _______ _______ _______ _____ _____    ______ ____
ROOT
ATOM      1  O   UNL     1       0.242   0.674  -1.932  0.00  0.00    +0.000 OA
ATOM      2  N   UNL     1       0.902  -0.701  -0.161  0.00  0.00    +0.000 N 
ATOM      3  C   UNL     1      -0.018   0.039  -0.910  0.00  0.00    +0.000 C 
ENDROOT
BRANCH   3   5
ATOM      4  N   UNL     1      -3.157   1.130   0.865  0.00  0.00    +0.000 NA
ATOM      5  C   UNL     1      -1.414   0.090  -0.449  0.00  0.00    +0.000 A 
ATOM      6  C   UNL     1      -1.881   1.060   0.423  0.00  0.00    +0.000 A 
ATOM      7  C   UNL     1      -2.314  -0.870  -0.897  0.00  0.00    +0.000 A 
ATOM      8  C   UNL     1      -3.635  -0.832  -0.465  0.00  0.00    +0.000 A 
ATOM      9  C   UNL     1      -4.003   0.179   0.408  0.00  0.00    +0.000 A 
BRANCH   6  10
ATOM     10  N   UNL     1      -0.969   2.042   0.886  0.00  0.00    +0.000 N 
ATOM     11  H   UNL     1       0.006   1.788   0.984  0.00  0.00    +0.000 HD
ATOM     12  H   UNL     1      -1.339   2.739   1.520  0.00  0.00    +0.000 HD
ENDBRANCH   6  10
ENDBRANCH   3   5
BRANCH   2  13
ATOM     13  C   UNL     1       0.517  -1.428   1.041  0.00  0.00    +0.000 C 
ATOM     14  C   UNL     1       0.088  -2.844   0.719  0.00  0.00    +0.000 C 
ENDBRANCH   2  13
BRANCH   2  15
ATOM     15  C   UNL     1       2.312  -0.796  -0.533  0.00  0.00    +0.000 C 
BRANCH  15  19
ATOM     16  F   UNL     1       3.070   0.245   1.448  0.00  0.00    +0.000 F 
ATOM     17  F   UNL     1       4.428   0.190  -0.257  0.00  0.00    +0.000 F 
ATOM     18  F   UNL     1       2.702   1.522  -0.288  0.00  0.00    +0.000 F 
ATOM     19  C   UNL     1       3.130   0.301   0.101  0.00  0.00    +0.000 C 
ENDBRANCH  15  19
ENDBRANCH   2  15
TORSDOF 5
