REMARK  Name = 62161013
REMARK  5 active torsions:
REMARK  status: ('A' for Active; 'I' for Inactive)
REMARK    1  A    between atoms: N_5  and  C_8
REMARK    2  A    between atoms: N_5  and  C_9
REMARK    3  A    between atoms: C_8  and  C_11
REMARK    4  A    between atoms: C_9  and  C_13
REMARK    5  A    between atoms: C_10  and  C_12
REMARK                            x       y       z     vdW  Elec       q    Type
REMARK                         _______ _______ _______ _____ _____    ______ ____
ROOT
ATOM      1  O   UNL     1       0.560   1.167  -1.707  0.00  0.00    +0.000 OA
ATOM      2  N   UNL     1       1.164  -0.563  -0.257  0.00  0.00    +0.000 N 
ATOM      3  C   UNL     1       0.268   0.326  -0.859  0.00  0.00    +0.000 C 
ENDROOT
BRANCH   3   6
ATOM      4  N   UNL     1      -2.893   1.058   1.028  0.00  0.00    +0.000 NA
ATOM      5  N   UNL     1      -5.105   0.209   0.775  0.00  0.00    +0.000 N 
ATOM      6  C   UNL     1      -1.145   0.278  -0.449  0.00  0.00    +0.000 A 
ATOM      7  C   UNL     1      -2.054  -0.546  -1.102  0.00  0.00    +0.000 A 
ATOM      8  C   UNL     1      -1.610   1.054   0.601  0.00  0.00    +0.000 A 
ATOM      9  C   UNL     1      -3.382  -0.569  -0.692  0.00  0.00    +0.000 A 
ATOM     10  C   UNL     1      -3.748   0.244   0.369  0.00  0.00    +0.000 A 
ATOM     11  H   UNL     1      -5.809  -0.022   0.085  0.00  0.00    +0.000 HD
ATOM     12  H   UNL     1      -5.369   0.809   1.546  0.00  0.00    +0.000 HD
ENDBRANCH   3   6
BRANCH   2  13
ATOM     13  C   UNL     1       0.741  -1.534   0.743  0.00  0.00    +0.000 C 
ATOM     14  C   UNL     1       0.331  -2.845   0.103  0.00  0.00    +0.000 C 
ENDBRANCH   2  13
BRANCH   2  15
ATOM     15  C   UNL     1       2.587  -0.578  -0.590  0.00  0.00    +0.000 C 
BRANCH  15  19
ATOM     16  F   UNL     1       3.269   0.002   1.597  0.00  0.00    +0.000 F 
ATOM     17  F   UNL     1       4.687   0.317  -0.029  0.00  0.00    +0.000 F 
ATOM     18  F   UNL     1       2.956   1.629   0.170  0.00  0.00    +0.000 F 
ATOM     19  C   UNL     1       3.376   0.352   0.297  0.00  0.00    +0.000 C 
ENDBRANCH  15  19
ENDBRANCH   2  15
TORSDOF 4
