REMARK  Name = 62160982
REMARK  7 active torsions:
REMARK  status: ('A' for Active; 'I' for Inactive)
REMARK    1  A    between atoms: N_2  and  C_5
REMARK    2  A    between atoms: C_5  and  C_6
REMARK    3  A    between atoms: C_5  and  C_7
REMARK    4  A    between atoms: C_6  and  C_8
REMARK    5  A    between atoms: C_7  and  C_9
REMARK    6  A    between atoms: C_8  and  C_10
REMARK    7  A    between atoms: C_11  and  C_12
REMARK                            x       y       z     vdW  Elec       q    Type
REMARK                         _______ _______ _______ _____ _____    ______ ____
ROOT
ATOM      1  O   UNL     1      -0.221   1.057  -1.959  0.00  0.00    +0.000 OA
ATOM      2  N   UNL     1      -1.107   0.265   0.032  0.00  0.00    +0.000 N 
ATOM      3  C   UNL     1      -0.075   0.564  -0.844  0.00  0.00    +0.000 C 
ATOM      4  H   UNL     1      -0.912  -0.154   0.935  0.00  0.00    +0.000 HD
ENDROOT
BRANCH   3   7
ATOM      5  N   UNL     1       3.573  -0.371  -0.910  0.00  0.00    +0.000 NA
ATOM      6  N   UNL     1       5.137  -0.727   0.852  0.00  0.00    +0.000 N 
ATOM      7  C   UNL     1       1.292   0.226  -0.373  0.00  0.00    +0.000 A 
ATOM      8  C   UNL     1       1.593   0.183   0.984  0.00  0.00    +0.000 A 
ATOM      9  C   UNL     1       2.308  -0.057  -1.271  0.00  0.00    +0.000 A 
ATOM     10  C   UNL     1       2.883  -0.136   1.395  0.00  0.00    +0.000 A 
ATOM     11  C   UNL     1       3.828  -0.403   0.417  0.00  0.00    +0.000 A 
ATOM     12  H   UNL     1       5.826  -0.915   0.134  0.00  0.00    +0.000 HD
ATOM     13  H   UNL     1       5.457  -0.354   1.737  0.00  0.00    +0.000 HD
ENDBRANCH   3   7
BRANCH   2  14
ATOM     14  C   UNL     1      -2.494   0.512  -0.291  0.00  0.00    +0.000 C 
BRANCH  14  15
ATOM     15  C   UNL     1      -2.888   1.954   0.067  0.00  0.00    +0.000 C 
ATOM     16  C   UNL     1      -2.842   2.279   1.554  0.00  0.00    +0.000 C 
ENDBRANCH  14  15
BRANCH  14  17
ATOM     17  C   UNL     1      -3.406  -0.537   0.365  0.00  0.00    +0.000 C 
BRANCH  17  18
ATOM     18  C   UNL     1      -3.359  -1.886  -0.360  0.00  0.00    +0.000 C 
ATOM     19  C   UNL     1      -4.223  -2.923   0.341  0.00  0.00    +0.000 C 
ENDBRANCH  17  18
ENDBRANCH  14  17
ENDBRANCH   2  14
TORSDOF 5
