REMARK  Name = 62160147
REMARK  3 active torsions:
REMARK  status: ('A' for Active; 'I' for Inactive)
REMARK    1  A    between atoms: N_4  and  C_12
REMARK    2  A    between atoms: C_5  and  C_9
REMARK    3  A    between atoms: C_10  and  C_11
REMARK                            x       y       z     vdW  Elec       q    Type
REMARK                         _______ _______ _______ _____ _____    ______ ____
ROOT
ATOM      1  N   UNL     1      -2.965  -0.640   1.025  0.00  0.00    +0.000 NA
ATOM      2  C   UNL     1      -1.185   0.380  -0.254  0.00  0.00    +0.000 A 
ATOM      3  C   UNL     1      -1.854   0.125   0.932  0.00  0.00    +0.000 A 
ATOM      4  C   UNL     1      -1.687  -0.187  -1.420  0.00  0.00    +0.000 A 
ATOM      5  C   UNL     1      -2.828  -0.980  -1.365  0.00  0.00    +0.000 A 
ATOM      6  C   UNL     1      -3.425  -1.174  -0.129  0.00  0.00    +0.000 A 
ENDROOT
BRANCH   2  14
ATOM      7  O   UNL     1      -0.129   2.418  -0.521  0.00  0.00    +0.000 OA
ATOM      8  N   UNL     1       1.249   0.583  -0.168  0.00  0.00    +0.000 N 
ATOM      9  C   UNL     1       2.990  -1.011  -0.281  0.00  0.00    +0.000 C 
ATOM     10  C   UNL     1       3.559   0.322   0.211  0.00  0.00    +0.000 C 
ATOM     11  C   UNL     1       1.494  -0.851  -0.011  0.00  0.00    +0.000 C 
ATOM     12  C   UNL     1       2.502   1.321  -0.233  0.00  0.00    +0.000 C 
ATOM     13  C   UNL     1       3.601  -2.217   0.408  0.00  0.00    +0.000 C 
ATOM     14  C   UNL     1       0.025   1.215  -0.322  0.00  0.00    +0.000 C 
ENDBRANCH   2  14
BRANCH   3  15
ATOM     15  N   UNL     1      -1.346   0.697   2.126  0.00  0.00    +0.000 N 
ATOM     16  H   UNL     1      -1.858   0.496   2.977  0.00  0.00    +0.000 HD
ATOM     17  H   UNL     1      -0.348   0.848   2.204  0.00  0.00    +0.000 HD
ENDBRANCH   3  15
TORSDOF 2
