REMARK  Name = 62172969
REMARK  5 active torsions:
REMARK  status: ('A' for Active; 'I' for Inactive)
REMARK    1  A    between atoms: N_5  and  C_9
REMARK    2  A    between atoms: N_6  and  C_10
REMARK    3  A    between atoms: N_6  and  C_16
REMARK    4  A    between atoms: C_8  and  C_11
REMARK    5  A    between atoms: C_9  and  C_13
REMARK                            x       y       z     vdW  Elec       q    Type
REMARK                         _______ _______ _______ _____ _____    ______ ____
ROOT
ATOM      1  N   UNL     1      -2.991   1.074  -0.050  0.00  0.00    +0.000 NA
ATOM      2  C   UNL     1      -1.300  -0.652   0.035  0.00  0.00    +0.000 A 
ATOM      3  C   UNL     1      -1.705   0.673   0.057  0.00  0.00    +0.000 A 
ATOM      4  C   UNL     1      -2.280  -1.629  -0.105  0.00  0.00    +0.000 A 
ATOM      5  C   UNL     1      -3.615  -1.256  -0.218  0.00  0.00    +0.000 A 
ATOM      6  C   UNL     1      -3.915   0.096  -0.185  0.00  0.00    +0.000 A 
ENDROOT
BRANCH   2   9
ATOM      7  O   UNL     1       0.457  -1.798   1.082  0.00  0.00    +0.000 OA
ATOM      8  N   UNL     1       0.976  -0.581  -0.822  0.00  0.00    +0.000 N 
ATOM      9  C   UNL     1       0.095  -1.053   0.156  0.00  0.00    +0.000 C 
ATOM     10  H   UNL     1       0.617   0.023  -1.556  0.00  0.00    +0.000 HD
BRANCH   8  11
ATOM     11  C   UNL     1       2.383  -0.909  -0.853  0.00  0.00    +0.000 C 
BRANCH  11  15
ATOM     12  F   UNL     1       2.833   0.121   1.226  0.00  0.00    +0.000 F 
ATOM     13  F   UNL     1       4.513  -0.245  -0.114  0.00  0.00    +0.000 F 
ATOM     14  F   UNL     1       3.080   1.332  -0.577  0.00  0.00    +0.000 F 
ATOM     15  C   UNL     1       3.204   0.086  -0.072  0.00  0.00    +0.000 C 
ENDBRANCH  11  15
ENDBRANCH   8  11
ENDBRANCH   2   9
BRANCH   3  16
ATOM     16  N   UNL     1      -0.712   1.675   0.203  0.00  0.00    +0.000 N 
ATOM     17  C   UNL     1      -1.022   3.066   0.237  0.00  0.00    +0.000 C 
ATOM     18  H   UNL     1       0.188   1.386   0.570  0.00  0.00    +0.000 HD
ENDBRANCH   3  16
TORSDOF 4
