REMARK  Name = 62173314
REMARK  6 active torsions:
REMARK  status: ('A' for Active; 'I' for Inactive)
REMARK    1  A    between atoms: N_5  and  C_8
REMARK    2  A    between atoms: N_6  and  C_15
REMARK    3  A    between atoms: C_8  and  C_9
REMARK    4  A    between atoms: C_9  and  C_12
REMARK    5  A    between atoms: C_11  and  C_16
REMARK    6  A    between atoms: C_15  and  C_18
REMARK                            x       y       z     vdW  Elec       q    Type
REMARK                         _______ _______ _______ _____ _____    ______ ____
ROOT
ATOM      1  N   UNL     1       3.801   0.707  -0.036  0.00  0.00    +0.000 N 
ATOM      2  N   UNL     1       1.625   1.446  -0.556  0.00  0.00    +0.000 NA
ATOM      3  C   UNL     1       2.455   0.432  -0.222  0.00  0.00    +0.000 A 
ATOM      4  C   UNL     1      -0.186  -0.155  -0.577  0.00  0.00    +0.000 A 
ATOM      5  C   UNL     1       2.046  -0.880  -0.050  0.00  0.00    +0.000 A 
ATOM      6  C   UNL     1       0.699  -1.171  -0.232  0.00  0.00    +0.000 A 
ATOM      7  C   UNL     1       0.323   1.125  -0.725  0.00  0.00    +0.000 A 
ATOM      8  H   UNL     1       4.093   1.669  -0.167  0.00  0.00    +0.000 HD
ENDROOT
BRANCH   4  11
ATOM      9  O   UNL     1      -1.984  -1.561  -1.115  0.00  0.00    +0.000 OA
ATOM     10  N   UNL     1      -2.490   0.628  -0.543  0.00  0.00    +0.000 N 
ATOM     11  C   UNL     1      -1.599  -0.427  -0.774  0.00  0.00    +0.000 C 
ATOM     12  H   UNL     1      -2.142   1.520  -0.207  0.00  0.00    +0.000 HD
BRANCH  10  13
ATOM     13  C   UNL     1      -3.924   0.509  -0.674  0.00  0.00    +0.000 C 
BRANCH  13  17
ATOM     14  F   UNL     1      -5.907  -0.012   0.475  0.00  0.00    +0.000 F 
ATOM     15  F   UNL     1      -4.110  -1.111   1.036  0.00  0.00    +0.000 F 
ATOM     16  F   UNL     1      -4.332   0.988   1.604  0.00  0.00    +0.000 F 
ATOM     17  C   UNL     1      -4.568   0.090   0.624  0.00  0.00    +0.000 C 
ENDBRANCH  13  17
ENDBRANCH  10  13
ENDBRANCH   4  11
BRANCH   1  18
ATOM     18  C   UNL     1       4.781  -0.291   0.322  0.00  0.00    +0.000 C 
BRANCH  18  19
ATOM     19  C   UNL     1       6.154   0.344   0.509  0.00  0.00    +0.000 C 
ATOM     20  C   UNL     1       7.217  -0.661   0.932  0.00  0.00    +0.000 C 
ENDBRANCH  18  19
ENDBRANCH   1  18
TORSDOF 5
