REMARK  Name = 62173149
REMARK  4 active torsions:
REMARK  status: ('A' for Active; 'I' for Inactive)
REMARK    1  A    between atoms: N_5  and  C_8
REMARK    2  A    between atoms: N_7  and  C_16
REMARK    3  A    between atoms: C_8  and  C_12
REMARK    4  A    between atoms: C_9  and  C_10
REMARK                            x       y       z     vdW  Elec       q    Type
REMARK                         _______ _______ _______ _____ _____    ______ ____
ROOT
ATOM      1  N   UNL     1       2.838  -0.926   0.344  0.00  0.00    +0.000 NA
ATOM      2  N   UNL     1       4.672   0.595   0.344  0.00  0.00    +0.000 N 
ATOM      3  C   UNL     1       0.674  -0.179  -0.434  0.00  0.00    +0.000 A 
ATOM      4  C   UNL     1       1.194   1.085  -0.689  0.00  0.00    +0.000 A 
ATOM      5  C   UNL     1       3.308   0.315   0.084  0.00  0.00    +0.000 A 
ATOM      6  C   UNL     1       2.535   1.345  -0.428  0.00  0.00    +0.000 A 
ATOM      7  C   UNL     1       1.530  -1.141   0.078  0.00  0.00    +0.000 A 
ATOM      8  C   UNL     1       5.572  -0.379   0.871  0.00  0.00    +0.000 C 
ATOM      9  H   UNL     1       4.948   1.571   0.363  0.00  0.00    +0.000 HD
ENDROOT
BRANCH   3  12
ATOM     10  O   UNL     1      -1.083  -1.649  -0.934  0.00  0.00    +0.000 OA
ATOM     11  N   UNL     1      -1.626   0.587  -0.643  0.00  0.00    +0.000 N 
ATOM     12  C   UNL     1      -0.722  -0.482  -0.696  0.00  0.00    +0.000 C 
ATOM     13  H   UNL     1      -1.302   1.512  -0.385  0.00  0.00    +0.000 HD
BRANCH  11  14
ATOM     14  C   UNL     1      -3.048   0.443  -0.858  0.00  0.00    +0.000 C 
BRANCH  14  18
ATOM     15  F   UNL     1      -3.611   1.167   1.320  0.00  0.00    +0.000 F 
ATOM     16  F   UNL     1      -5.105   0.038   0.204  0.00  0.00    +0.000 F 
ATOM     17  F   UNL     1      -3.351  -0.980   1.004  0.00  0.00    +0.000 F 
ATOM     18  C   UNL     1      -3.779   0.165   0.431  0.00  0.00    +0.000 C 
ENDBRANCH  14  18
ENDBRANCH  11  14
ENDBRANCH   3  12
TORSDOF 3
