REMARK  Name = 62171314
REMARK  5 active torsions:
REMARK  status: ('A' for Active; 'I' for Inactive)
REMARK    1  A    between atoms: N_2  and  C_5
REMARK    2  A    between atoms: N_2  and  C_7
REMARK    3  A    between atoms: N_4  and  C_13
REMARK    4  A    between atoms: C_6  and  C_9
REMARK    5  A    between atoms: C_7  and  C_10
REMARK                            x       y       z     vdW  Elec       q    Type
REMARK                         _______ _______ _______ _____ _____    ______ ____
ROOT
ATOM      1  N   UNL     1       1.800   1.198   0.160  0.00  0.00    +0.000 NA
ATOM      2  C   UNL     1       0.831   0.268   0.003  0.00  0.00    +0.000 A 
ATOM      3  C   UNL     1      -0.512   0.567  -0.158  0.00  0.00    +0.000 A 
ATOM      4  C   UNL     1      -0.886   1.906  -0.157  0.00  0.00    +0.000 A 
ATOM      5  C   UNL     1       0.082   2.892   0.002  0.00  0.00    +0.000 A 
ATOM      6  C   UNL     1       1.399   2.489   0.155  0.00  0.00    +0.000 A 
ENDROOT
BRANCH   3   9
ATOM      7  O   UNL     1      -1.473  -1.262  -1.267  0.00  0.00    +0.000 OA
ATOM      8  N   UNL     1      -2.549  -0.499   0.640  0.00  0.00    +0.000 N 
ATOM      9  C   UNL     1      -1.534  -0.459  -0.321  0.00  0.00    +0.000 C 
ATOM     10  C   UNL     1      -3.619  -1.471   0.628  0.00  0.00    +0.000 C 
ATOM     11  H   UNL     1      -2.551   0.192   1.384  0.00  0.00    +0.000 HD
ENDBRANCH   3   9
BRANCH   2  12
ATOM     12  N   UNL     1       1.220  -1.096   0.006  0.00  0.00    +0.000 N 
ATOM     13  H   UNL     1       0.579  -1.744  -0.440  0.00  0.00    +0.000 HD
BRANCH  12  14
ATOM     14  C   UNL     1       2.575  -1.509   0.164  0.00  0.00    +0.000 C 
ATOM     15  C   UNL     1       2.665  -3.023   0.147  0.00  0.00    +0.000 C 
ENDBRANCH  12  14
ENDBRANCH   2  12
TORSDOF 3
