REMARK  Name = 62172198
REMARK  5 active torsions:
REMARK  status: ('A' for Active; 'I' for Inactive)
REMARK    1  A    between atoms: N_2  and  C_7
REMARK    2  A    between atoms: N_3  and  C_6
REMARK    3  A    between atoms: N_3  and  C_13
REMARK    4  A    between atoms: C_5  and  C_8
REMARK    5  A    between atoms: C_7  and  C_10
REMARK                            x       y       z     vdW  Elec       q    Type
REMARK                         _______ _______ _______ _____ _____    ______ ____
ROOT
ATOM      1  N   UNL     1      -2.332   0.853  -0.080  0.00  0.00    +0.000 NA
ATOM      2  C   UNL     1      -0.414  -0.612   0.068  0.00  0.00    +0.000 A 
ATOM      3  C   UNL     1      -1.003   0.642   0.053  0.00  0.00    +0.000 A 
ATOM      4  C   UNL     1      -1.242  -1.721  -0.063  0.00  0.00    +0.000 A 
ATOM      5  C   UNL     1      -2.614  -1.545  -0.203  0.00  0.00    +0.000 A 
ATOM      6  C   UNL     1      -3.105  -0.250  -0.205  0.00  0.00    +0.000 A 
ENDROOT
BRANCH   2   9
ATOM      7  O   UNL     1       1.472  -1.472   1.164  0.00  0.00    +0.000 OA
ATOM      8  N   UNL     1       1.843  -0.234  -0.761  0.00  0.00    +0.000 N 
ATOM      9  C   UNL     1       1.022  -0.807   0.216  0.00  0.00    +0.000 C 
ATOM     10  H   UNL     1       1.413   0.295  -1.514  0.00  0.00    +0.000 HD
BRANCH   8  11
ATOM     11  C   UNL     1       3.283  -0.359  -0.765  0.00  0.00    +0.000 C 
ATOM     12  C   UNL     1       3.927   0.615   0.201  0.00  0.00    +0.000 C 
ENDBRANCH   8  11
ENDBRANCH   2   9
BRANCH   3  13
ATOM     13  N   UNL     1      -0.166   1.778   0.189  0.00  0.00    +0.000 N 
ATOM     14  C   UNL     1      -0.672   3.112   0.186  0.00  0.00    +0.000 C 
ATOM     15  H   UNL     1       0.760   1.629   0.574  0.00  0.00    +0.000 HD
ENDBRANCH   3  13
TORSDOF 3
