REMARK  Name = 62170639
REMARK  6 active torsions:
REMARK  status: ('A' for Active; 'I' for Inactive)
REMARK    1  A    between atoms: N_2  and  C_6
REMARK    2  A    between atoms: N_2  and  C_7
REMARK    3  A    between atoms: N_3  and  C_9
REMARK    4  A    between atoms: C_5  and  C_8
REMARK    5  A    between atoms: C_7  and  C_11
REMARK    6  A    between atoms: C_9  and  C_13
REMARK                            x       y       z     vdW  Elec       q    Type
REMARK                         _______ _______ _______ _____ _____    ______ ____
ROOT
ATOM      1  N   UNL     1      -2.300   0.773  -0.124  0.00  0.00    +0.000 NA
ATOM      2  C   UNL     1      -0.527  -0.858   0.077  0.00  0.00    +0.000 A 
ATOM      3  C   UNL     1      -0.997   0.445   0.015  0.00  0.00    +0.000 A 
ATOM      4  C   UNL     1      -1.456  -1.889  -0.008  0.00  0.00    +0.000 A 
ATOM      5  C   UNL     1      -2.806  -1.591  -0.151  0.00  0.00    +0.000 A 
ATOM      6  C   UNL     1      -3.174  -0.256  -0.204  0.00  0.00    +0.000 A 
ENDROOT
BRANCH   2   9
ATOM      7  O   UNL     1       1.276  -1.848   1.202  0.00  0.00    +0.000 OA
ATOM      8  N   UNL     1       1.750  -0.726  -0.771  0.00  0.00    +0.000 N 
ATOM      9  C   UNL     1       0.885  -1.180   0.230  0.00  0.00    +0.000 C 
ATOM     10  H   UNL     1       1.368  -0.188  -1.543  0.00  0.00    +0.000 HD
BRANCH   8  11
ATOM     11  C   UNL     1       3.172  -0.985  -0.773  0.00  0.00    +0.000 C 
ATOM     12  C   UNL     1       3.880  -0.023   0.161  0.00  0.00    +0.000 C 
ENDBRANCH   8  11
ENDBRANCH   2   9
BRANCH   3  13
ATOM     13  N   UNL     1      -0.056   1.502   0.103  0.00  0.00    +0.000 N 
ATOM     14  H   UNL     1       0.835   1.274   0.532  0.00  0.00    +0.000 HD
BRANCH  13  15
ATOM     15  C   UNL     1      -0.435   2.875   0.050  0.00  0.00    +0.000 C 
ATOM     16  C   UNL     1       0.788   3.761   0.193  0.00  0.00    +0.000 C 
ENDBRANCH  13  15
ENDBRANCH   3  13
TORSDOF 4
