REMARK  Name = 62173148
REMARK  6 active torsions:
REMARK  status: ('A' for Active; 'I' for Inactive)
REMARK    1  A    between atoms: N_5  and  C_9
REMARK    2  A    between atoms: N_5  and  C_12
REMARK    3  A    between atoms: N_6  and  C_11
REMARK    4  A    between atoms: C_8  and  C_10
REMARK    5  A    between atoms: C_11  and  C_14
REMARK    6  A    between atoms: C_12  and  C_15
REMARK                            x       y       z     vdW  Elec       q    Type
REMARK                         _______ _______ _______ _____ _____    ______ ____
ROOT
ATOM      1  N   UNL     1      -2.994   0.883  -0.110  0.00  0.00    +0.000 NA
ATOM      2  C   UNL     1      -1.327  -0.860   0.050  0.00  0.00    +0.000 A 
ATOM      3  C   UNL     1      -1.712   0.470   0.013  0.00  0.00    +0.000 A 
ATOM      4  C   UNL     1      -2.320  -1.829  -0.047  0.00  0.00    +0.000 A 
ATOM      5  C   UNL     1      -3.650  -1.442  -0.176  0.00  0.00    +0.000 A 
ATOM      6  C   UNL     1      -3.931  -0.086  -0.202  0.00  0.00    +0.000 A 
ENDROOT
BRANCH   2   9
ATOM      7  O   UNL     1       0.416  -1.984   1.145  0.00  0.00    +0.000 OA
ATOM      8  N   UNL     1       0.949  -0.859  -0.811  0.00  0.00    +0.000 N 
ATOM      9  C   UNL     1       0.062  -1.275   0.187  0.00  0.00    +0.000 C 
ATOM     10  H   UNL     1       0.598  -0.282  -1.571  0.00  0.00    +0.000 HD
BRANCH   8  11
ATOM     11  C   UNL     1       2.352  -1.208  -0.829  0.00  0.00    +0.000 C 
BRANCH  11  15
ATOM     12  F   UNL     1       2.818  -0.094   1.203  0.00  0.00    +0.000 F 
ATOM     13  F   UNL     1       4.492  -0.542  -0.121  0.00  0.00    +0.000 F 
ATOM     14  F   UNL     1       3.080   1.033  -0.651  0.00  0.00    +0.000 F 
ATOM     15  C   UNL     1       3.187  -0.191  -0.092  0.00  0.00    +0.000 C 
ENDBRANCH  11  15
ENDBRANCH   8  11
ENDBRANCH   2   9
BRANCH   3  16
ATOM     16  N   UNL     1      -0.706   1.463   0.115  0.00  0.00    +0.000 N 
ATOM     17  H   UNL     1       0.171   1.171   0.534  0.00  0.00    +0.000 HD
BRANCH  16  18
ATOM     18  C   UNL     1      -0.997   2.859   0.088  0.00  0.00    +0.000 C 
ATOM     19  C   UNL     1       0.281   3.662   0.238  0.00  0.00    +0.000 C 
ENDBRANCH  16  18
ENDBRANCH   3  16
TORSDOF 5
