REMARK  Name = 62171627
REMARK  6 active torsions:
REMARK  status: ('A' for Active; 'I' for Inactive)
REMARK    1  A    between atoms: N_2  and  C_5
REMARK    2  A    between atoms: N_2  and  C_6
REMARK    3  A    between atoms: N_4  and  C_15
REMARK    4  A    between atoms: C_5  and  C_9
REMARK    5  A    between atoms: C_6  and  C_10
REMARK    6  A    between atoms: C_7  and  C_8
REMARK                            x       y       z     vdW  Elec       q    Type
REMARK                         _______ _______ _______ _____ _____    ______ ____
ROOT
ATOM      1  N   UNL     1      -2.154   0.399   0.841  0.00  0.00    +0.000 NA
ATOM      2  N   UNL     1      -4.050  -0.043  -0.534  0.00  0.00    +0.000 N 
ATOM      3  C   UNL     1      -0.004  -0.522   0.233  0.00  0.00    +0.000 A 
ATOM      4  C   UNL     1      -0.569  -1.121  -0.888  0.00  0.00    +0.000 A 
ATOM      5  C   UNL     1      -0.832   0.221   1.058  0.00  0.00    +0.000 A 
ATOM      6  C   UNL     1      -1.926  -0.961  -1.145  0.00  0.00    +0.000 A 
ATOM      7  C   UNL     1      -2.668  -0.198  -0.258  0.00  0.00    +0.000 A 
ATOM      8  C   UNL     1      -4.921   0.717   0.301  0.00  0.00    +0.000 C 
ATOM      9  H   UNL     1      -4.458  -0.673  -1.216  0.00  0.00    +0.000 HD
ENDROOT
BRANCH   3  12
ATOM     10  O   UNL     1       1.741  -1.640   1.227  0.00  0.00    +0.000 OA
ATOM     11  N   UNL     1       2.321   0.267   0.006  0.00  0.00    +0.000 N 
ATOM     12  C   UNL     1       1.429  -0.673   0.533  0.00  0.00    +0.000 C 
BRANCH  11  13
ATOM     13  C   UNL     1       1.872   1.391  -0.813  0.00  0.00    +0.000 C 
ATOM     14  C   UNL     1       1.558   2.605   0.037  0.00  0.00    +0.000 C 
ENDBRANCH  11  13
BRANCH  11  15
ATOM     15  C   UNL     1       3.756   0.189   0.236  0.00  0.00    +0.000 C 
ATOM     16  C   UNL     1       4.447  -0.628  -0.836  0.00  0.00    +0.000 C 
ENDBRANCH  11  15
ENDBRANCH   3  12
TORSDOF 3
