REMARK  Name = 62181091
REMARK  5 active torsions:
REMARK  status: ('A' for Active; 'I' for Inactive)
REMARK    1  A    between atoms: N_5  and  C_8
REMARK    2  A    between atoms: N_5  and  C_11
REMARK    3  A    between atoms: N_7  and  C_17
REMARK    4  A    between atoms: C_8  and  C_12
REMARK    5  A    between atoms: C_9  and  C_10
REMARK                            x       y       z     vdW  Elec       q    Type
REMARK                         _______ _______ _______ _____ _____    ______ ____
ROOT
ATOM      1  O   UNL     1       1.008   1.296   1.515  0.00  0.00    +0.000 OA
ATOM      2  N   UNL     1       1.552   0.504  -0.616  0.00  0.00    +0.000 N 
ATOM      3  C   UNL     1       0.678   0.819   0.429  0.00  0.00    +0.000 C 
ATOM      4  C   UNL     1       1.084  -0.058  -1.875  0.00  0.00    +0.000 C 
ENDROOT
BRANCH   3   7
ATOM      5  N   UNL     1      -2.619  -0.974   0.460  0.00  0.00    +0.000 NA
ATOM      6  N   UNL     1      -4.789  -0.282  -0.241  0.00  0.00    +0.000 N 
ATOM      7  C   UNL     1      -0.757   0.553   0.244  0.00  0.00    +0.000 A 
ATOM      8  C   UNL     1      -1.601   1.518  -0.296  0.00  0.00    +0.000 A 
ATOM      9  C   UNL     1      -1.310  -0.665   0.603  0.00  0.00    +0.000 A 
ATOM     10  C   UNL     1      -3.409  -0.012  -0.069  0.00  0.00    +0.000 A 
ATOM     11  C   UNL     1      -2.954   1.237  -0.459  0.00  0.00    +0.000 A 
ATOM     12  C   UNL     1      -5.380  -1.529   0.121  0.00  0.00    +0.000 C 
ATOM     13  H   UNL     1      -5.312   0.348  -0.839  0.00  0.00    +0.000 HD
ENDBRANCH   3   7
BRANCH   2  14
ATOM     14  C   UNL     1       2.994   0.719  -0.517  0.00  0.00    +0.000 C 
BRANCH  14  18
ATOM     15  F   UNL     1       3.513  -1.575  -0.742  0.00  0.00    +0.000 F 
ATOM     16  F   UNL     1       5.030  -0.268   0.120  0.00  0.00    +0.000 F 
ATOM     17  F   UNL     1       3.260  -0.790   1.282  0.00  0.00    +0.000 F 
ATOM     18  C   UNL     1       3.700  -0.491   0.041  0.00  0.00    +0.000 C 
ENDBRANCH  14  18
ENDBRANCH   2  14
TORSDOF 3
