REMARK  Name = 62181340
REMARK  6 active torsions:
REMARK  status: ('A' for Active; 'I' for Inactive)
REMARK    1  A    between atoms: N_5  and  C_8
REMARK    2  A    between atoms: N_5  and  C_9
REMARK    3  A    between atoms: N_7  and  C_18
REMARK    4  A    between atoms: C_8  and  C_12
REMARK    5  A    between atoms: C_9  and  C_13
REMARK    6  A    between atoms: C_10  and  C_11
REMARK                            x       y       z     vdW  Elec       q    Type
REMARK                         _______ _______ _______ _____ _____    ______ ____
ROOT
ATOM      1  O   UNL     1       0.935  -1.252   1.651  0.00  0.00    +0.000 OA
ATOM      2  N   UNL     1       1.486   0.549   0.267  0.00  0.00    +0.000 N 
ATOM      3  C   UNL     1       0.618  -0.393   0.829  0.00  0.00    +0.000 C 
ENDROOT
BRANCH   3   6
ATOM      4  N   UNL     1      -3.042   0.431   0.739  0.00  0.00    +0.000 NA
ATOM      5  N   UNL     1      -4.781  -0.301  -0.715  0.00  0.00    +0.000 N 
ATOM      6  C   UNL     1      -0.791  -0.385   0.406  0.00  0.00    +0.000 A 
ATOM      7  C   UNL     1      -1.219  -1.143  -0.678  0.00  0.00    +0.000 A 
ATOM      8  C   UNL     1      -1.734   0.379   1.075  0.00  0.00    +0.000 A 
ATOM      9  C   UNL     1      -2.557  -1.115  -1.054  0.00  0.00    +0.000 A 
ATOM     10  C   UNL     1      -3.421  -0.319  -0.320  0.00  0.00    +0.000 A 
ATOM     11  C   UNL     1      -5.769   0.477  -0.042  0.00  0.00    +0.000 C 
ATOM     12  H   UNL     1      -5.088  -1.030  -1.350  0.00  0.00    +0.000 HD
ENDBRANCH   3   6
BRANCH   2  13
ATOM     13  C   UNL     1       1.035   1.537  -0.703  0.00  0.00    +0.000 C 
ATOM     14  C   UNL     1       0.570   2.809  -0.024  0.00  0.00    +0.000 C 
ENDBRANCH   2  13
BRANCH   2  15
ATOM     15  C   UNL     1       2.904   0.607   0.615  0.00  0.00    +0.000 C 
BRANCH  15  19
ATOM     16  F   UNL     1       5.041  -0.190   0.046  0.00  0.00    +0.000 F 
ATOM     17  F   UNL     1       3.363  -1.558  -0.216  0.00  0.00    +0.000 F 
ATOM     18  F   UNL     1       3.627   0.127  -1.583  0.00  0.00    +0.000 F 
ATOM     19  C   UNL     1       3.736  -0.262  -0.295  0.00  0.00    +0.000 C 
ENDBRANCH  15  19
ENDBRANCH   2  15
TORSDOF 4
