REMARK  Name = 62415572
REMARK  3 active torsions:
REMARK  status: ('A' for Active; 'I' for Inactive)
REMARK    1  A    between atoms: N_2  and  C_5
REMARK    2  A    between atoms: N_2  and  C_9
REMARK    3  A    between atoms: C_10  and  C_12
REMARK                            x       y       z     vdW  Elec       q    Type
REMARK                         _______ _______ _______ _____ _____    ______ ____
ROOT
ATOM      1  N   UNL     1      -0.170   1.756  -0.220  0.00  0.00    +0.000 NA
ATOM      2  C   UNL     1      -0.291   0.410  -0.182  0.00  0.00    +0.000 A 
ATOM      3  C   UNL     1      -1.492  -0.255   0.006  0.00  0.00    +0.000 A 
ATOM      4  C   UNL     1      -2.642   0.511   0.165  0.00  0.00    +0.000 A 
ATOM      5  C   UNL     1      -1.309   2.467  -0.063  0.00  0.00    +0.000 A 
ATOM      6  C   UNL     1      -2.557   1.898   0.131  0.00  0.00    +0.000 A 
ENDROOT
BRANCH   3   9
ATOM      7  O   UNL     1      -1.776  -2.371  -0.987  0.00  0.00    +0.000 OA
ATOM      8  N   UNL     1      -1.453  -2.330   1.283  0.00  0.00    +0.000 N 
ATOM      9  C   UNL     1      -1.591  -1.707   0.046  0.00  0.00    +0.000 C 
ATOM     10  H   UNL     1      -1.293  -1.804   2.136  0.00  0.00    +0.000 HD
ATOM     11  H   UNL     1      -1.506  -3.339   1.367  0.00  0.00    +0.000 HD
ENDBRANCH   3   9
BRANCH   2  12
ATOM     12  N   UNL     1       0.873  -0.354  -0.340  0.00  0.00    +0.000 N 
ATOM     13  H   UNL     1       0.716  -1.303  -0.668  0.00  0.00    +0.000 HD
BRANCH  12  14
ATOM     14  C   UNL     1       2.207   0.128  -0.544  0.00  0.00    +0.000 C 
ATOM     15  C   UNL     1       2.806   0.773   0.723  0.00  0.00    +0.000 C 
ATOM     16  C   UNL     1       3.269  -0.980  -0.390  0.00  0.00    +0.000 C 
ATOM     17  C   UNL     1       4.125   0.053   0.372  0.00  0.00    +0.000 C 
ENDBRANCH  12  14
ENDBRANCH   2  12
TORSDOF 3
