REMARK  Name = 63228068
REMARK  5 active torsions:
REMARK  status: ('A' for Active; 'I' for Inactive)
REMARK    1  A    between atoms: N_5  and  C_8
REMARK    2  A    between atoms: N_7  and  C_13
REMARK    3  A    between atoms: C_8  and  C_9
REMARK    4  A    between atoms: C_9  and  C_10
REMARK    5  A    between atoms: C_11  and  C_12
REMARK                            x       y       z     vdW  Elec       q    Type
REMARK                         _______ _______ _______ _____ _____    ______ ____
ROOT
ATOM      1  O   UNL     1       0.317  -1.512   1.687  0.00  0.00    +0.000 OA
ATOM      2  N   UNL     1      -0.719  -1.045  -0.335  0.00  0.00    +0.000 N 
ATOM      3  C   UNL     1       0.353  -1.048   0.551  0.00  0.00    +0.000 C 
ATOM      4  H   UNL     1      -0.606  -0.620  -1.251  0.00  0.00    +0.000 HD
ENDROOT
BRANCH   3   6
ATOM      5  N   UNL     1       3.328   1.269   0.275  0.00  0.00    +0.000 NA
ATOM      6  C   UNL     1       1.605  -0.414   0.065  0.00  0.00    +0.000 A 
ATOM      7  C   UNL     1       2.191   0.671   0.696  0.00  0.00    +0.000 A 
ATOM      8  C   UNL     1       2.227  -0.919  -1.072  0.00  0.00    +0.000 A 
ATOM      9  C   UNL     1       3.398  -0.331  -1.536  0.00  0.00    +0.000 A 
ATOM     10  C   UNL     1       3.903   0.751  -0.834  0.00  0.00    +0.000 A 
BRANCH   7  11
ATOM     11  N   UNL     1       1.561   1.194   1.854  0.00  0.00    +0.000 N 
ATOM     12  H   UNL     1       0.554   1.125   1.931  0.00  0.00    +0.000 HD
ATOM     13  H   UNL     1       2.013   1.985   2.296  0.00  0.00    +0.000 HD
ENDBRANCH   7  11
ENDBRANCH   3   6
BRANCH   2  14
ATOM     14  C   UNL     1      -2.003  -1.597  -0.003  0.00  0.00    +0.000 C 
BRANCH  14  15
ATOM     15  C   UNL     1      -2.934  -0.571   0.632  0.00  0.00    +0.000 C 
BRANCH  15  19
ATOM     16  F   UNL     1      -3.832   0.208  -1.424  0.00  0.00    +0.000 F 
ATOM     17  F   UNL     1      -4.054   1.493   0.329  0.00  0.00    +0.000 F 
ATOM     18  F   UNL     1      -2.101   1.250  -0.609  0.00  0.00    +0.000 F 
ATOM     19  C   UNL     1      -3.240   0.603  -0.277  0.00  0.00    +0.000 C 
ENDBRANCH  15  19
ENDBRANCH  14  15
ENDBRANCH   2  14
TORSDOF 5
