REMARK  Name = 63227522
REMARK  5 active torsions:
REMARK  status: ('A' for Active; 'I' for Inactive)
REMARK    1  A    between atoms: N_5  and  C_8
REMARK    2  A    between atoms: N_7  and  C_17
REMARK    3  A    between atoms: C_8  and  C_9
REMARK    4  A    between atoms: C_9  and  C_10
REMARK    5  A    between atoms: C_11  and  C_12
REMARK                            x       y       z     vdW  Elec       q    Type
REMARK                         _______ _______ _______ _____ _____    ______ ____
ROOT
ATOM      1  O   UNL     1      -0.490   2.331   0.640  0.00  0.00    +0.000 OA
ATOM      2  N   UNL     1      -1.367   0.697  -0.755  0.00  0.00    +0.000 N 
ATOM      3  C   UNL     1      -0.360   1.292  -0.002  0.00  0.00    +0.000 C 
ATOM      4  H   UNL     1      -1.176  -0.136  -1.302  0.00  0.00    +0.000 HD
ENDROOT
BRANCH   3   7
ATOM      5  N   UNL     1       3.364   0.758   0.188  0.00  0.00    +0.000 NA
ATOM      6  N   UNL     1       4.684  -1.212  -0.045  0.00  0.00    +0.000 N 
ATOM      7  C   UNL     1       0.960   0.609  -0.018  0.00  0.00    +0.000 A 
ATOM      8  C   UNL     1       1.056  -0.760  -0.242  0.00  0.00    +0.000 A 
ATOM      9  C   UNL     1       2.133   1.317   0.190  0.00  0.00    +0.000 A 
ATOM     10  C   UNL     1       3.418  -0.575  -0.033  0.00  0.00    +0.000 A 
ATOM     11  C   UNL     1       2.305  -1.371  -0.251  0.00  0.00    +0.000 A 
ATOM     12  C   UNL     1       5.904  -0.504   0.166  0.00  0.00    +0.000 C 
ATOM     13  H   UNL     1       4.726  -2.148  -0.434  0.00  0.00    +0.000 HD
ENDBRANCH   3   7
BRANCH   2  14
ATOM     14  C   UNL     1      -2.688   1.250  -0.859  0.00  0.00    +0.000 C 
BRANCH  14  15
ATOM     15  C   UNL     1      -3.627   0.730   0.224  0.00  0.00    +0.000 C 
BRANCH  15  19
ATOM     16  F   UNL     1      -2.601  -1.405   0.394  0.00  0.00    +0.000 F 
ATOM     17  F   UNL     1      -4.631  -1.194   1.172  0.00  0.00    +0.000 F 
ATOM     18  F   UNL     1      -4.278  -1.188  -0.979  0.00  0.00    +0.000 F 
ATOM     19  C   UNL     1      -3.781  -0.778   0.209  0.00  0.00    +0.000 C 
ENDBRANCH  15  19
ENDBRANCH  14  15
ENDBRANCH   2  14
TORSDOF 4
