REMARK  Name = 63227880
REMARK  4 active torsions:
REMARK  status: ('A' for Active; 'I' for Inactive)
REMARK    1  A    between atoms: N_5  and  C_8
REMARK    2  A    between atoms: C_8  and  C_9
REMARK    3  A    between atoms: C_9  and  C_10
REMARK    4  A    between atoms: C_11  and  C_12
REMARK                            x       y       z     vdW  Elec       q    Type
REMARK                         _______ _______ _______ _____ _____    ______ ____
ROOT
ATOM      1  O   UNL     1      -0.064   2.306   0.634  0.00  0.00    +0.000 OA
ATOM      2  N   UNL     1      -0.973   0.687  -0.756  0.00  0.00    +0.000 N 
ATOM      3  C   UNL     1       0.043   1.260   0.000  0.00  0.00    +0.000 C 
ATOM      4  H   UNL     1      -0.801  -0.154  -1.297  0.00  0.00    +0.000 HD
ENDROOT
BRANCH   3   7
ATOM      5  N   UNL     1       3.749   0.626   0.223  0.00  0.00    +0.000 NA
ATOM      6  N   UNL     1       5.017  -1.380   0.013  0.00  0.00    +0.000 N 
ATOM      7  C   UNL     1       1.344   0.541  -0.001  0.00  0.00    +0.000 A 
ATOM      8  C   UNL     1       1.405  -0.831  -0.215  0.00  0.00    +0.000 A 
ATOM      9  C   UNL     1       2.534   1.218   0.212  0.00  0.00    +0.000 A 
ATOM     10  C   UNL     1       2.637  -1.476  -0.210  0.00  0.00    +0.000 A 
ATOM     11  C   UNL     1       3.769  -0.709   0.012  0.00  0.00    +0.000 A 
ATOM     12  H   UNL     1       5.039  -2.355   0.285  0.00  0.00    +0.000 HD
ATOM     13  H   UNL     1       5.841  -0.817   0.182  0.00  0.00    +0.000 HD
ENDBRANCH   3   7
BRANCH   2  14
ATOM     14  C   UNL     1      -2.279   1.275  -0.875  0.00  0.00    +0.000 C 
BRANCH  14  15
ATOM     15  C   UNL     1      -3.239   0.788   0.204  0.00  0.00    +0.000 C 
BRANCH  15  19
ATOM     16  F   UNL     1      -2.273  -1.372   0.396  0.00  0.00    +0.000 F 
ATOM     17  F   UNL     1      -4.303  -1.101   1.157  0.00  0.00    +0.000 F 
ATOM     18  F   UNL     1      -3.933  -1.119  -0.992  0.00  0.00    +0.000 F 
ATOM     19  C   UNL     1      -3.434  -0.715   0.198  0.00  0.00    +0.000 C 
ENDBRANCH  15  19
ENDBRANCH  14  15
ENDBRANCH   2  14
TORSDOF 4
