REMARK  Name = 63227520
REMARK  7 active torsions:
REMARK  status: ('A' for Active; 'I' for Inactive)
REMARK    1  A    between atoms: N_5  and  C_8
REMARK    2  A    between atoms: N_6  and  C_11
REMARK    3  A    between atoms: N_6  and  C_14
REMARK    4  A    between atoms: C_8  and  C_9
REMARK    5  A    between atoms: C_9  and  C_13
REMARK    6  A    between atoms: C_10  and  C_12
REMARK    7  A    between atoms: C_14  and  C_17
REMARK                            x       y       z     vdW  Elec       q    Type
REMARK                         _______ _______ _______ _____ _____    ______ ____
ROOT
ATOM      1  N   UNL     1      -3.619  -0.721   0.138  0.00  0.00    +0.000 NA
ATOM      2  C   UNL     1      -1.807   0.864  -0.083  0.00  0.00    +0.000 A 
ATOM      3  C   UNL     1      -2.309  -0.426  -0.015  0.00  0.00    +0.000 A 
ATOM      4  C   UNL     1      -2.708   1.919   0.012  0.00  0.00    +0.000 A 
ATOM      5  C   UNL     1      -4.064   1.655   0.170  0.00  0.00    +0.000 A 
ATOM      6  C   UNL     1      -4.465   0.330   0.227  0.00  0.00    +0.000 A 
ENDROOT
BRANCH   2   9
ATOM      7  O   UNL     1       0.008   1.808  -1.229  0.00  0.00    +0.000 OA
ATOM      8  N   UNL     1       0.484   0.675   0.739  0.00  0.00    +0.000 N 
ATOM      9  C   UNL     1      -0.361   1.156  -0.255  0.00  0.00    +0.000 C 
ATOM     10  H   UNL     1       0.091   0.145   1.512  0.00  0.00    +0.000 HD
BRANCH   8  11
ATOM     11  C   UNL     1       1.903   0.897   0.726  0.00  0.00    +0.000 C 
BRANCH  11  12
ATOM     12  C   UNL     1       2.661  -0.204  -0.008  0.00  0.00    +0.000 C 
BRANCH  12  16
ATOM     13  F   UNL     1       4.792  -0.988  -0.678  0.00  0.00    +0.000 F 
ATOM     14  F   UNL     1       4.481   1.169  -0.603  0.00  0.00    +0.000 F 
ATOM     15  F   UNL     1       4.662   0.034   1.248  0.00  0.00    +0.000 F 
ATOM     16  C   UNL     1       4.163  -0.002  -0.005  0.00  0.00    +0.000 C 
ENDBRANCH  12  16
ENDBRANCH  11  12
ENDBRANCH   8  11
ENDBRANCH   2   9
BRANCH   3  17
ATOM     17  N   UNL     1      -1.397  -1.507  -0.115  0.00  0.00    +0.000 N 
ATOM     18  H   UNL     1      -0.504  -1.302  -0.552  0.00  0.00    +0.000 HD
BRANCH  17  19
ATOM     19  C   UNL     1      -1.810  -2.870  -0.057  0.00  0.00    +0.000 C 
ATOM     20  C   UNL     1      -0.612  -3.787  -0.213  0.00  0.00    +0.000 C 
ENDBRANCH  17  19
ENDBRANCH   3  17
TORSDOF 6
