REMARK  Name = 63226790
REMARK  5 active torsions:
REMARK  status: ('A' for Active; 'I' for Inactive)
REMARK    1  A    between atoms: N_5  and  C_8
REMARK    2  A    between atoms: N_5  and  C_10
REMARK    3  A    between atoms: C_8  and  C_9
REMARK    4  A    between atoms: C_9  and  C_11
REMARK    5  A    between atoms: C_12  and  C_15
REMARK                            x       y       z     vdW  Elec       q    Type
REMARK                         _______ _______ _______ _____ _____    ______ ____
ROOT
ATOM      1  N   UNL     1       1.066  -1.794  -0.033  0.00  0.00    +0.000 NA
ATOM      2  C   UNL     1       1.123  -0.443  -0.011  0.00  0.00    +0.000 A 
ATOM      3  C   UNL     1       2.303   0.283   0.025  0.00  0.00    +0.000 A 
ATOM      4  C   UNL     1       3.501  -0.423   0.040  0.00  0.00    +0.000 A 
ATOM      5  C   UNL     1       3.483  -1.813   0.019  0.00  0.00    +0.000 A 
ATOM      6  C   UNL     1       2.250  -2.445  -0.017  0.00  0.00    +0.000 A 
ENDROOT
BRANCH   3   9
ATOM      7  O   UNL     1       2.338   2.366   1.123  0.00  0.00    +0.000 OA
ATOM      8  N   UNL     1       2.373   2.405  -1.169  0.00  0.00    +0.000 N 
ATOM      9  C   UNL     1       2.332   1.739   0.051  0.00  0.00    +0.000 C 
ATOM     10  H   UNL     1       2.376   1.909  -2.055  0.00  0.00    +0.000 HD
ATOM     11  H   UNL     1       2.401   3.419  -1.210  0.00  0.00    +0.000 HD
ENDBRANCH   3   9
BRANCH   2  12
ATOM     12  N   UNL     1      -0.075   0.254  -0.023  0.00  0.00    +0.000 N 
ATOM     13  H   UNL     1      -0.040   1.226  -0.309  0.00  0.00    +0.000 HD
BRANCH  12  14
ATOM     14  C   UNL     1      -1.371  -0.381  -0.060  0.00  0.00    +0.000 C 
BRANCH  14  15
ATOM     15  C   UNL     1      -2.487   0.657   0.003  0.00  0.00    +0.000 C 
BRANCH  15  19
ATOM     16  F   UNL     1      -4.054  -0.770   1.076  0.00  0.00    +0.000 F 
ATOM     17  F   UNL     1      -4.829   1.002   0.060  0.00  0.00    +0.000 F 
ATOM     18  F   UNL     1      -4.078  -0.684  -1.101  0.00  0.00    +0.000 F 
ATOM     19  C   UNL     1      -3.875   0.048   0.018  0.00  0.00    +0.000 C 
ENDBRANCH  15  19
ENDBRANCH  14  15
ENDBRANCH  12  14
ENDBRANCH   2  12
TORSDOF 5
