REMARK  Name = 63961449
REMARK  5 active torsions:
REMARK  status: ('A' for Active; 'I' for Inactive)
REMARK    1  A    between atoms: S_1  and  C_7
REMARK    2  A    between atoms: S_1  and  C_14
REMARK    3  A    between atoms: N_3  and  C_6
REMARK    4  A    between atoms: C_6  and  C_7
REMARK    5  A    between atoms: C_8  and  C_9
REMARK                            x       y       z     vdW  Elec       q    Type
REMARK                         _______ _______ _______ _____ _____    ______ ____
ROOT
ATOM      1  N   UNL     1       3.313   0.706  -0.020  0.00  0.00    +0.000 NA
ATOM      2  N   UNL     1       4.699  -1.232   0.023  0.00  0.00    +0.000 N 
ATOM      3  C   UNL     1       0.909   0.449  -0.014  0.00  0.00    +0.000 A 
ATOM      4  C   UNL     1       1.050  -0.934   0.016  0.00  0.00    +0.000 A 
ATOM      5  C   UNL     1       2.062   1.218  -0.031  0.00  0.00    +0.000 A 
ATOM      6  C   UNL     1       2.321  -1.498   0.028  0.00  0.00    +0.000 A 
ATOM      7  C   UNL     1       3.410  -0.642   0.010  0.00  0.00    +0.000 A 
ATOM      8  H   UNL     1       4.810  -2.138   0.461  0.00  0.00    +0.000 HD
ATOM      9  H   UNL     1       5.492  -0.602   0.015  0.00  0.00    +0.000 HD
ENDROOT
BRANCH   3  12
ATOM     10  O   UNL     1      -0.567   2.220   0.416  0.00  0.00    +0.000 OA
ATOM     11  N   UNL     1      -1.455   0.322  -0.578  0.00  0.00    +0.000 N 
ATOM     12  C   UNL     1      -0.405   1.068  -0.028  0.00  0.00    +0.000 C 
ATOM     13  H   UNL     1      -1.274  -0.595  -0.973  0.00  0.00    +0.000 HD
BRANCH  11  14
ATOM     14  C   UNL     1      -2.812   0.808  -0.684  0.00  0.00    +0.000 C 
BRANCH  14  15
ATOM     15  C   UNL     1      -3.659   0.480   0.537  0.00  0.00    +0.000 C 
BRANCH  15  16
ATOM     16  S   UNL     1      -3.819  -1.312   0.803  0.00  0.00    +0.000 S 
ATOM     17  C   UNL     1      -5.048  -1.655  -0.477  0.00  0.00    +0.000 C 
ENDBRANCH  15  16
ENDBRANCH  14  15
ENDBRANCH  11  14
ENDBRANCH   3  12
TORSDOF 4
