REMARK  Name = 64089131
REMARK  3 active torsions:
REMARK  status: ('A' for Active; 'I' for Inactive)
REMARK    1  A    between atoms: N_6  and  C_8
REMARK    2  A    between atoms: C_7  and  C_9
REMARK    3  A    between atoms: C_9  and  C_11
REMARK                            x       y       z     vdW  Elec       q    Type
REMARK                         _______ _______ _______ _____ _____    ______ ____
ROOT
ATOM      1  N   UNL     1      -2.691   0.603   0.404  0.00  0.00    +0.000 NA
ATOM      2  C   UNL     1      -0.447   0.017  -0.277  0.00  0.00    +0.000 A 
ATOM      3  C   UNL     1      -1.398   0.921   0.168  0.00  0.00    +0.000 A 
ATOM      4  C   UNL     1      -0.847  -1.297  -0.493  0.00  0.00    +0.000 A 
ATOM      5  C   UNL     1      -2.169  -1.662  -0.261  0.00  0.00    +0.000 A 
ATOM      6  C   UNL     1      -3.043  -0.683   0.183  0.00  0.00    +0.000 A 
ENDROOT
BRANCH   3   7
ATOM      7  N   UNL     1      -0.997   2.261   0.392  0.00  0.00    +0.000 N 
ATOM      8  H   UNL     1      -0.044   2.439   0.686  0.00  0.00    +0.000 HD
ATOM      9  H   UNL     1      -1.714   2.900   0.713  0.00  0.00    +0.000 HD
ENDBRANCH   3   7
BRANCH   2  11
ATOM     10  O   UNL     1       1.237   1.263  -1.357  0.00  0.00    +0.000 OA
ATOM     11  C   UNL     1       0.941   0.388  -0.520  0.00  0.00    +0.000 C 
BRANCH  11  15
ATOM     12  F   UNL     1       2.806   0.596   0.975  0.00  0.00    +0.000 F 
ATOM     13  F   UNL     1       1.603  -1.210   1.122  0.00  0.00    +0.000 F 
ATOM     14  F   UNL     1       2.937  -0.915  -0.584  0.00  0.00    +0.000 F 
ATOM     15  C   UNL     1       2.069  -0.283   0.247  0.00  0.00    +0.000 C 
ENDBRANCH  11  15
ENDBRANCH   2  11
TORSDOF 3
