REMARK  Name = 64087795
REMARK  5 active torsions:
REMARK  status: ('A' for Active; 'I' for Inactive)
REMARK    1  A    between atoms: N_3  and  C_9
REMARK    2  A    between atoms: C_4  and  C_5
REMARK    3  A    between atoms: C_4  and  C_6
REMARK    4  A    between atoms: C_4  and  C_7
REMARK    5  A    between atoms: C_5  and  C_8
REMARK                            x       y       z     vdW  Elec       q    Type
REMARK                         _______ _______ _______ _____ _____    ______ ____
ROOT
ATOM      1  N   UNL     1      -2.561   0.708  -0.265  0.00  0.00    +0.000 NA
ATOM      2  C   UNL     1      -0.325  -0.101   0.173  0.00  0.00    +0.000 A 
ATOM      3  C   UNL     1      -1.243   0.914  -0.048  0.00  0.00    +0.000 A 
ATOM      4  C   UNL     1      -0.791  -1.411   0.171  0.00  0.00    +0.000 A 
ATOM      5  C   UNL     1      -2.141  -1.663  -0.049  0.00  0.00    +0.000 A 
ATOM      6  C   UNL     1      -2.977  -0.579  -0.260  0.00  0.00    +0.000 A 
ENDROOT
BRANCH   3   7
ATOM      7  N   UNL     1      -0.776   2.252  -0.045  0.00  0.00    +0.000 N 
ATOM      8  H   UNL     1      -1.468   2.973  -0.212  0.00  0.00    +0.000 HD
ATOM      9  H   UNL     1       0.017   2.488   0.539  0.00  0.00    +0.000 HD
ENDBRANCH   3   7
BRANCH   2  11
ATOM     10  O   UNL     1       1.450   0.858   1.372  0.00  0.00    +0.000 OA
ATOM     11  C   UNL     1       1.125   0.159   0.413  0.00  0.00    +0.000 C 
BRANCH  11  12
ATOM     12  C   UNL     1       2.170  -0.429  -0.533  0.00  0.00    +0.000 C 
ATOM     13  C   UNL     1       3.074  -1.403   0.223  0.00  0.00    +0.000 C 
ATOM     14  C   UNL     1       2.996   0.696  -1.150  0.00  0.00    +0.000 C 
ENDBRANCH  11  12
ENDBRANCH   2  11
TORSDOF 3
