REMARK  Name = 64088008
REMARK  4 active torsions:
REMARK  status: ('A' for Active; 'I' for Inactive)
REMARK    1  A    between atoms: N_6  and  C_11
REMARK    2  A    between atoms: C_7  and  C_9
REMARK    3  A    between atoms: C_7  and  C_10
REMARK    4  A    between atoms: C_8  and  C_9
REMARK                            x       y       z     vdW  Elec       q    Type
REMARK                         _______ _______ _______ _____ _____    ______ ____
ROOT
ATOM      1  N   UNL     1      -3.206   0.605   0.405  0.00  0.00    +0.000 NA
ATOM      2  C   UNL     1      -0.978  -0.095  -0.223  0.00  0.00    +0.000 A 
ATOM      3  C   UNL     1      -1.903   0.865   0.155  0.00  0.00    +0.000 A 
ATOM      4  C   UNL     1      -1.419  -1.407  -0.354  0.00  0.00    +0.000 A 
ATOM      5  C   UNL     1      -2.752  -1.714  -0.105  0.00  0.00    +0.000 A 
ATOM      6  C   UNL     1      -3.598  -0.682   0.268  0.00  0.00    +0.000 A 
ENDROOT
BRANCH   3   7
ATOM      7  N   UNL     1      -1.460   2.205   0.293  0.00  0.00    +0.000 N 
ATOM      8  H   UNL     1      -0.506   2.372   0.588  0.00  0.00    +0.000 HD
ATOM      9  H   UNL     1      -2.159   2.885   0.566  0.00  0.00    +0.000 HD
ENDBRANCH   3   7
BRANCH   2  11
ATOM     10  O   UNL     1       0.752   1.336  -0.919  0.00  0.00    +0.000 OA
ATOM     11  C   UNL     1       0.421   0.216  -0.483  0.00  0.00    +0.000 C 
BRANCH  11  12
ATOM     12  C   UNL     1       1.503  -0.844  -0.218  0.00  0.00    +0.000 C 
BRANCH  12  16
ATOM     13  F   UNL     1       2.709   0.475   1.314  0.00  0.00    +0.000 F 
ATOM     14  F   UNL     1       3.346   0.539  -0.769  0.00  0.00    +0.000 F 
ATOM     15  F   UNL     1       3.743  -1.235   0.447  0.00  0.00    +0.000 F 
ATOM     16  C   UNL     1       2.841  -0.265   0.190  0.00  0.00    +0.000 C 
ENDBRANCH  12  16
ENDBRANCH  11  12
ENDBRANCH   2  11
TORSDOF 4
