REMARK  Name = 64127747
REMARK  2 active torsions:
REMARK  status: ('A' for Active; 'I' for Inactive)
REMARK    1  A    between atoms: C_4  and  C_8
REMARK    2  A    between atoms: C_5  and  C_10
REMARK                            x       y       z     vdW  Elec       q    Type
REMARK                         _______ _______ _______ _____ _____    ______ ____
ROOT
ATOM      1  N   UNL     1      -0.914   1.746   0.028  0.00  0.00    +0.000 NA
ATOM      2  N   UNL     1       1.447   1.867  -0.115  0.00  0.00    +0.000 N 
ATOM      3  C   UNL     1      -0.784  -1.046  -0.017  0.00  0.00    +0.000 A 
ATOM      4  C   UNL     1       0.382  -0.291  -0.078  0.00  0.00    +0.000 A 
ATOM      5  C   UNL     1       0.264   1.089  -0.053  0.00  0.00    +0.000 A 
ATOM      6  C   UNL     1      -2.016  -0.405   0.067  0.00  0.00    +0.000 A 
ATOM      7  C   UNL     1      -0.747  -2.538  -0.039  0.00  0.00    +0.000 C 
ATOM      8  C   UNL     1      -2.027   0.980   0.086  0.00  0.00    +0.000 A 
ATOM      9  H   UNL     1       2.292   1.501   0.305  0.00  0.00    +0.000 HD
ATOM     10  H   UNL     1       1.323   2.873  -0.105  0.00  0.00    +0.000 HD
ENDROOT
BRANCH   4  12
ATOM     11  O   UNL     1       2.713  -0.455   0.291  0.00  0.00    +0.000 OA
ATOM     12  C   UNL     1       1.682  -0.947  -0.170  0.00  0.00    +0.000 C 
ENDBRANCH   4  12
TORSDOF 1
