REMARK  Name = 64128153
REMARK  3 active torsions:
REMARK  status: ('A' for Active; 'I' for Inactive)
REMARK    1  A    between atoms: C_4  and  C_8
REMARK    2  A    between atoms: C_5  and  C_9
REMARK    3  A    between atoms: C_8  and  C_11
REMARK                            x       y       z     vdW  Elec       q    Type
REMARK                         _______ _______ _______ _____ _____    ______ ____
ROOT
ATOM      1  N   UNL     1      -1.879   1.185  -0.031  0.00  0.00    +0.000 NA
ATOM      2  N   UNL     1       0.145   2.414   0.033  0.00  0.00    +0.000 N 
ATOM      3  C   UNL     1       0.232   0.009   0.031  0.00  0.00    +0.000 A 
ATOM      4  C   UNL     1      -0.438  -1.210   0.009  0.00  0.00    +0.000 A 
ATOM      5  C   UNL     1      -0.528   1.167   0.010  0.00  0.00    +0.000 A 
ATOM      6  C   UNL     1      -1.827  -1.233  -0.033  0.00  0.00    +0.000 A 
ATOM      7  C   UNL     1       0.305  -2.506   0.029  0.00  0.00    +0.000 C 
ATOM      8  C   UNL     1      -2.495  -0.019  -0.052  0.00  0.00    +0.000 A 
ATOM      9  H   UNL     1       1.031   2.479   0.518  0.00  0.00    +0.000 HD
ATOM     10  H   UNL     1      -0.439   3.242   0.011  0.00  0.00    +0.000 HD
ENDROOT
BRANCH   3  12
ATOM     11  O   UNL     1       2.305   0.067   1.154  0.00  0.00    +0.000 OA
ATOM     12  C   UNL     1       1.690   0.050   0.073  0.00  0.00    +0.000 C 
ATOM     13  C   UNL     1       2.490   0.075  -1.222  0.00  0.00    +0.000 C 
ENDBRANCH   3  12
TORSDOF 1
