REMARK  Name = 643394
REMARK  2 active torsions:
REMARK  status: ('A' for Active; 'I' for Inactive)
REMARK    1  A    between atoms: N_3  and  C_7
REMARK    2  A    between atoms: C_6  and  C_11
REMARK                            x       y       z     vdW  Elec       q    Type
REMARK                         _______ _______ _______ _____ _____    ______ ____
ROOT
ATOM      1  N   UNL     1      -1.504  -1.359   0.001  0.00  0.00    +0.000 NA
ATOM      2  N   UNL     1      -3.528  -0.103   0.002  0.00  0.00    +0.000 N 
ATOM      3  C   UNL     1       0.617  -0.199  -0.002  0.00  0.00    +0.000 A 
ATOM      4  C   UNL     1      -0.045   1.025  -0.002  0.00  0.00    +0.000 A 
ATOM      5  C   UNL     1      -1.435   1.057  -0.001  0.00  0.00    +0.000 A 
ATOM      6  C   UNL     1      -2.112  -0.152   0.001  0.00  0.00    +0.000 A 
ATOM      7  C   UNL     1      -0.152  -1.351   0.000  0.00  0.00    +0.000 A 
ATOM      8  H   UNL     1      -4.018  -0.989  -0.003  0.00  0.00    +0.000 HD
ATOM      9  H   UNL     1      -3.983   0.699  -0.417  0.00  0.00    +0.000 HD
ENDROOT
BRANCH   3  12
ATOM     10  O   UNL     1       2.788   0.715   0.011  0.00  0.00    +0.000 OA
ATOM     11  N   UNL     1       2.628  -1.573  -0.003  0.00  0.00    +0.000 N 
ATOM     12  C   UNL     1       2.069  -0.299  -0.004  0.00  0.00    +0.000 C 
ATOM     13  H   UNL     1       2.120  -2.447  -0.011  0.00  0.00    +0.000 HD
ATOM     14  H   UNL     1       3.639  -1.670   0.003  0.00  0.00    +0.000 HD
ENDBRANCH   3  12
BRANCH   4  15
ATOM     15  N   UNL     1       0.675   2.239  -0.004  0.00  0.00    +0.000 N 
ATOM     16  H   UNL     1       1.684   2.250  -0.007  0.00  0.00    +0.000 HD
ATOM     17  H   UNL     1       0.172   3.117  -0.004  0.00  0.00    +0.000 HD
ENDBRANCH   4  15
TORSDOF 2
