REMARK  Name = 651580
REMARK  5 active torsions:
REMARK  status: ('A' for Active; 'I' for Inactive)
REMARK    1  A    between atoms: N_2  and  C_5
REMARK    2  A    between atoms: N_2  and  C_7
REMARK    3  A    between atoms: C_5  and  C_6
REMARK    4  A    between atoms: C_6  and  C_9
REMARK    5  A    between atoms: C_8  and  C_12
REMARK                            x       y       z     vdW  Elec       q    Type
REMARK                         _______ _______ _______ _____ _____    ______ ____
ROOT
ATOM      1  N   UNL     1       0.516  -1.881  -0.001  0.00  0.00    +0.000 NA
ATOM      2  C   UNL     1       0.176  -0.561   0.077  0.00  0.00    +0.000 A 
ATOM      3  C   UNL     1       1.134   0.456   0.021  0.00  0.00    +0.000 A 
ATOM      4  C   UNL     1       2.474   0.111  -0.119  0.00  0.00    +0.000 A 
ATOM      5  C   UNL     1       2.836  -1.229  -0.199  0.00  0.00    +0.000 A 
ATOM      6  C   UNL     1       1.828  -2.178  -0.136  0.00  0.00    +0.000 A 
ENDROOT
BRANCH   3   9
ATOM      7  O   UNL     1       0.718   2.454   1.196  0.00  0.00    +0.000 OA
ATOM      8  N   UNL     1       0.485   2.528  -1.084  0.00  0.00    +0.000 N 
ATOM      9  C   UNL     1       0.765   1.863   0.104  0.00  0.00    +0.000 C 
ATOM     10  H   UNL     1       0.525   2.063  -1.985  0.00  0.00    +0.000 HD
ATOM     11  H   UNL     1       0.228   3.510  -1.084  0.00  0.00    +0.000 HD
ENDBRANCH   3   9
BRANCH   2  12
ATOM     12  N   UNL     1      -1.165  -0.224   0.215  0.00  0.00    +0.000 N 
ATOM     13  H   UNL     1      -1.363   0.700   0.586  0.00  0.00    +0.000 HD
BRANCH  12  14
ATOM     14  C   UNL     1      -2.232  -1.185   0.283  0.00  0.00    +0.000 C 
BRANCH  14  15
ATOM     15  C   UNL     1      -3.599  -0.526   0.413  0.00  0.00    +0.000 C 
ATOM     16  C   UNL     1      -3.935   0.372  -0.769  0.00  0.00    +0.000 C 
ENDBRANCH  14  15
ENDBRANCH  12  14
ENDBRANCH   2  12
TORSDOF 4
