REMARK  Name = 65529961
REMARK  5 active torsions:
REMARK  status: ('A' for Active; 'I' for Inactive)
REMARK    1  A    between atoms: N_5  and  C_8
REMARK    2  A    between atoms: N_5  and  C_12
REMARK    3  A    between atoms: C_8  and  C_9
REMARK    4  A    between atoms: C_9  and  C_11
REMARK    5  A    between atoms: C_10  and  C_13
REMARK                            x       y       z     vdW  Elec       q    Type
REMARK                         _______ _______ _______ _____ _____    ______ ____
ROOT
ATOM      1  O   UNL     1      -0.053   1.765  -0.660  0.00  0.00    +0.000 OA
ATOM      2  N   UNL     1      -0.599  -0.091   0.690  0.00  0.00    +0.000 N 
ATOM      3  C   UNL     1       0.268   0.748  -0.047  0.00  0.00    +0.000 C 
ATOM      4  C   UNL     1      -0.108  -1.286   1.387  0.00  0.00    +0.000 C 
ENDROOT
BRANCH   3   7
ATOM      5  N   UNL     1       3.906   0.529   0.849  0.00  0.00    +0.000 NA
ATOM      6  N   UNL     1       5.712  -0.628  -0.189  0.00  0.00    +0.000 N 
ATOM      7  C   UNL     1       1.690   0.374  -0.105  0.00  0.00    +0.000 A 
ATOM      8  C   UNL     1       2.173  -0.453  -1.113  0.00  0.00    +0.000 A 
ATOM      9  C   UNL     1       2.589   0.834   0.844  0.00  0.00    +0.000 A 
ATOM     10  C   UNL     1       3.522  -0.789  -1.141  0.00  0.00    +0.000 A 
ATOM     11  C   UNL     1       4.340  -0.277  -0.147  0.00  0.00    +0.000 A 
ATOM     12  H   UNL     1       5.970  -1.511  -0.613  0.00  0.00    +0.000 HD
ATOM     13  H   UNL     1       6.304  -0.256   0.543  0.00  0.00    +0.000 HD
ENDBRANCH   3   7
BRANCH   2  14
ATOM     14  C   UNL     1      -2.005   0.182   0.796  0.00  0.00    +0.000 C 
BRANCH  14  15
ATOM     15  C   UNL     1      -2.814  -0.478  -0.316  0.00  0.00    +0.000 C 
BRANCH  15  19
ATOM     16  F   UNL     1      -4.544   1.148  -0.320  0.00  0.00    +0.000 F 
ATOM     17  F   UNL     1      -4.976  -0.791  -1.229  0.00  0.00    +0.000 F 
ATOM     18  F   UNL     1      -4.804  -0.612   0.938  0.00  0.00    +0.000 F 
ATOM     19  C   UNL     1      -4.297  -0.176  -0.237  0.00  0.00    +0.000 C 
ENDBRANCH  15  19
ENDBRANCH  14  15
ENDBRANCH   2  14
TORSDOF 4
