REMARK  Name = 65532866
REMARK  6 active torsions:
REMARK  status: ('A' for Active; 'I' for Inactive)
REMARK    1  A    between atoms: N_5  and  C_8
REMARK    2  A    between atoms: N_5  and  C_12
REMARK    3  A    between atoms: N_7  and  C_18
REMARK    4  A    between atoms: C_8  and  C_9
REMARK    5  A    between atoms: C_9  and  C_11
REMARK    6  A    between atoms: C_10  and  C_13
REMARK                            x       y       z     vdW  Elec       q    Type
REMARK                         _______ _______ _______ _____ _____    ______ ____
ROOT
ATOM      1  O   UNL     1       0.435  -1.494   1.206  0.00  0.00    +0.000 OA
ATOM      2  N   UNL     1       0.956  -0.136  -0.652  0.00  0.00    +0.000 N 
ATOM      3  C   UNL     1       0.103  -0.711   0.317  0.00  0.00    +0.000 C 
ATOM      4  C   UNL     1       0.453   0.791  -1.671  0.00  0.00    +0.000 C 
ENDROOT
BRANCH   3   7
ATOM      5  N   UNL     1      -3.114   1.116   0.950  0.00  0.00    +0.000 NA
ATOM      6  N   UNL     1      -5.328   0.716   0.165  0.00  0.00    +0.000 N 
ATOM      7  C   UNL     1      -1.325  -0.356   0.262  0.00  0.00    +0.000 A 
ATOM      8  C   UNL     1      -2.221  -1.107  -0.490  0.00  0.00    +0.000 A 
ATOM      9  C   UNL     1      -1.817   0.736   0.958  0.00  0.00    +0.000 A 
ATOM     10  C   UNL     1      -3.564  -0.747  -0.523  0.00  0.00    +0.000 A 
ATOM     11  C   UNL     1      -3.957   0.363   0.208  0.00  0.00    +0.000 A 
ATOM     12  C   UNL     1      -6.289  -0.019  -0.590  0.00  0.00    +0.000 C 
ATOM     13  H   UNL     1      -5.610   1.528   0.700  0.00  0.00    +0.000 HD
ENDBRANCH   3   7
BRANCH   2  14
ATOM     14  C   UNL     1       2.362  -0.430  -0.689  0.00  0.00    +0.000 C 
BRANCH  14  15
ATOM     15  C   UNL     1       3.183   0.535   0.158  0.00  0.00    +0.000 C 
BRANCH  15  19
ATOM     16  F   UNL     1       5.360   1.125   0.881  0.00  0.00    +0.000 F 
ATOM     17  F   UNL     1       4.935  -0.989   0.555  0.00  0.00    +0.000 F 
ATOM     18  F   UNL     1       5.156   0.349  -1.150  0.00  0.00    +0.000 F 
ATOM     19  C   UNL     1       4.673   0.259   0.106  0.00  0.00    +0.000 C 
ENDBRANCH  15  19
ENDBRANCH  14  15
ENDBRANCH   2  14
TORSDOF 4
