REMARK  Name = 65532876
REMARK  3 active torsions:
REMARK  status: ('A' for Active; 'I' for Inactive)
REMARK    1  A    between atoms: N_7  and  C_16
REMARK    2  A    between atoms: C_8  and  C_13
REMARK    3  A    between atoms: C_14  and  C_15
REMARK                            x       y       z     vdW  Elec       q    Type
REMARK                         _______ _______ _______ _____ _____    ______ ____
ROOT
ATOM      1  O   UNL     1      -1.654  -2.656  -0.014  0.00  0.00    +0.000 OA
ATOM      2  N   UNL     1       0.250  -1.378   0.443  0.00  0.00    +0.000 N 
ATOM      3  C   UNL     1       2.028   0.177  -0.269  0.00  0.00    +0.000 C 
ATOM      4  C   UNL     1       3.019  -0.998  -0.277  0.00  0.00    +0.000 C 
ATOM      5  C   UNL     1       0.893  -0.088   0.729  0.00  0.00    +0.000 C 
ATOM      6  C   UNL     1       2.300  -2.326  -0.522  0.00  0.00    +0.000 C 
ATOM      7  C   UNL     1       1.153  -2.528   0.465  0.00  0.00    +0.000 C 
ATOM      8  C   UNL     1      -1.111  -1.573   0.196  0.00  0.00    +0.000 C 
ENDROOT
BRANCH   8  10
ATOM      9  N   UNL     1      -3.035   1.416  -1.046  0.00  0.00    +0.000 NA
ATOM     10  C   UNL     1      -1.985  -0.393   0.167  0.00  0.00    +0.000 A 
ATOM     11  C   UNL     1      -2.238   0.325  -0.991  0.00  0.00    +0.000 A 
ATOM     12  C   UNL     1      -2.589   0.036   1.344  0.00  0.00    +0.000 A 
ATOM     13  C   UNL     1      -3.416   1.154   1.327  0.00  0.00    +0.000 A 
ATOM     14  C   UNL     1      -3.604   1.803   0.118  0.00  0.00    +0.000 A 
BRANCH  11  15
ATOM     15  N   UNL     1      -1.623  -0.104  -2.194  0.00  0.00    +0.000 N 
ATOM     16  H   UNL     1      -0.721  -0.559  -2.141  0.00  0.00    +0.000 HD
ATOM     17  H   UNL     1      -1.829   0.438  -3.024  0.00  0.00    +0.000 HD
ENDBRANCH  11  15
ENDBRANCH   8  10
BRANCH   3  21
ATOM     18  F   UNL     1       1.869   2.506   0.026  0.00  0.00    +0.000 F 
ATOM     19  F   UNL     1       3.289   1.421   1.280  0.00  0.00    +0.000 F 
ATOM     20  F   UNL     1       3.712   1.718  -0.841  0.00  0.00    +0.000 F 
ATOM     21  C   UNL     1       2.741   1.487   0.057  0.00  0.00    +0.000 C 
ENDBRANCH   3  21
TORSDOF 3
