REMARK  Name = 65531901
REMARK  6 active torsions:
REMARK  status: ('A' for Active; 'I' for Inactive)
REMARK    1  A    between atoms: N_5  and  C_8
REMARK    2  A    between atoms: N_5  and  C_12
REMARK    3  A    between atoms: N_7  and  C_14
REMARK    4  A    between atoms: C_8  and  C_9
REMARK    5  A    between atoms: C_9  and  C_11
REMARK    6  A    between atoms: C_10  and  C_13
REMARK                            x       y       z     vdW  Elec       q    Type
REMARK                         _______ _______ _______ _____ _____    ______ ____
ROOT
ATOM      1  O   UNL     1       0.238   0.250  -1.848  0.00  0.00    +0.000 OA
ATOM      2  N   UNL     1      -0.354   0.700   0.391  0.00  0.00    +0.000 N 
ATOM      3  C   UNL     1       0.535   0.388  -0.662  0.00  0.00    +0.000 C 
ATOM      4  C   UNL     1       0.108   0.842   1.776  0.00  0.00    +0.000 C 
ENDROOT
BRANCH   3   6
ATOM      5  N   UNL     1       3.777  -1.244   0.351  0.00  0.00    +0.000 NA
ATOM      6  C   UNL     1       1.953   0.196  -0.320  0.00  0.00    +0.000 A 
ATOM      7  C   UNL     1       2.480  -1.038   0.029  0.00  0.00    +0.000 A 
ATOM      8  C   UNL     1       2.813   1.288  -0.340  0.00  0.00    +0.000 A 
ATOM      9  C   UNL     1       4.154   1.116  -0.015  0.00  0.00    +0.000 A 
ATOM     10  C   UNL     1       4.582  -0.158   0.321  0.00  0.00    +0.000 A 
BRANCH   7  11
ATOM     11  N   UNL     1       1.609  -2.156   0.054  0.00  0.00    +0.000 N 
ATOM     12  H   UNL     1       0.635  -2.006   0.288  0.00  0.00    +0.000 HD
ATOM     13  H   UNL     1       2.022  -3.045   0.309  0.00  0.00    +0.000 HD
ENDBRANCH   7  11
ENDBRANCH   3   6
BRANCH   2  14
ATOM     14  C   UNL     1      -1.759   0.895   0.160  0.00  0.00    +0.000 C 
BRANCH  14  15
ATOM     15  C   UNL     1      -2.556  -0.399   0.283  0.00  0.00    +0.000 C 
BRANCH  15  19
ATOM     16  F   UNL     1      -4.266   0.255  -1.229  0.00  0.00    +0.000 F 
ATOM     17  F   UNL     1      -4.706  -1.382   0.148  0.00  0.00    +0.000 F 
ATOM     18  F   UNL     1      -4.570   0.663   0.889  0.00  0.00    +0.000 F 
ATOM     19  C   UNL     1      -4.037  -0.218   0.013  0.00  0.00    +0.000 C 
ENDBRANCH  15  19
ENDBRANCH  14  15
ENDBRANCH   2  14
TORSDOF 5
