REMARK  Name = 65531133
REMARK  2 active torsions:
REMARK  status: ('A' for Active; 'I' for Inactive)
REMARK    1  A    between atoms: C_8  and  C_13
REMARK    2  A    between atoms: C_14  and  C_15
REMARK                            x       y       z     vdW  Elec       q    Type
REMARK                         _______ _______ _______ _____ _____    ______ ____
ROOT
ATOM      1  O   UNL     1       1.032  -3.016  -0.212  0.00  0.00    +0.000 OA
ATOM      2  N   UNL     1      -0.629  -1.456   0.314  0.00  0.00    +0.000 N 
ATOM      3  C   UNL     1      -2.163   0.370  -0.319  0.00  0.00    +0.000 C 
ATOM      4  C   UNL     1      -3.328  -0.634  -0.296  0.00  0.00    +0.000 C 
ATOM      5  C   UNL     1      -1.048  -0.085   0.633  0.00  0.00    +0.000 C 
ATOM      6  C   UNL     1      -2.838  -2.055  -0.578  0.00  0.00    +0.000 C 
ATOM      7  C   UNL     1      -1.702  -2.449   0.362  0.00  0.00    +0.000 C 
ATOM      8  C   UNL     1       0.675  -1.862   0.020  0.00  0.00    +0.000 C 
ENDROOT
BRANCH   8  11
ATOM      9  N   UNL     1       3.424   0.442   1.117  0.00  0.00    +0.000 NA
ATOM     10  N   UNL     1       4.702   2.049  -0.092  0.00  0.00    +0.000 N 
ATOM     11  C   UNL     1       1.724  -0.836  -0.033  0.00  0.00    +0.000 A 
ATOM     12  C   UNL     1       2.024  -0.178  -1.221  0.00  0.00    +0.000 A 
ATOM     13  C   UNL     1       2.447  -0.492   1.098  0.00  0.00    +0.000 A 
ATOM     14  C   UNL     1       3.022   0.789  -1.241  0.00  0.00    +0.000 A 
ATOM     15  C   UNL     1       3.687   1.060  -0.056  0.00  0.00    +0.000 A 
ATOM     16  H   UNL     1       5.196   2.200  -0.963  0.00  0.00    +0.000 HD
ATOM     17  H   UNL     1       5.189   2.239   0.775  0.00  0.00    +0.000 HD
ENDBRANCH   8  11
BRANCH   3  21
ATOM     18  F   UNL     1      -3.603   2.164  -0.813  0.00  0.00    +0.000 F 
ATOM     19  F   UNL     1      -3.152   1.776   1.288  0.00  0.00    +0.000 F 
ATOM     20  F   UNL     1      -1.627   2.640  -0.015  0.00  0.00    +0.000 F 
ATOM     21  C   UNL     1      -2.648   1.771   0.044  0.00  0.00    +0.000 C 
ENDBRANCH   3  21
TORSDOF 2
