REMARK  Name = 66745696
REMARK  0 active torsions:
REMARK  status: ('A' for Active; 'I' for Inactive)
REMARK                            x       y       z     vdW  Elec       q    Type
REMARK                         _______ _______ _______ _____ _____    ______ ____
ROOT
ATOM      1  O   UNL     1      -1.655   2.152  -0.000  0.00  0.00    +0.000 OA
ATOM      2  N   UNL     1      -0.658  -1.853   0.000  0.00  0.00    +0.000 NA
ATOM      3  N   UNL     1       1.596  -1.310  -0.000  0.00  0.00    +0.000 NA
ATOM      4  C   UNL     1       0.032   0.513   0.000  0.00  0.00    +0.000 A 
ATOM      5  C   UNL     1      -2.421  -0.111   0.000  0.00  0.00    +0.000 C 
ATOM      6  C   UNL     1      -1.370   0.960   0.000  0.00  0.00    +0.000 C 
ATOM      7  C   UNL     1       0.322  -0.848  -0.000  0.00  0.00    +0.000 A 
ATOM      8  C   UNL     1       1.079   1.434   0.000  0.00  0.00    +0.000 A 
ATOM      9  C   UNL     1      -1.907  -1.516   0.000  0.00  0.00    +0.000 C 
ATOM     10  C   UNL     1       2.389   0.973   0.000  0.00  0.00    +0.000 A 
ATOM     11  C   UNL     1       2.592  -0.395   0.000  0.00  0.00    +0.000 A 
ENDROOT
TORSDOF 0
