REMARK  Name = 66878280
REMARK  3 active torsions:
REMARK  status: ('A' for Active; 'I' for Inactive)
REMARK    1  A    between atoms: N_3  and  C_8
REMARK    2  A    between atoms: C_5  and  C_11
REMARK    3  A    between atoms: C_6  and  C_10
REMARK                            x       y       z     vdW  Elec       q    Type
REMARK                         _______ _______ _______ _____ _____    ______ ____
ROOT
ATOM      1  N   UNL     1      -1.065   1.696   0.021  0.00  0.00    +0.000 NA
ATOM      2  C   UNL     1       0.478  -0.165  -0.024  0.00  0.00    +0.000 A 
ATOM      3  C   UNL     1      -1.892  -0.576   0.000  0.00  0.00    +0.000 A 
ATOM      4  C   UNL     1      -0.588  -1.058  -0.023  0.00  0.00    +0.000 A 
ATOM      5  C   UNL     1       0.189   1.190  -0.002  0.00  0.00    +0.000 A 
ATOM      6  C   UNL     1      -2.075   0.797   0.021  0.00  0.00    +0.000 A 
ATOM      7  C   UNL     1      -3.053  -1.505   0.002  0.00  0.00    +0.000 C 
ENDROOT
BRANCH   2  10
ATOM      8  O   UNL     1       2.437  -0.879  -1.119  0.00  0.00    +0.000 OA
ATOM      9  N   UNL     1       2.459  -0.925   1.174  0.00  0.00    +0.000 N 
ATOM     10  C   UNL     1       1.840  -0.680  -0.048  0.00  0.00    +0.000 C 
ATOM     11  H   UNL     1       1.990  -0.761   2.059  0.00  0.00    +0.000 HD
ATOM     12  H   UNL     1       3.409  -1.278   1.216  0.00  0.00    +0.000 HD
ENDBRANCH   2  10
BRANCH   5  13
ATOM     13  N   UNL     1       1.270   2.106  -0.003  0.00  0.00    +0.000 N 
ATOM     14  H   UNL     1       2.139   1.831   0.439  0.00  0.00    +0.000 HD
ATOM     15  H   UNL     1       1.029   3.090   0.009  0.00  0.00    +0.000 HD
ENDBRANCH   5  13
TORSDOF 2
