REMARK  Name = 66887686
REMARK  4 active torsions:
REMARK  status: ('A' for Active; 'I' for Inactive)
REMARK    1  A    between atoms: N_3  and  C_12
REMARK    2  A    between atoms: C_6  and  C_7
REMARK    3  A    between atoms: C_6  and  C_8
REMARK    4  A    between atoms: C_8  and  C_12
REMARK                            x       y       z     vdW  Elec       q    Type
REMARK                         _______ _______ _______ _____ _____    ______ ____
ROOT
ATOM      1  O   UNL     1      -1.130   2.605   0.008  0.00  0.00    +0.000 OA
ATOM      2  N   UNL     1       0.646   1.242  -0.442  0.00  0.00    +0.000 N 
ATOM      3  N   UNL     1      -3.690  -0.735   0.412  0.00  0.00    +0.000 NA
ATOM      4  N   UNL     1      -3.504   1.600   0.480  0.00  0.00    +0.000 N 
ATOM      5  C   UNL     1       1.205  -0.007  -0.622  0.00  0.00    +0.000 A 
ATOM      6  C   UNL     1      -0.964  -1.005  -0.196  0.00  0.00    +0.000 A 
ATOM      7  C   UNL     1       0.460  -1.118  -0.512  0.00  0.00    +0.000 A 
ATOM      8  C   UNL     1      -1.533   0.259  -0.013  0.00  0.00    +0.000 A 
ATOM      9  C   UNL     1      -0.689   1.470  -0.140  0.00  0.00    +0.000 A 
ATOM     10  C   UNL     1      -2.885   0.344   0.287  0.00  0.00    +0.000 A 
ATOM     11  C   UNL     1      -1.772  -2.133  -0.073  0.00  0.00    +0.000 A 
ATOM     12  C   UNL     1      -3.113  -1.944   0.229  0.00  0.00    +0.000 A 
ATOM     13  H   UNL     1       1.257   2.049  -0.535  0.00  0.00    +0.000 HD
ATOM     14  H   UNL     1      -2.953   2.356   0.866  0.00  0.00    +0.000 HD
ATOM     15  H   UNL     1      -4.495   1.590   0.689  0.00  0.00    +0.000 HD
ENDROOT
BRANCH   5  16
ATOM     16  C   UNL     1       2.667  -0.036  -0.943  0.00  0.00    +0.000 C 
BRANCH  16  17
ATOM     17  C   UNL     1       3.510  -0.111   0.327  0.00  0.00    +0.000 C 
BRANCH  17  18
ATOM     18  C   UNL     1       4.999  -0.175  -0.011  0.00  0.00    +0.000 C 
BRANCH  18  19
ATOM     19  N   UNL     1       5.793  -0.255   1.210  0.00  0.00    +0.000 NA
ATOM     20  H   UNL     1       5.628   0.572   1.782  0.00  0.00    +0.000 HD
ATOM     21  H   UNL     1       6.783  -0.245   0.971  0.00  0.00    +0.000 HD
ENDBRANCH  18  19
ENDBRANCH  17  18
ENDBRANCH  16  17
ENDBRANCH   5  16
TORSDOF 4
