REMARK  Name = 67119618
REMARK  6 active torsions:
REMARK  status: ('A' for Active; 'I' for Inactive)
REMARK    1  A    between atoms: N_2  and  C_7
REMARK    2  A    between atoms: C_5  and  C_6
REMARK    3  A    between atoms: C_5  and  C_7
REMARK    4  A    between atoms: C_6  and  C_8
REMARK    5  A    between atoms: C_8  and  C_9
REMARK    6  A    between atoms: C_13  and  C_15
REMARK                            x       y       z     vdW  Elec       q    Type
REMARK                         _______ _______ _______ _____ _____    ______ ____
ROOT
ATOM      1  N   UNL     1      -1.028  -0.850  -0.041  0.00  0.00    +0.000 N 
ATOM      2  N   UNL     1       1.221  -1.550   0.009  0.00  0.00    +0.000 NA
ATOM      3  C   UNL     1       0.323  -0.540  -0.025  0.00  0.00    +0.000 A 
ATOM      4  C   UNL     1       0.667   0.802  -0.046  0.00  0.00    +0.000 A 
ATOM      5  C   UNL     1       2.018   1.129  -0.031  0.00  0.00    +0.000 A 
ATOM      6  C   UNL     1       2.972   0.118   0.004  0.00  0.00    +0.000 A 
ATOM      7  C   UNL     1       2.525  -1.194   0.023  0.00  0.00    +0.000 A 
ATOM      8  H   UNL     1      -1.270  -1.834  -0.029  0.00  0.00    +0.000 HD
ENDROOT
BRANCH   6  11
ATOM      9  O   UNL     1       4.801   1.602   0.021  0.00  0.00    +0.000 OA
ATOM     10  N   UNL     1       5.287  -0.639   0.057  0.00  0.00    +0.000 N 
ATOM     11  C   UNL     1       4.391   0.426   0.021  0.00  0.00    +0.000 C 
ATOM     12  H   UNL     1       6.285  -0.451   0.076  0.00  0.00    +0.000 HD
ATOM     13  H   UNL     1       5.036  -1.619   0.064  0.00  0.00    +0.000 HD
ENDBRANCH   6  11
BRANCH   1  14
ATOM     14  C   UNL     1      -2.077   0.141  -0.078  0.00  0.00    +0.000 C 
BRANCH  14  15
ATOM     15  C   UNL     1      -3.450  -0.523  -0.022  0.00  0.00    +0.000 C 
BRANCH  15  16
ATOM     16  C   UNL     1      -4.597   0.492  -0.011  0.00  0.00    +0.000 C 
BRANCH  16  17
ATOM     17  C   UNL     1      -5.955  -0.209   0.033  0.00  0.00    +0.000 C 
ATOM     18  C   UNL     1      -7.098   0.794   0.086  0.00  0.00    +0.000 C 
ENDBRANCH  16  17
ENDBRANCH  15  16
ENDBRANCH  14  15
ENDBRANCH   1  14
TORSDOF 5
