REMARK  Name = 67218192
REMARK  3 active torsions:
REMARK  status: ('A' for Active; 'I' for Inactive)
REMARK    1  A    between atoms: N_2  and  C_7
REMARK    2  A    between atoms: N_4  and  C_7
REMARK    3  A    between atoms: C_5  and  C_6
REMARK                            x       y       z     vdW  Elec       q    Type
REMARK                         _______ _______ _______ _____ _____    ______ ____
ROOT
ATOM      1  O   UNL     1       1.120   1.885   0.395  0.00  0.00    +0.000 OA
ATOM      2  N   UNL     1       1.843  -0.268  -0.066  0.00  0.00    +0.000 N 
ATOM      3  C   UNL     1       0.848   0.695   0.150  0.00  0.00    +0.000 C 
ATOM      4  H   UNL     1       1.590  -1.216  -0.322  0.00  0.00    +0.000 HD
ENDROOT
BRANCH   3   6
ATOM      5  N   UNL     1      -2.146  -1.537   0.255  0.00  0.00    +0.000 NA
ATOM      6  C   UNL     1      -0.532   0.253   0.059  0.00  0.00    +0.000 A 
ATOM      7  C   UNL     1      -1.545   1.138  -0.295  0.00  0.00    +0.000 A 
ATOM      8  C   UNL     1      -0.882  -1.062   0.321  0.00  0.00    +0.000 A 
ATOM      9  C   UNL     1      -2.858   0.687  -0.373  0.00  0.00    +0.000 A 
ATOM     10  C   UNL     1      -3.103  -0.648  -0.092  0.00  0.00    +0.000 A 
ENDBRANCH   3   6
BRANCH   2  11
ATOM     11  C   UNL     1       3.256   0.033  -0.026  0.00  0.00    +0.000 C 
BRANCH  11  12
ATOM     12  N   UNL     1       3.999  -1.176  -0.327  0.00  0.00    +0.000 NA
ATOM     13  H   UNL     1       3.797  -1.881   0.380  0.00  0.00    +0.000 HD
ATOM     14  H   UNL     1       4.998  -0.985  -0.262  0.00  0.00    +0.000 HD
ENDBRANCH  11  12
ENDBRANCH   2  11
TORSDOF 3
