REMARK  Name = 67324828
REMARK  1 active torsions:
REMARK  status: ('A' for Active; 'I' for Inactive)
REMARK    1  A    between atoms: C_10  and  C_13
REMARK                            x       y       z     vdW  Elec       q    Type
REMARK                         _______ _______ _______ _____ _____    ______ ____
ROOT
ATOM      1  N   UNL     1      -2.473   1.207  -0.038  0.00  0.00    +0.000 N 
ATOM      2  N   UNL     1      -0.174   1.773  -0.014  0.00  0.00    +0.000 NA
ATOM      3  N   UNL     1      -3.154  -1.230   0.001  0.00  0.00    +0.000 NA
ATOM      4  C   UNL     1      -0.819  -0.527  -0.014  0.00  0.00    +0.000 A 
ATOM      5  C   UNL     1      -1.143   0.826  -0.017  0.00  0.00    +0.000 A 
ATOM      6  C   UNL     1       0.511  -0.936  -0.005  0.00  0.00    +0.000 A 
ATOM      7  C   UNL     1      -3.505   0.197   0.088  0.00  0.00    +0.000 C 
ATOM      8  C   UNL     1       1.506   0.030   0.002  0.00  0.00    +0.000 A 
ATOM      9  C   UNL     1      -1.898  -1.517  -0.035  0.00  0.00    +0.000 C 
ATOM     10  C   UNL     1       1.116   1.358  -0.003  0.00  0.00    +0.000 A 
ATOM     11  H   UNL     1      -2.710   2.191  -0.035  0.00  0.00    +0.000 HD
ENDROOT
BRANCH   8  14
ATOM     12  O   UNL     1       3.271  -1.530   0.001  0.00  0.00    +0.000 OA
ATOM     13  N   UNL     1       3.852   0.688   0.021  0.00  0.00    +0.000 N 
ATOM     14  C   UNL     1       2.910  -0.339   0.014  0.00  0.00    +0.000 C 
ATOM     15  H   UNL     1       3.643   1.678   0.027  0.00  0.00    +0.000 HD
ATOM     16  H   UNL     1       4.841   0.458   0.021  0.00  0.00    +0.000 HD
ENDBRANCH   8  14
TORSDOF 1
