REMARK  Name = 67408208
REMARK  2 active torsions:
REMARK  status: ('A' for Active; 'I' for Inactive)
REMARK    1  A    between atoms: C_8  and  C_11
REMARK    2  A    between atoms: C_9  and  C_14
REMARK                            x       y       z     vdW  Elec       q    Type
REMARK                         _______ _______ _______ _____ _____    ______ ____
ROOT
ATOM      1  N   UNL     1       2.257   1.322   0.008  0.00  0.00    +0.000 NA
ATOM      2  N   UNL     1       3.775  -0.515  -0.026  0.00  0.00    +0.000 N 
ATOM      3  C   UNL     1       0.114  -0.473   0.005  0.00  0.00    +0.000 A 
ATOM      4  C   UNL     1      -0.123   0.897   0.023  0.00  0.00    +0.000 A 
ATOM      5  C   UNL     1       1.421  -0.947  -0.011  0.00  0.00    +0.000 A 
ATOM      6  C   UNL     1       2.448  -0.016  -0.009  0.00  0.00    +0.000 A 
ATOM      7  C   UNL     1       0.973   1.745   0.024  0.00  0.00    +0.000 A 
ATOM      8  H   UNL     1       3.953  -1.424   0.382  0.00  0.00    +0.000 HD
ATOM      9  H   UNL     1       4.522   0.169  -0.018  0.00  0.00    +0.000 HD
ENDROOT
BRANCH   4  12
ATOM     10  O   UNL     1      -2.052   1.699   1.112  0.00  0.00    +0.000 OA
ATOM     11  N   UNL     1      -2.078   1.711  -1.181  0.00  0.00    +0.000 N 
ATOM     12  C   UNL     1      -1.468   1.450   0.042  0.00  0.00    +0.000 C 
ATOM     13  H   UNL     1      -1.616   1.522  -2.065  0.00  0.00    +0.000 HD
ATOM     14  H   UNL     1      -3.013   2.102  -1.226  0.00  0.00    +0.000 HD
ENDBRANCH   4  12
BRANCH   3  18
ATOM     15  F   UNL     1      -1.844  -1.325  -1.073  0.00  0.00    +0.000 F 
ATOM     16  F   UNL     1      -0.583  -2.746  -0.015  0.00  0.00    +0.000 F 
ATOM     17  F   UNL     1      -1.826  -1.350   1.096  0.00  0.00    +0.000 F 
ATOM     18  C   UNL     1      -1.014  -1.452   0.004  0.00  0.00    +0.000 C 
ENDBRANCH   3  18
TORSDOF 2
