REMARK  Name = 67482276
REMARK  5 active torsions:
REMARK  status: ('A' for Active; 'I' for Inactive)
REMARK    1  A    between atoms: SI_1  and  C_5
REMARK    2  A    between atoms: SI_1  and  C_6
REMARK    3  A    between atoms: SI_1  and  C_7
REMARK    4  A    between atoms: SI_1  and  C_8
REMARK    5  A    between atoms: C_5  and  C_9
REMARK                            x       y       z     vdW  Elec       q    Type
REMARK                         _______ _______ _______ _____ _____    ______ ____
ROOT
ATOM      1  N   UNL     1       2.048   1.220   0.333  0.00  0.00    +0.000 NA
ATOM      2  N   UNL     1       4.311   0.633  -0.129  0.00  0.00    +0.000 N 
ATOM      3  C   UNL     1       0.319  -0.456   0.125  0.00  0.00    +0.000 A 
ATOM      4  C   UNL     1       1.268  -1.399  -0.253  0.00  0.00    +0.000 A 
ATOM      5  C   UNL     1       0.756   0.828   0.405  0.00  0.00    +0.000 A 
ATOM      6  C   UNL     1       2.607  -1.034  -0.339  0.00  0.00    +0.000 A 
ATOM      7  C   UNL     1       2.942   0.276  -0.038  0.00  0.00    +0.000 A 
ATOM      8  H   UNL     1       4.552   1.590   0.097  0.00  0.00    +0.000 HD
ATOM      9  H   UNL     1       5.007  -0.086   0.022  0.00  0.00    +0.000 HD
ENDROOT
BRANCH   3  11
ATOM     10  O   UNL     1      -1.469  -1.947   0.519  0.00  0.00    +0.000 OA
ATOM     11  C   UNL     1      -1.113  -0.813   0.226  0.00  0.00    +0.000 C 
BRANCH  11  12
ATOM     12 SI   UNL     1      -2.535   0.382  -0.118  0.00  0.00    +0.000 Si
ATOM     13  C   UNL     1      -4.006  -0.585  -0.803  0.00  0.00    +0.000 C 
ATOM     14  C   UNL     1      -3.080   1.226   1.467  0.00  0.00    +0.000 C 
ATOM     15  C   UNL     1      -2.049   1.668  -1.395  0.00  0.00    +0.000 C 
ENDBRANCH  11  12
ENDBRANCH   3  11
TORSDOF 2
