REMARK  Name = 67508458
REMARK  4 active torsions:
REMARK  status: ('A' for Active; 'I' for Inactive)
REMARK    1  A    between atoms: N_2  and  C_5
REMARK    2  A    between atoms: N_2  and  C_10
REMARK    3  A    between atoms: N_2  and  C_11
REMARK    4  A    between atoms: C_12  and  C_14
REMARK                            x       y       z     vdW  Elec       q    Type
REMARK                         _______ _______ _______ _____ _____    ______ ____
ROOT
ATOM      1  N   UNL     1       1.275  -1.902   0.170  0.00  0.00    +0.000 NA
ATOM      2  C   UNL     1       0.835  -0.625   0.223  0.00  0.00    +0.000 A 
ATOM      3  C   UNL     1       1.598   0.474  -0.136  0.00  0.00    +0.000 A 
ATOM      4  C   UNL     1       2.897   0.248  -0.577  0.00  0.00    +0.000 A 
ATOM      5  C   UNL     1       2.543  -2.083  -0.264  0.00  0.00    +0.000 A 
ATOM      6  C   UNL     1       3.386  -1.051  -0.646  0.00  0.00    +0.000 A 
ENDROOT
BRANCH   3   9
ATOM      7  O   UNL     1       0.506   2.362  -1.025  0.00  0.00    +0.000 OA
ATOM      8  N   UNL     1       1.283   2.535   1.125  0.00  0.00    +0.000 N 
ATOM      9  C   UNL     1       1.096   1.840  -0.065  0.00  0.00    +0.000 C 
ATOM     10  H   UNL     1       0.946   3.486   1.232  0.00  0.00    +0.000 HD
ATOM     11  H   UNL     1       1.760   2.124   1.921  0.00  0.00    +0.000 HD
ENDBRANCH   3   9
BRANCH   2  12
ATOM     12  N   UNL     1      -0.474  -0.406   0.672  0.00  0.00    +0.000 N 
ATOM     13  C   UNL     1      -0.739  -0.204   2.096  0.00  0.00    +0.000 C 
BRANCH  12  14
ATOM     14  C   UNL     1      -1.585  -0.380  -0.244  0.00  0.00    +0.000 C 
ATOM     15  C   UNL     1      -2.636  -1.414   0.129  0.00  0.00    +0.000 C 
ATOM     16  C   UNL     1      -2.357   0.929  -0.158  0.00  0.00    +0.000 C 
ATOM     17  C   UNL     1      -3.906  -0.916  -0.553  0.00  0.00    +0.000 C 
ATOM     18  C   UNL     1      -3.722   0.591  -0.747  0.00  0.00    +0.000 C 
ENDBRANCH  12  14
ENDBRANCH   2  12
TORSDOF 3
