REMARK  Name = 67516351
REMARK  0 active torsions:
REMARK  status: ('A' for Active; 'I' for Inactive)
REMARK                            x       y       z     vdW  Elec       q    Type
REMARK                         _______ _______ _______ _____ _____    ______ ____
ROOT
ATOM      1  O   UNL     1      -2.307   1.427   0.000  0.00  0.00    +0.000 OA
ATOM      2  N   UNL     1       1.451  -1.274   0.000  0.00  0.00    +0.000 NA
ATOM      3  N   UNL     1      -0.940  -1.650  -0.000  0.00  0.00    +0.000 NA
ATOM      4  N   UNL     1      -1.964  -0.895  -0.000  0.00  0.00    +0.000 NA
ATOM      5  C   UNL     1      -0.150   0.498   0.000  0.00  0.00    +0.000 A 
ATOM      6  C   UNL     1       0.188  -0.825   0.000  0.00  0.00    +0.000 A 
ATOM      7  C   UNL     1       0.794   1.494   0.000  0.00  0.00    +0.000 A 
ATOM      8  C   UNL     1      -1.588   0.442   0.000  0.00  0.00    +0.000 C 
ATOM      9  C   UNL     1       2.122   1.077  -0.000  0.00  0.00    +0.000 A 
ATOM     10  C   UNL     1       2.395  -0.296   0.000  0.00  0.00    +0.000 A 
ENDROOT
TORSDOF 0
