REMARK  Name = 67572937
REMARK  0 active torsions:
REMARK  status: ('A' for Active; 'I' for Inactive)
REMARK                            x       y       z     vdW  Elec       q    Type
REMARK                         _______ _______ _______ _____ _____    ______ ____
ROOT
ATOM      1  O   UNL     1       0.023   2.551   0.000  0.00  0.00    +0.000 OA
ATOM      2  N   UNL     1      -1.192   0.543  -0.000  0.00  0.00    +0.000 N 
ATOM      3  N   UNL     1      -0.018  -1.538  -0.000  0.00  0.00    +0.000 NA
ATOM      4  N   UNL     1       2.307  -1.596  -0.000  0.00  0.00    +0.000 NA
ATOM      5  C   UNL     1       1.236   0.557  -0.000  0.00  0.00    +0.000 A 
ATOM      6  C   UNL     1      -1.127  -0.860  -0.000  0.00  0.00    +0.000 A 
ATOM      7  C   UNL     1      -0.025   1.324  -0.000  0.00  0.00    +0.000 A 
ATOM      8  C   UNL     1       1.190  -0.830  -0.000  0.00  0.00    +0.000 A 
ATOM      9  C   UNL     1      -2.424   1.188  -0.000  0.00  0.00    +0.000 A 
ATOM     10  C   UNL     1      -2.424  -1.600  -0.000  0.00  0.00    +0.000 A 
ATOM     11  C   UNL     1       2.477   1.193   0.000  0.00  0.00    +0.000 A 
ATOM     12  C   UNL     1      -3.581   0.516   0.000  0.00  0.00    +0.000 A 
ATOM     13  C   UNL     1      -3.575  -0.920   0.001  0.00  0.00    +0.000 A 
ATOM     14  C   UNL     1       3.634   0.424   0.000  0.00  0.00    +0.000 A 
ATOM     15  C   UNL     1       3.497  -0.953   0.000  0.00  0.00    +0.000 A 
ENDROOT
TORSDOF 0
