REMARK  Name = 67580014
REMARK  5 active torsions:
REMARK  status: ('A' for Active; 'I' for Inactive)
REMARK    1  A    between atoms: N_2  and  C_5
REMARK    2  A    between atoms: C_5  and  C_6
REMARK    3  A    between atoms: C_5  and  C_7
REMARK    4  A    between atoms: C_6  and  C_11
REMARK    5  A    between atoms: C_9  and  C_12
REMARK                            x       y       z     vdW  Elec       q    Type
REMARK                         _______ _______ _______ _____ _____    ______ ____
ROOT
ATOM      1  O   UNL     1      -2.614   2.179   0.267  0.00  0.00    +0.000 OA
ATOM      2  N   UNL     1       0.915   0.329  -0.260  0.00  0.00    +0.000 N 
ATOM      3  N   UNL     1      -0.351   2.346  -0.018  0.00  0.00    +0.000 NA
ATOM      4  N   UNL     1      -0.168  -1.840  -0.213  0.00  0.00    +0.000 NA
ATOM      5  C   UNL     1      -0.240  -0.483  -0.148  0.00  0.00    +0.000 A 
ATOM      6  C   UNL     1       0.771   1.708  -0.187  0.00  0.00    +0.000 A 
ATOM      7  C   UNL     1      -1.471   0.155   0.035  0.00  0.00    +0.000 A 
ATOM      8  C   UNL     1       1.998   2.588  -0.309  0.00  0.00    +0.000 C 
ATOM      9  C   UNL     1      -1.526   1.637   0.104  0.00  0.00    +0.000 A 
ATOM     10  C   UNL     1      -2.638  -0.604   0.151  0.00  0.00    +0.000 A 
ATOM     11  C   UNL     1      -2.560  -1.987   0.084  0.00  0.00    +0.000 A 
ATOM     12  C   UNL     1      -1.313  -2.551  -0.098  0.00  0.00    +0.000 A 
ENDROOT
BRANCH   2  13
ATOM     13  C   UNL     1       2.169  -0.389  -0.449  0.00  0.00    +0.000 C 
ATOM     14  C   UNL     1       2.091  -1.169  -1.758  0.00  0.00    +0.000 C 
BRANCH  13  15
ATOM     15  C   UNL     1       2.426  -1.330   0.735  0.00  0.00    +0.000 C 
ATOM     16  C   UNL     1       2.511  -0.591   2.064  0.00  0.00    +0.000 C 
ENDBRANCH  13  15
ENDBRANCH   2  13
TORSDOF 2
