REMARK  Name = 67608048
REMARK  7 active torsions:
REMARK  status: ('A' for Active; 'I' for Inactive)
REMARK    1  A    between atoms: N_2  and  C_7
REMARK    2  A    between atoms: N_2  and  C_11
REMARK    3  A    between atoms: N_3  and  C_6
REMARK    4  A    between atoms: C_6  and  C_7
REMARK    5  A    between atoms: C_6  and  C_8
REMARK    6  A    between atoms: C_6  and  C_9
REMARK    7  A    between atoms: C_14  and  C_16
REMARK                            x       y       z     vdW  Elec       q    Type
REMARK                         _______ _______ _______ _____ _____    ______ ____
ROOT
ATOM      1  N   UNL     1      -1.566   0.977   0.622  0.00  0.00    +0.000 N 
ATOM      2  N   UNL     1       0.281  -0.435   1.077  0.00  0.00    +0.000 NA
ATOM      3  C   UNL     1      -0.224   0.632   0.417  0.00  0.00    +0.000 A 
ATOM      4  C   UNL     1      -1.990   2.372   0.510  0.00  0.00    +0.000 C 
ATOM      5  C   UNL     1       0.507   1.418  -0.460  0.00  0.00    +0.000 A 
ATOM      6  C   UNL     1       1.841   1.087  -0.673  0.00  0.00    +0.000 A 
ATOM      7  C   UNL     1       2.395  -0.003  -0.012  0.00  0.00    +0.000 A 
ATOM      8  C   UNL     1       1.581  -0.725   0.845  0.00  0.00    +0.000 A 
ENDROOT
BRANCH   7  11
ATOM      9  O   UNL     1       4.529   0.280  -0.969  0.00  0.00    +0.000 OA
ATOM     10  N   UNL     1       4.271  -1.477   0.482  0.00  0.00    +0.000 N 
ATOM     11  C   UNL     1       3.785  -0.373  -0.213  0.00  0.00    +0.000 C 
ATOM     12  H   UNL     1       3.735  -2.056   1.117  0.00  0.00    +0.000 HD
ATOM     13  H   UNL     1       5.241  -1.754   0.365  0.00  0.00    +0.000 HD
ENDBRANCH   7  11
BRANCH   1  14
ATOM     14  C   UNL     1      -2.560  -0.024   0.937  0.00  0.00    +0.000 C 
BRANCH  14  15
ATOM     15  C   UNL     1      -3.075  -0.741  -0.327  0.00  0.00    +0.000 C 
ATOM     16  C   UNL     1      -1.960  -1.542  -1.014  0.00  0.00    +0.000 C 
ATOM     17  C   UNL     1      -3.701   0.249  -1.321  0.00  0.00    +0.000 C 
BRANCH  15  18
ATOM     18  N   UNL     1      -4.112  -1.694   0.099  0.00  0.00    +0.000 NA
ATOM     19  H   UNL     1      -4.892  -1.191   0.520  0.00  0.00    +0.000 HD
ATOM     20  H   UNL     1      -4.495  -2.177  -0.713  0.00  0.00    +0.000 HD
ENDBRANCH  15  18
ENDBRANCH  14  15
ENDBRANCH   1  14
TORSDOF 4
