REMARK  Name = 67952719
REMARK  3 active torsions:
REMARK  status: ('A' for Active; 'I' for Inactive)
REMARK    1  A    between atoms: N_2  and  C_12
REMARK    2  A    between atoms: N_4  and  N_5
REMARK    3  A    between atoms: C_6  and  C_10
REMARK                            x       y       z     vdW  Elec       q    Type
REMARK                         _______ _______ _______ _____ _____    ______ ____
ROOT
ATOM      1  N   UNL     1       0.943   1.491  -0.235  0.00  0.00    +0.000 NA
ATOM      2  N   UNL     1       3.041   0.369  -0.106  0.00  0.00    +0.000 N 
ATOM      3  C   UNL     1      -1.099   0.230   0.056  0.00  0.00    +0.000 A 
ATOM      4  C   UNL     1      -0.362  -0.935   0.237  0.00  0.00    +0.000 A 
ATOM      5  C   UNL     1       1.026  -0.889   0.183  0.00  0.00    +0.000 A 
ATOM      6  C   UNL     1       1.626   0.338  -0.054  0.00  0.00    +0.000 A 
ATOM      7  C   UNL     1      -0.405   1.406  -0.176  0.00  0.00    +0.000 A 
ATOM      8  H   UNL     1       3.481   1.266  -0.279  0.00  0.00    +0.000 HD
ENDROOT
BRANCH   3  11
ATOM      9  O   UNL     1      -3.184   1.237   0.422  0.00  0.00    +0.000 OA
ATOM     10  N   UNL     1      -3.187  -0.986  -0.235  0.00  0.00    +0.000 N 
ATOM     11  C   UNL     1      -2.550   0.214   0.106  0.00  0.00    +0.000 C 
ATOM     12  C   UNL     1      -4.622  -1.153  -0.256  0.00  0.00    +0.000 C 
ATOM     13  H   UNL     1      -2.638  -1.773  -0.566  0.00  0.00    +0.000 HD
ENDBRANCH   3  11
BRANCH   2  14
ATOM     14  N   UNL     1       3.750  -0.756   0.067  0.00  0.00    +0.000 NA
ATOM     15  C   UNL     1       5.022  -0.565  -0.009  0.00  0.00    +0.000 C 
ENDBRANCH   2  14
TORSDOF 2
