REMARK  Name = 68012899
REMARK  3 active torsions:
REMARK  status: ('A' for Active; 'I' for Inactive)
REMARK    1  A    between atoms: C_4  and  C_6
REMARK    2  A    between atoms: C_4  and  C_8
REMARK    3  A    between atoms: C_5  and  C_6
REMARK                            x       y       z     vdW  Elec       q    Type
REMARK                         _______ _______ _______ _____ _____    ______ ____
ROOT
ATOM      1  N   UNL     1       1.681   1.270   0.001  0.00  0.00    +0.000 NA
ATOM      2  N   UNL     1       3.862   0.312  -0.003  0.00  0.00    +0.000 N 
ATOM      3  C   UNL     1      -0.254  -0.179   0.002  0.00  0.00    +0.000 A 
ATOM      4  C   UNL     1       0.573  -1.296  -0.001  0.00  0.00    +0.000 A 
ATOM      5  C   UNL     1       0.344   1.071   0.003  0.00  0.00    +0.000 A 
ATOM      6  C   UNL     1       1.954  -1.132  -0.002  0.00  0.00    +0.000 A 
ATOM      7  C   UNL     1       2.453   0.161  -0.001  0.00  0.00    +0.000 A 
ATOM      8  H   UNL     1       4.426  -0.419   0.414  0.00  0.00    +0.000 HD
ATOM      9  H   UNL     1       4.222   1.258   0.004  0.00  0.00    +0.000 HD
ENDROOT
BRANCH   3  11
ATOM     10  O   UNL     1      -2.235  -1.447   0.003  0.00  0.00    +0.000 OA
ATOM     11  C   UNL     1      -1.700  -0.318   0.003  0.00  0.00    +0.000 C 
BRANCH  11  12
ATOM     12  C   UNL     1      -2.595   0.936   0.006  0.00  0.00    +0.000 C 
ATOM     13  C   UNL     1      -4.082   0.622  -0.011  0.00  0.00    +0.000 C 
ENDBRANCH  11  12
ENDBRANCH   3  11
TORSDOF 2
