REMARK  Name = 68036950
REMARK  1 active torsions:
REMARK  status: ('A' for Active; 'I' for Inactive)
REMARK    1  A    between atoms: N_3  and  C_11
REMARK                            x       y       z     vdW  Elec       q    Type
REMARK                         _______ _______ _______ _____ _____    ______ ____
ROOT
ATOM      1 CL   UNL     1      -3.018  -1.962   0.000  0.00  0.00    +0.000 Cl
ATOM      2  O   UNL     1      -0.622   2.508  -0.000  0.00  0.00    +0.000 OA
ATOM      3  N   UNL     1      -1.743   0.456  -0.000  0.00  0.00    +0.000 N 
ATOM      4  N   UNL     1      -0.499  -1.576  -0.000  0.00  0.00    +0.000 NA
ATOM      5  N   UNL     1       1.827  -1.550   0.000  0.00  0.00    +0.000 NA
ATOM      6  C   UNL     1       0.679   0.563   0.000  0.00  0.00    +0.000 A 
ATOM      7  C   UNL     1      -0.611   1.281  -0.000  0.00  0.00    +0.000 A 
ATOM      8  C   UNL     1       0.684  -0.826  -0.000  0.00  0.00    +0.000 A 
ATOM      9  C   UNL     1      -1.628  -0.939  -0.000  0.00  0.00    +0.000 A 
ATOM     10  C   UNL     1       1.895   1.245   0.000  0.00  0.00    +0.000 A 
ATOM     11  C   UNL     1      -3.034   1.141   0.001  0.00  0.00    +0.000 C 
ATOM     12  C   UNL     1       3.079   0.519   0.000  0.00  0.00    +0.000 A 
ATOM     13  C   UNL     1       2.993  -0.862   0.000  0.00  0.00    +0.000 A 
ENDROOT
TORSDOF 0
