REMARK  Name = 68083878
REMARK  4 active torsions:
REMARK  status: ('A' for Active; 'I' for Inactive)
REMARK    1  A    between atoms: N_2  and  C_8
REMARK    2  A    between atoms: N_2  and  C_9
REMARK    3  A    between atoms: N_4  and  C_13
REMARK    4  A    between atoms: C_6  and  C_7
REMARK                            x       y       z     vdW  Elec       q    Type
REMARK                         _______ _______ _______ _____ _____    ______ ____
ROOT
ATOM      1  N   UNL     1      -1.701  -0.302  -0.935  0.00  0.00    +0.000 NA
ATOM      2  C   UNL     1       0.443   0.382  -0.053  0.00  0.00    +0.000 A 
ATOM      3  C   UNL     1      -0.158   0.739   1.149  0.00  0.00    +0.000 A 
ATOM      4  C   UNL     1      -0.366  -0.130  -1.055  0.00  0.00    +0.000 A 
ATOM      5  C   UNL     1      -1.529   0.576   1.310  0.00  0.00    +0.000 A 
ATOM      6  C   UNL     1      -2.250   0.056   0.247  0.00  0.00    +0.000 A 
ENDROOT
BRANCH   2   9
ATOM      7  O   UNL     1       2.262   1.627  -0.704  0.00  0.00    +0.000 OA
ATOM      8  N   UNL     1       2.732  -0.523   0.085  0.00  0.00    +0.000 N 
ATOM      9  C   UNL     1       1.892   0.542  -0.255  0.00  0.00    +0.000 C 
ATOM     10  C   UNL     1       4.178  -0.449  -0.066  0.00  0.00    +0.000 C 
ATOM     11  C   UNL     1       2.215  -1.783   0.614  0.00  0.00    +0.000 C 
ENDBRANCH   2   9
BRANCH   6  12
ATOM     12  N   UNL     1      -3.631  -0.129   0.362  0.00  0.00    +0.000 NA
ATOM     13  N   UNL     1      -4.087  -0.605  -0.699  0.00  0.00    +0.000 NA
ATOM     14  H   UNL     1      -5.101  -0.749  -0.639  0.00  0.00    +0.000 HD
ENDBRANCH   6  12
TORSDOF 2
