REMARK  Name = 68261222
REMARK  4 active torsions:
REMARK  status: ('A' for Active; 'I' for Inactive)
REMARK    1  A    between atoms: N_3  and  C_10
REMARK    2  A    between atoms: N_3  and  C_12
REMARK    3  A    between atoms: C_6  and  C_10
REMARK    4  A    between atoms: C_13  and  C_14
REMARK                            x       y       z     vdW  Elec       q    Type
REMARK                         _______ _______ _______ _____ _____    ______ ____
ROOT
ATOM      1  O   UNL     1      -0.368  -1.204   1.879  0.00  0.00    +0.000 OA
ATOM      2  N   UNL     1       0.397  -0.934  -0.341  0.00  0.00    +0.000 N 
ATOM      3  C   UNL     1       0.071  -0.488  -1.703  0.00  0.00    +0.000 C 
ATOM      4  C   UNL     1      -0.546  -0.857   0.712  0.00  0.00    +0.000 C 
ENDROOT
BRANCH   4   7
ATOM      5  N   UNL     1      -4.147  -0.730  -0.339  0.00  0.00    +0.000 NA
ATOM      6  N   UNL     1      -5.660   1.099  -0.543  0.00  0.00    +0.000 N 
ATOM      7  C   UNL     1      -1.878  -0.321   0.388  0.00  0.00    +0.000 A 
ATOM      8  C   UNL     1      -2.148   1.039   0.490  0.00  0.00    +0.000 A 
ATOM      9  C   UNL     1      -2.903  -1.156  -0.027  0.00  0.00    +0.000 A 
ATOM     10  C   UNL     1      -3.417   1.516   0.178  0.00  0.00    +0.000 A 
ATOM     11  C   UNL     1      -4.372   0.598  -0.228  0.00  0.00    +0.000 A 
ATOM     12  H   UNL     1      -6.357   0.425  -0.833  0.00  0.00    +0.000 HD
ATOM     13  H   UNL     1      -5.973   1.945  -0.083  0.00  0.00    +0.000 HD
ENDBRANCH   4   7
BRANCH   2  14
ATOM     14  C   UNL     1       1.716  -1.451  -0.132  0.00  0.00    +0.000 C 
BRANCH  14  16
ATOM     15  N   UNL     1       3.582   1.879   0.083  0.00  0.00    +0.000 NA
ATOM     16  C   UNL     1       2.774  -0.401  -0.463  0.00  0.00    +0.000 C 
ATOM     17  C   UNL     1       4.184  -0.960  -0.233  0.00  0.00    +0.000 C 
ATOM     18  C   UNL     1       2.558   0.872   0.368  0.00  0.00    +0.000 C 
ATOM     19  C   UNL     1       5.234   0.124  -0.456  0.00  0.00    +0.000 C 
ATOM     20  C   UNL     1       4.924   1.373   0.366  0.00  0.00    +0.000 C 
ATOM     21  H   UNL     1       3.408   2.706   0.655  0.00  0.00    +0.000 HD
ENDBRANCH  14  16
ENDBRANCH   2  14
TORSDOF 3
