REMARK  Name = 68261051
REMARK  7 active torsions:
REMARK  status: ('A' for Active; 'I' for Inactive)
REMARK    1  A    between atoms: N_2  and  C_6
REMARK    2  A    between atoms: N_2  and  C_7
REMARK    3  A    between atoms: N_3  and  C_8
REMARK    4  A    between atoms: N_3  and  C_13
REMARK    5  A    between atoms: C_6  and  C_8
REMARK    6  A    between atoms: C_7  and  C_10
REMARK    7  A    between atoms: C_9  and  C_11
REMARK                            x       y       z     vdW  Elec       q    Type
REMARK                         _______ _______ _______ _____ _____    ______ ____
ROOT
ATOM      1  O   UNL     1       0.781  -2.455   1.138  0.00  0.00    +0.000 OA
ATOM      2  N   UNL     1       1.784  -0.670   0.009  0.00  0.00    +0.000 N 
ATOM      3  C   UNL     1       0.701  -1.397   0.515  0.00  0.00    +0.000 C 
ENDROOT
BRANCH   3   6
ATOM      4  N   UNL     1      -2.627  -0.804  -1.115  0.00  0.00    +0.000 NA
ATOM      5  N   UNL     1      -4.486   0.530  -0.450  0.00  0.00    +0.000 N 
ATOM      6  C   UNL     1      -0.657  -0.879   0.284  0.00  0.00    +0.000 A 
ATOM      7  C   UNL     1      -1.257  -0.009   1.188  0.00  0.00    +0.000 A 
ATOM      8  C   UNL     1      -1.378  -1.242  -0.842  0.00  0.00    +0.000 A 
ATOM      9  C   UNL     1      -2.541   0.463   0.942  0.00  0.00    +0.000 A 
ATOM     10  C   UNL     1      -3.178   0.040  -0.213  0.00  0.00    +0.000 A 
ATOM     11  H   UNL     1      -4.950   0.213  -1.292  0.00  0.00    +0.000 HD
ATOM     12  H   UNL     1      -5.058   0.781   0.347  0.00  0.00    +0.000 HD
ENDBRANCH   3   6
BRANCH   2  13
ATOM     13  C   UNL     1       3.161  -1.114   0.176  0.00  0.00    +0.000 C 
ATOM     14  C   UNL     1       3.601  -2.001  -0.970  0.00  0.00    +0.000 C 
ENDBRANCH   2  13
BRANCH   2  15
ATOM     15  C   UNL     1       1.607   0.582  -0.722  0.00  0.00    +0.000 C 
BRANCH  15  16
ATOM     16  C   UNL     1       1.625   1.777   0.220  0.00  0.00    +0.000 C 
BRANCH  16  17
ATOM     17  N   UNL     1       1.438   3.014  -0.527  0.00  0.00    +0.000 NA
ATOM     18  C   UNL     1       1.424   4.164   0.366  0.00  0.00    +0.000 C 
ATOM     19  H   UNL     1       0.556   2.975  -1.038  0.00  0.00    +0.000 HD
ENDBRANCH  16  17
ENDBRANCH  15  16
ENDBRANCH   2  15
TORSDOF 5
