REMARK  Name = 68261432
REMARK  2 active torsions:
REMARK  status: ('A' for Active; 'I' for Inactive)
REMARK    1  A    between atoms: N_3  and  C_6
REMARK    2  A    between atoms: C_10  and  C_11
REMARK                            x       y       z     vdW  Elec       q    Type
REMARK                         _______ _______ _______ _____ _____    ______ ____
ROOT
ATOM      1  O   UNL     1       0.363   2.575   0.231  0.00  0.00    +0.000 OA
ATOM      2  N   UNL     1       1.545   0.583   0.068  0.00  0.00    +0.000 N 
ATOM      3  C   UNL     1       3.087  -1.090  -0.543  0.00  0.00    +0.000 C 
ATOM      4  C   UNL     1       3.828   0.015   0.210  0.00  0.00    +0.000 C 
ATOM      5  C   UNL     1       1.638  -0.866  -0.114  0.00  0.00    +0.000 C 
ATOM      6  C   UNL     1       2.869   1.191   0.089  0.00  0.00    +0.000 C 
ATOM      7  C   UNL     1       0.392   1.350   0.143  0.00  0.00    +0.000 C 
ENDROOT
BRANCH   7  10
ATOM      8  N   UNL     1      -3.024   0.290  -0.995  0.00  0.00    +0.000 NA
ATOM      9  N   UNL     1      -4.557  -1.296  -0.094  0.00  0.00    +0.000 N 
ATOM     10  C   UNL     1      -0.898   0.644   0.102  0.00  0.00    +0.000 A 
ATOM     11  C   UNL     1      -1.229  -0.303   1.065  0.00  0.00    +0.000 A 
ATOM     12  C   UNL     1      -1.822   0.902  -0.898  0.00  0.00    +0.000 A 
ATOM     13  C   UNL     1      -2.456  -0.953   0.999  0.00  0.00    +0.000 A 
ATOM     14  C   UNL     1      -3.310  -0.624  -0.041  0.00  0.00    +0.000 A 
ATOM     15  H   UNL     1      -4.620  -2.226   0.301  0.00  0.00    +0.000 HD
ATOM     16  H   UNL     1      -5.175  -1.056  -0.859  0.00  0.00    +0.000 HD
ENDBRANCH   7  10
BRANCH   3  17
ATOM     17  N   UNL     1       3.574  -2.418  -0.221  0.00  0.00    +0.000 NA
ATOM     18  H   UNL     1       4.545  -2.510  -0.518  0.00  0.00    +0.000 HD
ATOM     19  H   UNL     1       3.044  -3.115  -0.741  0.00  0.00    +0.000 HD
ENDBRANCH   3  17
TORSDOF 2
