REMARK  Name = 68348576
REMARK  5 active torsions:
REMARK  status: ('A' for Active; 'I' for Inactive)
REMARK    1  A    between atoms: N_2  and  C_5
REMARK    2  A    between atoms: N_2  and  C_10
REMARK    3  A    between atoms: C_5  and  C_11
REMARK    4  A    between atoms: C_6  and  C_7
REMARK    5  A    between atoms: C_8  and  C_14
REMARK                            x       y       z     vdW  Elec       q    Type
REMARK                         _______ _______ _______ _____ _____    ______ ____
ROOT
ATOM      1  N   UNL     1      -2.057  -1.503  -0.190  0.00  0.00    +0.000 NA
ATOM      2  N   UNL     1      -4.105  -0.328  -0.423  0.00  0.00    +0.000 N 
ATOM      3  C   UNL     1      -0.031  -0.297   0.344  0.00  0.00    +0.000 A 
ATOM      4  C   UNL     1      -2.105   0.897   0.104  0.00  0.00    +0.000 A 
ATOM      5  C   UNL     1      -0.739   0.900   0.361  0.00  0.00    +0.000 A 
ATOM      6  C   UNL     1      -0.730  -1.460   0.065  0.00  0.00    +0.000 A 
ATOM      7  C   UNL     1      -2.712  -0.320  -0.164  0.00  0.00    +0.000 A 
ATOM      8  C   UNL     1      -2.860   2.182   0.123  0.00  0.00    +0.000 C 
ATOM      9  H   UNL     1      -4.522  -1.233  -0.607  0.00  0.00    +0.000 HD
ATOM     10  H   UNL     1      -4.521   0.476  -0.876  0.00  0.00    +0.000 HD
ENDROOT
BRANCH   3  13
ATOM     11  O   UNL     1       1.746  -0.489   1.789  0.00  0.00    +0.000 OA
ATOM     12  N   UNL     1       2.296  -0.189  -0.463  0.00  0.00    +0.000 N 
ATOM     13  C   UNL     1       1.415  -0.328   0.614  0.00  0.00    +0.000 C 
ATOM     14  C   UNL     1       1.827  -0.002  -1.829  0.00  0.00    +0.000 C 
BRANCH  12  15
ATOM     15  C   UNL     1       3.747  -0.223  -0.292  0.00  0.00    +0.000 C 
ATOM     16  C   UNL     1       4.308   1.161  -0.039  0.00  0.00    +0.000 C 
ENDBRANCH  12  15
ENDBRANCH   3  13
TORSDOF 2
