REMARK  Name = 68459150
REMARK  2 active torsions:
REMARK  status: ('A' for Active; 'I' for Inactive)
REMARK    1  A    between atoms: N_3  and  C_6
REMARK    2  A    between atoms: C_11  and  C_12
REMARK                            x       y       z     vdW  Elec       q    Type
REMARK                         _______ _______ _______ _____ _____    ______ ____
ROOT
ATOM      1  O   UNL     1      -0.046   2.305   0.452  0.00  0.00    +0.000 OA
ATOM      2  N   UNL     1      -1.034   0.208   0.403  0.00  0.00    +0.000 N 
ATOM      3  C   UNL     1       0.039   1.083   0.366  0.00  0.00    +0.000 C 
ATOM      4  H   UNL     1      -0.890  -0.779   0.220  0.00  0.00    +0.000 HD
ENDROOT
BRANCH   3   7
ATOM      5  N   UNL     1       3.652   0.653  -0.607  0.00  0.00    +0.000 NA
ATOM      6  N   UNL     1       5.134  -1.198  -0.372  0.00  0.00    +0.000 N 
ATOM      7  C   UNL     1       1.375   0.460   0.182  0.00  0.00    +0.000 A 
ATOM      8  C   UNL     1       1.621  -0.844   0.597  0.00  0.00    +0.000 A 
ATOM      9  C   UNL     1       2.414   1.160  -0.410  0.00  0.00    +0.000 A 
ATOM     10  C   UNL     1       2.882  -1.400   0.412  0.00  0.00    +0.000 A 
ATOM     11  C   UNL     1       3.854  -0.617  -0.190  0.00  0.00    +0.000 A 
ATOM     12  H   UNL     1       5.432  -1.919   0.273  0.00  0.00    +0.000 HD
ATOM     13  H   UNL     1       5.843  -0.621  -0.807  0.00  0.00    +0.000 HD
ENDBRANCH   3   7
BRANCH   2  15
ATOM     14  N   UNL     1      -4.241  -1.193  -0.781  0.00  0.00    +0.000 NA
ATOM     15  C   UNL     1      -2.398   0.663   0.552  0.00  0.00    +0.000 C 
ATOM     16  C   UNL     1      -3.237  -0.362   1.319  0.00  0.00    +0.000 C 
ATOM     17  C   UNL     1      -3.035   0.968  -0.807  0.00  0.00    +0.000 C 
ATOM     18  C   UNL     1      -3.581  -1.582   0.464  0.00  0.00    +0.000 C 
ATOM     19  C   UNL     1      -3.398  -0.303  -1.579  0.00  0.00    +0.000 C 
ATOM     20  H   UNL     1      -4.455  -2.029  -1.325  0.00  0.00    +0.000 HD
ENDBRANCH   2  15
TORSDOF 2
