REMARK  Name = 68522357
REMARK  5 active torsions:
REMARK  status: ('A' for Active; 'I' for Inactive)
REMARK    1  A    between atoms: S_1  and  N_5
REMARK    2  A    between atoms: S_1  and  N_6
REMARK    3  A    between atoms: N_5  and  C_10
REMARK    4  A    between atoms: N_5  and  C_11
REMARK    5  A    between atoms: C_13  and  C_16
REMARK                            x       y       z     vdW  Elec       q    Type
REMARK                         _______ _______ _______ _____ _____    ______ ____
ROOT
ATOM      1  N   UNL     1       1.585  -0.052   1.240  0.00  0.00    +0.000 N 
ATOM      2  N   UNL     1      -0.251   1.060   0.239  0.00  0.00    +0.000 NA
ATOM      3  C   UNL     1       0.199  -0.057   0.854  0.00  0.00    +0.000 A 
ATOM      4  C   UNL     1      -0.587  -1.167   1.118  0.00  0.00    +0.000 A 
ATOM      5  C   UNL     1      -2.420   0.002   0.090  0.00  0.00    +0.000 A 
ATOM      6  C   UNL     1      -1.920  -1.130   0.725  0.00  0.00    +0.000 A 
ATOM      7  C   UNL     1      -1.553   1.060  -0.128  0.00  0.00    +0.000 A 
ATOM      8  H   UNL     1       1.890  -0.855   1.805  0.00  0.00    +0.000 HD
ENDROOT
BRANCH   5  11
ATOM      9  O   UNL     1      -4.259   1.075  -0.917  0.00  0.00    +0.000 OA
ATOM     10  N   UNL     1      -4.621  -1.030  -0.082  0.00  0.00    +0.000 N 
ATOM     11  C   UNL     1      -3.808   0.072  -0.333  0.00  0.00    +0.000 C 
ATOM     12  H   UNL     1      -4.331  -1.882   0.382  0.00  0.00    +0.000 HD
ATOM     13  H   UNL     1      -5.593  -1.010  -0.373  0.00  0.00    +0.000 HD
ENDBRANCH   5  11
BRANCH   1  14
ATOM     14  S   UNL     1       2.757   0.669   0.205  0.00  0.00    +0.000 S 
ATOM     15  O   UNL     1       2.197   1.828  -0.465  0.00  0.00    +0.000 OA
ATOM     16  O   UNL     1       3.970   0.828   0.991  0.00  0.00    +0.000 OA
BRANCH  14  17
ATOM     17  N   UNL     1       3.042  -0.569  -0.960  0.00  0.00    +0.000 NA
ATOM     18  C   UNL     1       3.556  -1.872  -0.472  0.00  0.00    +0.000 C 
ATOM     19  C   UNL     1       2.111  -0.717  -2.103  0.00  0.00    +0.000 C 
ENDBRANCH  14  17
ENDBRANCH   1  14
TORSDOF 3
