REMARK  Name = 68570515
REMARK  2 active torsions:
REMARK  status: ('A' for Active; 'I' for Inactive)
REMARK    1  A    between atoms: N_4  and  C_7
REMARK    2  A    between atoms: C_6  and  C_10
REMARK                            x       y       z     vdW  Elec       q    Type
REMARK                         _______ _______ _______ _____ _____    ______ ____
ROOT
ATOM      1  F   UNL     1      -2.914  -1.486   0.002  0.00  0.00    +0.000 F 
ATOM      2  N   UNL     1      -1.113   1.663   0.021  0.00  0.00    +0.000 NA
ATOM      3  C   UNL     1       0.471  -0.163  -0.024  0.00  0.00    +0.000 A 
ATOM      4  C   UNL     1       0.152   1.185  -0.002  0.00  0.00    +0.000 A 
ATOM      5  C   UNL     1      -0.575  -1.080  -0.023  0.00  0.00    +0.000 A 
ATOM      6  C   UNL     1      -1.889  -0.627   0.000  0.00  0.00    +0.000 A 
ATOM      7  C   UNL     1      -2.103   0.742   0.021  0.00  0.00    +0.000 A 
ENDROOT
BRANCH   3  10
ATOM      8  O   UNL     1       2.446  -0.833  -1.119  0.00  0.00    +0.000 OA
ATOM      9  N   UNL     1       2.469  -0.879   1.174  0.00  0.00    +0.000 N 
ATOM     10  C   UNL     1       1.844  -0.648  -0.048  0.00  0.00    +0.000 C 
ATOM     11  H   UNL     1       1.996  -0.726   2.059  0.00  0.00    +0.000 HD
ATOM     12  H   UNL     1       3.426  -1.211   1.216  0.00  0.00    +0.000 HD
ENDBRANCH   3  10
BRANCH   4  13
ATOM     13  N   UNL     1       1.212   2.126  -0.003  0.00  0.00    +0.000 N 
ATOM     14  H   UNL     1       2.087   1.870   0.439  0.00  0.00    +0.000 HD
ATOM     15  H   UNL     1       0.949   3.103   0.009  0.00  0.00    +0.000 HD
ENDBRANCH   4  13
TORSDOF 2
