REMARK  Name = 68653270
REMARK  7 active torsions:
REMARK  status: ('A' for Active; 'I' for Inactive)
REMARK    1  A    between atoms: N_2  and  C_6
REMARK    2  A    between atoms: N_2  and  C_9
REMARK    3  A    between atoms: N_3  and  C_7
REMARK    4  A    between atoms: N_3  and  C_10
REMARK    5  A    between atoms: N_3  and  C_11
REMARK    6  A    between atoms: C_6  and  C_7
REMARK    7  A    between atoms: C_14  and  C_16
REMARK                            x       y       z     vdW  Elec       q    Type
REMARK                         _______ _______ _______ _____ _____    ______ ____
ROOT
ATOM      1  N   UNL     1      -1.195  -1.408   0.341  0.00  0.00    +0.000 N 
ATOM      2  N   UNL     1       0.258   0.457   0.501  0.00  0.00    +0.000 NA
ATOM      3  C   UNL     1       0.086  -0.854   0.217  0.00  0.00    +0.000 A 
ATOM      4  C   UNL     1      -1.412  -2.825   0.041  0.00  0.00    +0.000 C 
ATOM      5  C   UNL     1       1.105  -1.698  -0.194  0.00  0.00    +0.000 A 
ATOM      6  C   UNL     1       2.382  -1.163  -0.322  0.00  0.00    +0.000 A 
ATOM      7  C   UNL     1       2.598   0.181  -0.039  0.00  0.00    +0.000 A 
ATOM      8  C   UNL     1       1.512   0.941   0.365  0.00  0.00    +0.000 A 
ENDROOT
BRANCH   7  11
ATOM      9  O   UNL     1       4.898   0.099  -0.541  0.00  0.00    +0.000 OA
ATOM     10  N   UNL     1       4.060   2.123   0.137  0.00  0.00    +0.000 N 
ATOM     11  C   UNL     1       3.920   0.770  -0.163  0.00  0.00    +0.000 C 
ATOM     12  H   UNL     1       4.971   2.562   0.053  0.00  0.00    +0.000 HD
ATOM     13  H   UNL     1       3.316   2.737   0.445  0.00  0.00    +0.000 HD
ENDBRANCH   7  11
BRANCH   1  14
ATOM     14  C   UNL     1      -2.321  -0.613   0.769  0.00  0.00    +0.000 C 
BRANCH  14  15
ATOM     15  C   UNL     1      -2.980   0.035  -0.442  0.00  0.00    +0.000 C 
BRANCH  15  16
ATOM     16  N   UNL     1      -4.141   0.824  -0.029  0.00  0.00    +0.000 NA
ATOM     17  C   UNL     1      -3.716   2.114   0.512  0.00  0.00    +0.000 C 
ATOM     18  C   UNL     1      -5.054   1.016  -1.154  0.00  0.00    +0.000 C 
ENDBRANCH  15  16
ENDBRANCH  14  15
ENDBRANCH   1  14
TORSDOF 4
