REMARK  Name = 68653568
REMARK  4 active torsions:
REMARK  status: ('A' for Active; 'I' for Inactive)
REMARK    1  A    between atoms: C_6  and  C_7
REMARK    2  A    between atoms: C_6  and  C_8
REMARK    3  A    between atoms: C_6  and  C_9
REMARK    4  A    between atoms: C_12  and  C_15
REMARK                            x       y       z     vdW  Elec       q    Type
REMARK                         _______ _______ _______ _____ _____    ______ ____
ROOT
ATOM      1  O   UNL     1      -2.433  -1.501  -0.089  0.00  0.00    +0.000 OA
ATOM      2  N   UNL     1      -1.577   0.668   0.161  0.00  0.00    +0.000 N 
ATOM      3  N   UNL     1       0.636   1.537   0.221  0.00  0.00    +0.000 NA
ATOM      4  C   UNL     1      -2.580  -0.292   0.064  0.00  0.00    +0.000 C 
ATOM      5  C   UNL     1      -0.177   0.464   0.106  0.00  0.00    +0.000 A 
ATOM      6  C   UNL     1       0.273  -0.836  -0.062  0.00  0.00    +0.000 A 
ATOM      7  C   UNL     1       2.515   0.032  -0.001  0.00  0.00    +0.000 A 
ATOM      8  C   UNL     1       1.646  -1.047  -0.116  0.00  0.00    +0.000 A 
ATOM      9  C   UNL     1       1.965   1.293   0.165  0.00  0.00    +0.000 A 
ATOM     10  H   UNL     1      -1.848   1.641   0.280  0.00  0.00    +0.000 HD
ENDROOT
BRANCH   7  13
ATOM     11  O   UNL     1       4.739   0.804   0.069  0.00  0.00    +0.000 OA
ATOM     12  N   UNL     1       4.436  -1.452  -0.215  0.00  0.00    +0.000 N 
ATOM     13  C   UNL     1       3.955  -0.155  -0.050  0.00  0.00    +0.000 C 
ATOM     14  H   UNL     1       3.867  -2.283  -0.313  0.00  0.00    +0.000 HD
ATOM     15  H   UNL     1       5.438  -1.612  -0.246  0.00  0.00    +0.000 HD
ENDBRANCH   7  13
BRANCH   4  16
ATOM     16  C   UNL     1      -3.971   0.341   0.162  0.00  0.00    +0.000 C 
ATOM     17  C   UNL     1      -4.457   0.758  -1.225  0.00  0.00    +0.000 C 
ATOM     18  C   UNL     1      -4.969  -0.616   0.810  0.00  0.00    +0.000 C 
ENDBRANCH   4  16
TORSDOF 2
