REMARK  Name = 68652799
REMARK  3 active torsions:
REMARK  status: ('A' for Active; 'I' for Inactive)
REMARK    1  A    between atoms: N_3  and  C_10
REMARK    2  A    between atoms: C_8  and  C_14
REMARK    3  A    between atoms: C_11  and  C_13
REMARK                            x       y       z     vdW  Elec       q    Type
REMARK                         _______ _______ _______ _____ _____    ______ ____
ROOT
ATOM      1  O   UNL     1       2.761  -1.551  -0.901  0.00  0.00    +0.000 OA
ATOM      2  N   UNL     1       2.175   0.498   0.099  0.00  0.00    +0.000 N 
ATOM      3  N   UNL     1      -0.026   1.408  -0.251  0.00  0.00    +0.000 NA
ATOM      4  C   UNL     1       0.735   0.338   0.071  0.00  0.00    +0.000 A 
ATOM      5  C   UNL     1       0.225  -0.913   0.378  0.00  0.00    +0.000 A 
ATOM      6  C   UNL     1      -1.972   0.001   0.026  0.00  0.00    +0.000 A 
ATOM      7  C   UNL     1      -1.156  -1.076   0.353  0.00  0.00    +0.000 A 
ATOM      8  C   UNL     1       2.682   1.855   0.355  0.00  0.00    +0.000 C 
ATOM      9  C   UNL     1       3.038  -0.576  -0.197  0.00  0.00    +0.000 C 
ATOM     10  C   UNL     1      -1.364   1.211  -0.265  0.00  0.00    +0.000 A 
ATOM     11  C   UNL     1       4.435  -0.491   0.373  0.00  0.00    +0.000 C 
ENDROOT
BRANCH   6  14
ATOM     12  O   UNL     1      -4.155   0.818  -0.319  0.00  0.00    +0.000 OA
ATOM     13  N   UNL     1      -3.959  -1.385   0.289  0.00  0.00    +0.000 N 
ATOM     14  C   UNL     1      -3.418  -0.137  -0.012  0.00  0.00    +0.000 C 
ATOM     15  H   UNL     1      -3.431  -2.210   0.542  0.00  0.00    +0.000 HD
ATOM     16  H   UNL     1      -4.966  -1.511   0.264  0.00  0.00    +0.000 HD
ENDBRANCH   6  14
TORSDOF 1
