REMARK  Name = 68653608
REMARK  2 active torsions:
REMARK  status: ('A' for Active; 'I' for Inactive)
REMARK    1  A    between atoms: C_6  and  C_9
REMARK    2  A    between atoms: C_13  and  C_15
REMARK                            x       y       z     vdW  Elec       q    Type
REMARK                         _______ _______ _______ _____ _____    ______ ____
ROOT
ATOM      1  O   UNL     1      -2.393   1.667  -0.206  0.00  0.00    +0.000 OA
ATOM      2  N   UNL     1      -1.582  -0.541  -0.287  0.00  0.00    +0.000 N 
ATOM      3  N   UNL     1       0.579  -1.498  -0.193  0.00  0.00    +0.000 NA
ATOM      4  C   UNL     1      -2.555   0.458  -0.294  0.00  0.00    +0.000 C 
ATOM      5  C   UNL     1      -0.194  -0.389  -0.178  0.00  0.00    +0.000 A 
ATOM      6  C   UNL     1       0.300   0.900  -0.064  0.00  0.00    +0.000 A 
ATOM      7  C   UNL     1       1.677   1.062   0.043  0.00  0.00    +0.000 A 
ATOM      8  C   UNL     1       2.506  -0.054   0.032  0.00  0.00    +0.000 A 
ATOM      9  C   UNL     1       1.913  -1.301  -0.087  0.00  0.00    +0.000 A 
ATOM     10  H   UNL     1      -1.892  -1.506  -0.374  0.00  0.00    +0.000 HD
ENDROOT
BRANCH   8  13
ATOM     11  O   UNL     1       4.698  -0.912   0.113  0.00  0.00    +0.000 OA
ATOM     12  N   UNL     1       4.473   1.365   0.251  0.00  0.00    +0.000 N 
ATOM     13  C   UNL     1       3.948   0.081   0.138  0.00  0.00    +0.000 C 
ATOM     14  H   UNL     1       3.935   2.222   0.274  0.00  0.00    +0.000 HD
ATOM     15  H   UNL     1       5.479   1.489   0.321  0.00  0.00    +0.000 HD
ENDBRANCH   8  13
BRANCH   4  16
ATOM     16  C   UNL     1      -3.951  -0.065  -0.426  0.00  0.00    +0.000 C 
ATOM     17  C   UNL     1      -4.445  -1.088   0.554  0.00  0.00    +0.000 C 
ATOM     18  C   UNL     1      -4.974   0.315   0.604  0.00  0.00    +0.000 C 
ENDBRANCH   4  16
TORSDOF 2
