REMARK  Name = 68699848
REMARK  5 active torsions:
REMARK  status: ('A' for Active; 'I' for Inactive)
REMARK    1  A    between atoms: N_2  and  C_13
REMARK    2  A    between atoms: N_2  and  C_14
REMARK    3  A    between atoms: C_5  and  C_8
REMARK    4  A    between atoms: C_6  and  C_12
REMARK    5  A    between atoms: C_8  and  C_10
REMARK                            x       y       z     vdW  Elec       q    Type
REMARK                         _______ _______ _______ _____ _____    ______ ____
ROOT
ATOM      1  N   UNL     1       2.198   0.126   0.155  0.00  0.00    +0.000 N 
ATOM      2  N   UNL     1       0.803   2.040   0.091  0.00  0.00    +0.000 NA
ATOM      3  C   UNL     1      -1.439   0.407  -0.258  0.00  0.00    +0.000 A 
ATOM      4  C   UNL     1      -0.174  -0.160  -0.139  0.00  0.00    +0.000 A 
ATOM      5  C   UNL     1       0.904   0.693   0.032  0.00  0.00    +0.000 A 
ATOM      6  C   UNL     1      -1.584   1.788  -0.203  0.00  0.00    +0.000 A 
ATOM      7  C   UNL     1      -0.442   2.554  -0.028  0.00  0.00    +0.000 A 
ATOM      8  C   UNL     1       3.007  -0.101  -1.022  0.00  0.00    +0.000 C 
ATOM      9  C   UNL     1       2.718  -0.223   1.458  0.00  0.00    +0.000 C 
ENDROOT
BRANCH   4  12
ATOM     10  O   UNL     1       0.211  -2.187  -1.275  0.00  0.00    +0.000 OA
ATOM     11  N   UNL     1      -0.074  -2.312   0.997  0.00  0.00    +0.000 N 
ATOM     12  C   UNL     1      -0.004  -1.608  -0.198  0.00  0.00    +0.000 C 
ATOM     13  H   UNL     1       0.043  -3.320   1.017  0.00  0.00    +0.000 HD
ATOM     14  H   UNL     1      -0.244  -1.852   1.886  0.00  0.00    +0.000 HD
ENDBRANCH   4  12
BRANCH   3  15
ATOM     15  C   UNL     1      -2.655  -0.440  -0.446  0.00  0.00    +0.000 C 
ATOM     16  C   UNL     1      -3.468  -0.577   0.837  0.00  0.00    +0.000 C 
ENDBRANCH   3  15
TORSDOF 2
