REMARK  Name = 68695914
REMARK  5 active torsions:
REMARK  status: ('A' for Active; 'I' for Inactive)
REMARK    1  A    between atoms: N_2  and  C_10
REMARK    2  A    between atoms: C_5  and  C_7
REMARK    3  A    between atoms: C_6  and  C_13
REMARK    4  A    between atoms: C_7  and  C_11
REMARK    5  A    between atoms: C_10  and  C_14
REMARK                            x       y       z     vdW  Elec       q    Type
REMARK                         _______ _______ _______ _____ _____    ______ ____
ROOT
ATOM      1  N   UNL     1       2.032  -0.196   0.052  0.00  0.00    +0.000 N 
ATOM      2  N   UNL     1       0.862   1.864   0.013  0.00  0.00    +0.000 NA
ATOM      3  C   UNL     1      -1.562   0.493  -0.227  0.00  0.00    +0.000 A 
ATOM      4  C   UNL     1      -0.366  -0.212  -0.148  0.00  0.00    +0.000 A 
ATOM      5  C   UNL     1       0.808   0.514  -0.030  0.00  0.00    +0.000 A 
ATOM      6  C   UNL     1      -1.547   1.883  -0.187  0.00  0.00    +0.000 A 
ATOM      7  C   UNL     1      -0.320   2.515  -0.067  0.00  0.00    +0.000 A 
ATOM      8  H   UNL     1       2.028  -1.139  -0.321  0.00  0.00    +0.000 HD
ENDROOT
BRANCH   4  11
ATOM      9  O   UNL     1      -0.258  -2.281  -1.267  0.00  0.00    +0.000 OA
ATOM     10  N   UNL     1      -0.467  -2.350   1.015  0.00  0.00    +0.000 N 
ATOM     11  C   UNL     1      -0.364  -1.670  -0.192  0.00  0.00    +0.000 C 
ATOM     12  H   UNL     1      -0.548  -1.864   1.903  0.00  0.00    +0.000 HD
ATOM     13  H   UNL     1      -0.464  -3.364   1.045  0.00  0.00    +0.000 HD
ENDBRANCH   4  11
BRANCH   3  14
ATOM     14  C   UNL     1      -2.873  -0.210  -0.357  0.00  0.00    +0.000 C 
ATOM     15  C   UNL     1      -3.646  -0.242   0.958  0.00  0.00    +0.000 C 
ENDBRANCH   3  14
BRANCH   1  16
ATOM     16  C   UNL     1       3.294   0.458   0.175  0.00  0.00    +0.000 C 
ATOM     17  C   UNL     1       4.407  -0.568   0.262  0.00  0.00    +0.000 C 
ENDBRANCH   1  16
TORSDOF 3
