REMARK  Name = 68757947
REMARK  4 active torsions:
REMARK  status: ('A' for Active; 'I' for Inactive)
REMARK    1  A    between atoms: N_2  and  C_5
REMARK    2  A    between atoms: N_2  and  C_8
REMARK    3  A    between atoms: N_2  and  C_9
REMARK    4  A    between atoms: C_10  and  C_12
REMARK                            x       y       z     vdW  Elec       q    Type
REMARK                         _______ _______ _______ _____ _____    ______ ____
ROOT
ATOM      1  N   UNL     1      -0.891   1.843   0.164  0.00  0.00    +0.000 NA
ATOM      2  C   UNL     1      -0.326   0.618   0.253  0.00  0.00    +0.000 A 
ATOM      3  C   UNL     1      -0.986  -0.564  -0.041  0.00  0.00    +0.000 A 
ATOM      4  C   UNL     1      -2.311  -0.483  -0.454  0.00  0.00    +0.000 A 
ATOM      5  C   UNL     1      -2.180   1.882  -0.240  0.00  0.00    +0.000 A 
ATOM      6  C   UNL     1      -2.927   0.759  -0.558  0.00  0.00    +0.000 A 
ENDROOT
BRANCH   3   9
ATOM      7  O   UNL     1       0.263  -2.372  -0.889  0.00  0.00    +0.000 OA
ATOM      8  N   UNL     1      -0.439  -2.531   1.288  0.00  0.00    +0.000 N 
ATOM      9  C   UNL     1      -0.351  -1.870   0.068  0.00  0.00    +0.000 C 
ATOM     10  H   UNL     1      -0.929  -2.133   2.083  0.00  0.00    +0.000 HD
ATOM     11  H   UNL     1      -0.009  -3.440   1.421  0.00  0.00    +0.000 HD
ENDBRANCH   3   9
BRANCH   2  12
ATOM     12  N   UNL     1       1.025   0.544   0.677  0.00  0.00    +0.000 N 
ATOM     13  C   UNL     1       1.406   1.070   1.979  0.00  0.00    +0.000 C 
BRANCH  12  14
ATOM     14  C   UNL     1       2.079  -0.046  -0.170  0.00  0.00    +0.000 C 
ATOM     15  C   UNL     1       2.311   0.433  -1.573  0.00  0.00    +0.000 C 
ATOM     16  C   UNL     1       3.327   0.716  -0.506  0.00  0.00    +0.000 C 
ENDBRANCH  12  14
ENDBRANCH   2  12
TORSDOF 3
