REMARK  Name = 68756739
REMARK  4 active torsions:
REMARK  status: ('A' for Active; 'I' for Inactive)
REMARK    1  A    between atoms: N_2  and  C_5
REMARK    2  A    between atoms: N_2  and  C_9
REMARK    3  A    between atoms: N_2  and  C_10
REMARK    4  A    between atoms: C_11  and  C_13
REMARK                            x       y       z     vdW  Elec       q    Type
REMARK                         _______ _______ _______ _____ _____    ______ ____
ROOT
ATOM      1  N   UNL     1      -0.986   1.875  -0.179  0.00  0.00    +0.000 NA
ATOM      2  C   UNL     1      -0.522   0.611  -0.291  0.00  0.00    +0.000 A 
ATOM      3  C   UNL     1      -1.244  -0.516   0.067  0.00  0.00    +0.000 A 
ATOM      4  C   UNL     1      -2.526  -0.333   0.573  0.00  0.00    +0.000 A 
ATOM      5  C   UNL     1      -2.236   2.014   0.317  0.00  0.00    +0.000 A 
ATOM      6  C   UNL     1      -3.039   0.953   0.704  0.00  0.00    +0.000 A 
ENDROOT
BRANCH   3   9
ATOM      7  O   UNL     1      -0.097  -2.411   0.867  0.00  0.00    +0.000 OA
ATOM      8  N   UNL     1      -0.941  -2.536  -1.262  0.00  0.00    +0.000 N 
ATOM      9  C   UNL     1      -0.715  -1.867  -0.064  0.00  0.00    +0.000 C 
ATOM     10  H   UNL     1      -0.599  -3.480  -1.405  0.00  0.00    +0.000 HD
ATOM     11  H   UNL     1      -1.448  -2.109  -2.030  0.00  0.00    +0.000 HD
ENDBRANCH   3   9
BRANCH   2  12
ATOM     12  N   UNL     1       0.793   0.432  -0.808  0.00  0.00    +0.000 N 
ATOM     13  C   UNL     1       1.062   0.920  -2.165  0.00  0.00    +0.000 C 
BRANCH  12  14
ATOM     14  C   UNL     1       1.866  -0.198  -0.097  0.00  0.00    +0.000 C 
ATOM     15  C   UNL     1       1.922   0.220   1.387  0.00  0.00    +0.000 C 
ATOM     16  C   UNL     1       3.210   0.539  -0.276  0.00  0.00    +0.000 C 
ATOM     17  C   UNL     1       3.455   0.297   1.228  0.00  0.00    +0.000 C 
ENDBRANCH  12  14
ENDBRANCH   2  12
TORSDOF 3
