REMARK  Name = 68790144
REMARK  0 active torsions:
REMARK  status: ('A' for Active; 'I' for Inactive)
REMARK                            x       y       z     vdW  Elec       q    Type
REMARK                         _______ _______ _______ _____ _____    ______ ____
ROOT
ATOM      1  O   UNL     1      -1.233  -2.148  -0.732  0.00  0.00    +0.000 OA
ATOM      2  N   UNL     1      -0.549   1.797  -0.229  0.00  0.00    +0.000 N 
ATOM      3  N   UNL     1       1.731   1.385   0.002  0.00  0.00    +0.000 NA
ATOM      4  N   UNL     1      -2.047  -0.618   0.775  0.00  0.00    +0.000 NA
ATOM      5  C   UNL     1       0.471   0.877  -0.073  0.00  0.00    +0.000 A 
ATOM      6  C   UNL     1       0.267  -0.509  -0.013  0.00  0.00    +0.000 A 
ATOM      7  C   UNL     1      -1.910   1.452  -0.558  0.00  0.00    +0.000 C 
ATOM      8  C   UNL     1       1.370  -1.366   0.083  0.00  0.00    +0.000 A 
ATOM      9  C   UNL     1      -1.075  -1.146  -0.042  0.00  0.00    +0.000 C 
ATOM     10  C   UNL     1      -2.454   0.586   0.535  0.00  0.00    +0.000 C 
ATOM     11  C   UNL     1       2.651  -0.840   0.145  0.00  0.00    +0.000 A 
ATOM     12  C   UNL     1       2.776   0.532   0.107  0.00  0.00    +0.000 A 
ATOM     13  H   UNL     1      -0.279   2.774  -0.263  0.00  0.00    +0.000 HD
ENDROOT
TORSDOF 0
