REMARK  Name = 68832818
REMARK  4 active torsions:
REMARK  status: ('A' for Active; 'I' for Inactive)
REMARK    1  A    between atoms: N_2  and  C_11
REMARK    2  A    between atoms: N_2  and  C_12
REMARK    3  A    between atoms: C_5  and  C_10
REMARK    4  A    between atoms: C_8  and  C_13
REMARK                            x       y       z     vdW  Elec       q    Type
REMARK                         _______ _______ _______ _____ _____    ______ ____
ROOT
ATOM      1  N   UNL     1       2.879   0.047  -0.009  0.00  0.00    +0.000 N 
ATOM      2  N   UNL     1       0.883   1.348   0.014  0.00  0.00    +0.000 NA
ATOM      3  C   UNL     1      -0.628  -1.004   0.013  0.00  0.00    +0.000 A 
ATOM      4  C   UNL     1       1.464   0.127   0.003  0.00  0.00    +0.000 A 
ATOM      5  C   UNL     1       0.761  -1.067   0.002  0.00  0.00    +0.000 A 
ATOM      6  C   UNL     1      -1.262   0.233   0.024  0.00  0.00    +0.000 A 
ATOM      7  C   UNL     1      -0.469   1.369   0.024  0.00  0.00    +0.000 A 
ATOM      8  C   UNL     1      -1.413  -2.275   0.013  0.00  0.00    +0.000 C 
ATOM      9  C   UNL     1       3.534  -1.242  -0.020  0.00  0.00    +0.000 C 
ATOM     10  C   UNL     1       3.676   1.254  -0.016  0.00  0.00    +0.000 C 
ENDROOT
BRANCH   6  13
ATOM     11  O   UNL     1      -3.347   0.427   1.104  0.00  0.00    +0.000 OA
ATOM     12  N   UNL     1      -3.367   0.423  -1.189  0.00  0.00    +0.000 N 
ATOM     13  C   UNL     1      -2.712   0.360   0.037  0.00  0.00    +0.000 C 
ATOM     14  H   UNL     1      -4.376   0.517  -1.237  0.00  0.00    +0.000 HD
ATOM     15  H   UNL     1      -2.866   0.376  -2.071  0.00  0.00    +0.000 HD
ENDBRANCH   6  13
TORSDOF 1
