REMARK  Name = 68926299
REMARK  3 active torsions:
REMARK  status: ('A' for Active; 'I' for Inactive)
REMARK    1  A    between atoms: N_4  and  C_12
REMARK    2  A    between atoms: N_5  and  C_14
REMARK    3  A    between atoms: C_8  and  C_12
REMARK                            x       y       z     vdW  Elec       q    Type
REMARK                         _______ _______ _______ _____ _____    ______ ____
ROOT
ATOM      1  O   UNL     1       0.014   2.013  -0.259  0.00  0.00    +0.000 OA
ATOM      2  C   UNL     1       0.045   0.786  -0.263  0.00  0.00    +0.000 C 
ENDROOT
BRANCH   2   5
ATOM      3  N   UNL     1       3.826  -1.184   0.192  0.00  0.00    +0.000 NA
ATOM      4  N   UNL     1       4.898   0.940   0.331  0.00  0.00    +0.000 N 
ATOM      5  C   UNL     1       1.361   0.101  -0.105  0.00  0.00    +0.000 A 
ATOM      6  C   UNL     1       2.524   0.848   0.041  0.00  0.00    +0.000 A 
ATOM      7  C   UNL     1       1.428  -1.288  -0.102  0.00  0.00    +0.000 A 
ATOM      8  C   UNL     1       3.721   0.164   0.184  0.00  0.00    +0.000 A 
ATOM      9  C   UNL     1       2.674  -1.876   0.048  0.00  0.00    +0.000 A 
ATOM     10  H   UNL     1       4.922   1.862  -0.085  0.00  0.00    +0.000 HD
ATOM     11  H   UNL     1       5.770   0.435   0.430  0.00  0.00    +0.000 HD
ENDBRANCH   2   5
BRANCH   2  12
ATOM     12  N   UNL     1      -1.040  -0.054  -0.399  0.00  0.00    +0.000 NA
ATOM     13  C   UNL     1      -2.208   0.480  -0.540  0.00  0.00    +0.000 C 
BRANCH  13  14
ATOM     14  N   UNL     1      -3.295  -0.339  -0.688  0.00  0.00    +0.000 NA
ATOM     15  N   UNL     1      -5.445  -0.988   0.192  0.00  0.00    +0.000 N 
ATOM     16  N   UNL     1      -4.226   0.654   1.198  0.00  0.00    +0.000 N 
ATOM     17  C   UNL     1      -4.277  -0.257   0.170  0.00  0.00    +0.000 C 
ATOM     18  H   UNL     1      -5.632  -1.698  -0.507  0.00  0.00    +0.000 HD
ATOM     19  H   UNL     1      -6.149  -0.841   0.908  0.00  0.00    +0.000 HD
ATOM     20  H   UNL     1      -3.439   1.273   1.355  0.00  0.00    +0.000 HD
ATOM     21  H   UNL     1      -4.989   0.726   1.863  0.00  0.00    +0.000 HD
ENDBRANCH  13  14
ENDBRANCH   2  12
TORSDOF 3
