REMARK  Name = 69160252
REMARK  0 active torsions:
REMARK  status: ('A' for Active; 'I' for Inactive)
REMARK                            x       y       z     vdW  Elec       q    Type
REMARK                         _______ _______ _______ _____ _____    ______ ____
ROOT
ATOM      1  O   UNL     1       1.222  -2.252  -0.002  0.00  0.00    +0.000 OA
ATOM      2  N   UNL     1       2.380  -0.288   0.001  0.00  0.00    +0.000 N 
ATOM      3  N   UNL     1      -2.445  -0.136   0.000  0.00  0.00    +0.000 NA
ATOM      4  N   UNL     1       2.460   1.070   0.000  0.00  0.00    +0.000 NA
ATOM      5  N   UNL     1      -1.423  -2.250   0.001  0.00  0.00    +0.000 N 
ATOM      6  C   UNL     1      -0.038  -0.254   0.000  0.00  0.00    +0.000 A 
ATOM      7  C   UNL     1       0.029   1.128  -0.000  0.00  0.00    +0.000 A 
ATOM      8  C   UNL     1      -1.291  -0.844   0.000  0.00  0.00    +0.000 A 
ATOM      9  C   UNL     1       1.211  -1.026   0.001  0.00  0.00    +0.000 A 
ATOM     10  C   UNL     1      -1.125   1.897  -0.001  0.00  0.00    +0.000 A 
ATOM     11  C   UNL     1       1.351   1.739   0.000  0.00  0.00    +0.000 A 
ATOM     12  C   UNL     1      -2.331   1.215  -0.001  0.00  0.00    +0.000 A 
ATOM     13  H   UNL     1       3.279  -0.758   0.000  0.00  0.00    +0.000 HD
ATOM     14  H   UNL     1      -0.706  -2.804  -0.452  0.00  0.00    +0.000 HD
ATOM     15  H   UNL     1      -2.366  -2.619   0.006  0.00  0.00    +0.000 HD
ENDROOT
TORSDOF 0
