REMARK  Name = 6919179
REMARK  1 active torsions:
REMARK  status: ('A' for Active; 'I' for Inactive)
REMARK    1  A    between atoms: C_5  and  C_10
REMARK                            x       y       z     vdW  Elec       q    Type
REMARK                         _______ _______ _______ _____ _____    ______ ____
ROOT
ATOM      1  N   UNL     1      -1.389   1.198  -0.003  0.00  0.00    +0.000 N 
ATOM      2  N   UNL     1      -3.485   0.060  -0.001  0.00  0.00    +0.000 N 
ATOM      3  C   UNL     1       0.685  -0.035   0.002  0.00  0.00    +0.000 A 
ATOM      4  C   UNL     1      -2.083   0.003  -0.001  0.00  0.00    +0.000 A 
ATOM      5  C   UNL     1      -0.008   1.171  -0.001  0.00  0.00    +0.000 A 
ATOM      6  C   UNL     1      -0.022  -1.232   0.004  0.00  0.00    +0.000 A 
ATOM      7  C   UNL     1      -1.413  -1.216   0.002  0.00  0.00    +0.000 A 
ATOM      8  H   UNL     1      -1.891   2.085  -0.005  0.00  0.00    +0.000 HD
ATOM      9  H   UNL     1      -3.931   0.969  -0.006  0.00  0.00    +0.000 HD
ATOM     10  H   UNL     1      -4.002  -0.727  -0.373  0.00  0.00    +0.000 HD
ENDROOT
BRANCH   3  13
ATOM     11  O   UNL     1       2.785  -1.102  -0.009  0.00  0.00    +0.000 OA
ATOM     12  N   UNL     1       2.791   1.191   0.002  0.00  0.00    +0.000 N 
ATOM     13  C   UNL     1       2.139  -0.039   0.004  0.00  0.00    +0.000 C 
ATOM     14  H   UNL     1       2.338   2.096   0.007  0.00  0.00    +0.000 HD
ATOM     15  H   UNL     1       3.806   1.218  -0.003  0.00  0.00    +0.000 HD
ENDBRANCH   3  13
TORSDOF 1
