REMARK  Name = 69308532
REMARK  0 active torsions:
REMARK  status: ('A' for Active; 'I' for Inactive)
REMARK                            x       y       z     vdW  Elec       q    Type
REMARK                         _______ _______ _______ _____ _____    ______ ____
ROOT
ATOM      1  O   UNL     1      -0.495   2.704   0.005  0.00  0.00    +0.000 OA
ATOM      2  N   UNL     1      -0.962  -1.390   0.003  0.00  0.00    +0.000 NA
ATOM      3  N   UNL     1       1.337  -1.671   0.000  0.00  0.00    +0.000 NA
ATOM      4  N   UNL     1      -3.294  -1.218   0.002  0.00  0.00    +0.000 N 
ATOM      5  C   UNL     1      -2.004   0.852  -0.008  0.00  0.00    +0.000 C 
ATOM      6  C   UNL     1       0.511   0.582   0.001  0.00  0.00    +0.000 A 
ATOM      7  C   UNL     1      -0.645   1.487   0.000  0.00  0.00    +0.000 C 
ATOM      8  C   UNL     1       0.305  -0.791   0.001  0.00  0.00    +0.000 A 
ATOM      9  C   UNL     1      -2.039  -0.660  -0.001  0.00  0.00    +0.000 C 
ATOM     10  C   UNL     1       1.815   1.079  -0.000  0.00  0.00    +0.000 A 
ATOM     11  C   UNL     1       2.880   0.189  -0.001  0.00  0.00    +0.000 A 
ATOM     12  C   UNL     1       2.591  -1.164  -0.001  0.00  0.00    +0.000 A 
ATOM     13  H   UNL     1      -4.134  -0.650  -0.001  0.00  0.00    +0.000 HD
ATOM     14  H   UNL     1      -3.417  -2.225   0.007  0.00  0.00    +0.000 HD
ENDROOT
TORSDOF 0
