REMARK  Name = 6933883
REMARK  2 active torsions:
REMARK  status: ('A' for Active; 'I' for Inactive)
REMARK    1  A    between atoms: N_3  and  C_4
REMARK    2  A    between atoms: C_5  and  C_9
REMARK                            x       y       z     vdW  Elec       q    Type
REMARK                         _______ _______ _______ _____ _____    ______ ____
ROOT
ATOM      1  N   UNL     1      -1.685   0.711  -0.000  0.00  0.00    +0.000 N 
ATOM      2  C   UNL     1      -0.373   0.988   0.000  0.00  0.00    +0.000 A 
ATOM      3  C   UNL     1       0.555  -0.043   0.001  0.00  0.00    +0.000 A 
ATOM      4  C   UNL     1       0.097  -1.358   0.001  0.00  0.00    +0.000 A 
ATOM      5  C   UNL     1      -2.153  -0.544  -0.001  0.00  0.00    +0.000 A 
ATOM      6  C   UNL     1      -1.270  -1.615   0.000  0.00  0.00    +0.000 A 
ATOM      7  H   UNL     1      -2.349   1.484  -0.001  0.00  0.00    +0.000 HD
ENDROOT
BRANCH   2   8
ATOM      8  N   UNL     1       0.009   2.337   0.000  0.00  0.00    +0.000 N 
ATOM      9  H   UNL     1       0.852   2.603   0.494  0.00  0.00    +0.000 HD
ATOM     10  H   UNL     1      -0.729   3.031  -0.031  0.00  0.00    +0.000 HD
ENDBRANCH   2   8
BRANCH   3  12
ATOM     11  O   UNL     1       2.832  -0.687  -0.001  0.00  0.00    +0.000 OA
ATOM     12  C   UNL     1       1.988   0.212  -0.000  0.00  0.00    +0.000 C 
ENDBRANCH   3  12
TORSDOF 2
