REMARK  Name = 69366673
REMARK  0 active torsions:
REMARK  status: ('A' for Active; 'I' for Inactive)
REMARK                            x       y       z     vdW  Elec       q    Type
REMARK                         _______ _______ _______ _____ _____    ______ ____
ROOT
ATOM      1  O   UNL     1      -1.142   2.320  -0.691  0.00  0.00    +0.000 OA
ATOM      2  N   UNL     1       1.680  -1.390  -0.068  0.00  0.00    +0.000 NA
ATOM      3  N   UNL     1      -0.532  -1.762  -0.529  0.00  0.00    +0.000 NA
ATOM      4  C   UNL     1       0.263   0.549  -0.055  0.00  0.00    +0.000 A 
ATOM      5  C   UNL     1       0.448  -0.826  -0.177  0.00  0.00    +0.000 A 
ATOM      6  C   UNL     1      -1.040   1.229  -0.140  0.00  0.00    +0.000 A 
ATOM      7  C   UNL     1       1.383   1.359   0.176  0.00  0.00    +0.000 A 
ATOM      8  C   UNL     1      -2.188   0.642   0.579  0.00  0.00    +0.000 A 
ATOM      9  C   UNL     1       2.642   0.789   0.294  0.00  0.00    +0.000 A 
ATOM     10  C   UNL     1       2.736  -0.581   0.169  0.00  0.00    +0.000 A 
ATOM     11  C   UNL     1      -2.484  -0.656   0.616  0.00  0.00    +0.000 A 
ATOM     12  C   UNL     1      -1.765  -1.671  -0.173  0.00  0.00    +0.000 A 
ENDROOT
TORSDOF 0
