REMARK  Name = 69479878
REMARK  5 active torsions:
REMARK  status: ('A' for Active; 'I' for Inactive)
REMARK    1  A    between atoms: C_6  and  C_7
REMARK    2  A    between atoms: C_6  and  C_8
REMARK    3  A    between atoms: C_6  and  C_9
REMARK    4  A    between atoms: C_6  and  C_10
REMARK    5  A    between atoms: C_14  and  C_16
REMARK                            x       y       z     vdW  Elec       q    Type
REMARK                         _______ _______ _______ _____ _____    ______ ____
ROOT
ATOM      1  O   UNL     1      -2.100  -1.672   0.009  0.00  0.00    +0.000 OA
ATOM      2  N   UNL     1      -1.346   0.538   0.001  0.00  0.00    +0.000 N 
ATOM      3  N   UNL     1       0.834   1.491  -0.007  0.00  0.00    +0.000 NA
ATOM      4  C   UNL     1      -2.314  -0.461   0.006  0.00  0.00    +0.000 C 
ATOM      5  C   UNL     1       0.062   0.382  -0.002  0.00  0.00    +0.000 A 
ATOM      6  C   UNL     1       0.561  -0.911   0.002  0.00  0.00    +0.000 A 
ATOM      7  C   UNL     1       1.942  -1.075   0.000  0.00  0.00    +0.000 A 
ATOM      8  C   UNL     1       2.769   0.042  -0.005  0.00  0.00    +0.000 A 
ATOM      9  C   UNL     1       2.171   1.292  -0.008  0.00  0.00    +0.000 A 
ATOM     10  H   UNL     1      -1.644   1.509  -0.001  0.00  0.00    +0.000 HD
ENDROOT
BRANCH   8  13
ATOM     11  O   UNL     1       4.963   0.899   0.009  0.00  0.00    +0.000 OA
ATOM     12  N   UNL     1       4.745  -1.383   0.003  0.00  0.00    +0.000 N 
ATOM     13  C   UNL     1       4.215  -0.096  -0.003  0.00  0.00    +0.000 C 
ATOM     14  H   UNL     1       4.208  -2.241  -0.001  0.00  0.00    +0.000 HD
ATOM     15  H   UNL     1       5.753  -1.508   0.011  0.00  0.00    +0.000 HD
ENDBRANCH   8  13
BRANCH   4  16
ATOM     16  C   UNL     1      -3.761   0.092   0.009  0.00  0.00    +0.000 C 
ATOM     17  C   UNL     1      -3.982   0.950  -1.251  0.00  0.00    +0.000 C 
ATOM     18  C   UNL     1      -3.988   0.977   1.244  0.00  0.00    +0.000 C 
ATOM     19  C   UNL     1      -4.772  -1.065  -0.009  0.00  0.00    +0.000 C 
ENDBRANCH   4  16
TORSDOF 2
