REMARK  Name = 69852218
REMARK  3 active torsions:
REMARK  status: ('A' for Active; 'I' for Inactive)
REMARK    1  A    between atoms: N_2  and  C_7
REMARK    2  A    between atoms: C_6  and  C_11
REMARK    3  A    between atoms: C_7  and  C_12
REMARK                            x       y       z     vdW  Elec       q    Type
REMARK                         _______ _______ _______ _____ _____    ______ ____
ROOT
ATOM      1  N   UNL     1       2.138   0.551   0.155  0.00  0.00    +0.000 N 
ATOM      2  N   UNL     1      -0.065   1.451   0.034  0.00  0.00    +0.000 NA
ATOM      3  C   UNL     1       0.735   0.362   0.096  0.00  0.00    +0.000 A 
ATOM      4  C   UNL     1      -1.961  -0.048  -0.016  0.00  0.00    +0.000 A 
ATOM      5  C   UNL     1       0.269  -0.942   0.106  0.00  0.00    +0.000 A 
ATOM      6  C   UNL     1      -1.106  -1.143   0.049  0.00  0.00    +0.000 A 
ATOM      7  C   UNL     1      -1.395   1.217  -0.020  0.00  0.00    +0.000 A 
ATOM      8  H   UNL     1       2.459   1.512   0.145  0.00  0.00    +0.000 HD
ENDROOT
BRANCH   4  11
ATOM      9  O   UNL     1      -3.919  -1.357  -0.056  0.00  0.00    +0.000 OA
ATOM     10  N   UNL     1      -4.194   0.918  -0.139  0.00  0.00    +0.000 N 
ATOM     11  C   UNL     1      -3.401  -0.225  -0.076  0.00  0.00    +0.000 C 
ATOM     12  H   UNL     1      -3.853   1.871  -0.155  0.00  0.00    +0.000 HD
ATOM     13  H   UNL     1      -5.204   0.824  -0.176  0.00  0.00    +0.000 HD
ENDBRANCH   4  11
BRANCH   1  14
ATOM     14  C   UNL     1       3.058  -0.537   0.223  0.00  0.00    +0.000 C 
BRANCH  14  15
ATOM     15  C   UNL     1       4.449   0.010   0.277  0.00  0.00    +0.000 C 
ATOM     16  C   UNL     1       5.393  -0.257  -0.632  0.00  0.00    +0.000 C 
ENDBRANCH  14  15
ENDBRANCH   1  14
TORSDOF 3
