REMARK  Name = 69898147
REMARK  4 active torsions:
REMARK  status: ('A' for Active; 'I' for Inactive)
REMARK    1  A    between atoms: N_4  and  C_7
REMARK    2  A    between atoms: C_8  and  C_13
REMARK    3  A    between atoms: C_9  and  C_15
REMARK    4  A    between atoms: C_10  and  C_16
REMARK                            x       y       z     vdW  Elec       q    Type
REMARK                         _______ _______ _______ _____ _____    ______ ____
ROOT
ATOM      1  N   UNL     1      -0.970   1.700   0.705  0.00  0.00    +0.000 NA
ATOM      2  C   UNL     1      -0.457   0.536   0.246  0.00  0.00    +0.000 A 
ATOM      3  C   UNL     1      -1.225  -0.531  -0.191  0.00  0.00    +0.000 A 
ATOM      4  C   UNL     1      -2.608  -0.396  -0.155  0.00  0.00    +0.000 A 
ATOM      5  C   UNL     1      -3.173   0.787   0.310  0.00  0.00    +0.000 A 
ATOM      6  C   UNL     1      -2.318   1.795   0.725  0.00  0.00    +0.000 A 
ENDROOT
BRANCH   2   9
ATOM      7  O   UNL     1       1.122  -1.085   2.018  0.00  0.00    +0.000 OA
ATOM      8  O   UNL     1       2.871   1.695  -0.318  0.00  0.00    +0.000 OA
ATOM      9  N   UNL     1       0.987   0.408   0.216  0.00  0.00    +0.000 N 
ATOM     10  C   UNL     1       1.582  -0.624   0.971  0.00  0.00    +0.000 C 
ATOM     11  C   UNL     1       1.722   1.322  -0.567  0.00  0.00    +0.000 C 
ATOM     12  C   UNL     1       2.902  -1.137   0.442  0.00  0.00    +0.000 C 
ATOM     13  C   UNL     1       0.990   1.893  -1.759  0.00  0.00    +0.000 C 
ENDBRANCH   2   9
BRANCH   3  16
ATOM     14  O   UNL     1      -0.413  -2.725   0.083  0.00  0.00    +0.000 OA
ATOM     15  N   UNL     1      -0.369  -1.864  -2.042  0.00  0.00    +0.000 N 
ATOM     16  C   UNL     1      -0.642  -1.773  -0.682  0.00  0.00    +0.000 C 
ATOM     17  H   UNL     1      -0.560  -1.101  -2.683  0.00  0.00    +0.000 HD
ATOM     18  H   UNL     1       0.033  -2.708  -2.438  0.00  0.00    +0.000 HD
ENDBRANCH   3  16
TORSDOF 2
