REMARK  Name = 69968915
REMARK  2 active torsions:
REMARK  status: ('A' for Active; 'I' for Inactive)
REMARK    1  A    between atoms: C_8  and  C_12
REMARK    2  A    between atoms: C_9  and  C_13
REMARK                            x       y       z     vdW  Elec       q    Type
REMARK                         _______ _______ _______ _____ _____    ______ ____
ROOT
ATOM      1  N   UNL     1       2.319   1.382   0.011  0.00  0.00    +0.000 NA
ATOM      2  N   UNL     1       2.911  -0.912  -0.024  0.00  0.00    +0.000 N 
ATOM      3  C   UNL     1      -0.390   0.693  -0.001  0.00  0.00    +0.000 A 
ATOM      4  C   UNL     1       0.583  -0.301  -0.016  0.00  0.00    +0.000 A 
ATOM      5  C   UNL     1       1.912   0.093  -0.009  0.00  0.00    +0.000 A 
ATOM      6  C   UNL     1      -0.010   2.030   0.020  0.00  0.00    +0.000 A 
ATOM      7  C   UNL     1       1.345   2.319   0.025  0.00  0.00    +0.000 A 
ATOM      8  H   UNL     1       2.714  -1.799   0.423  0.00  0.00    +0.000 HD
ATOM      9  H   UNL     1       3.872  -0.592  -0.025  0.00  0.00    +0.000 HD
ENDROOT
BRANCH   4  12
ATOM     10  O   UNL     1       0.051  -2.316  -1.112  0.00  0.00    +0.000 OA
ATOM     11  N   UNL     1       0.031  -2.350   1.180  0.00  0.00    +0.000 N 
ATOM     12  C   UNL     1       0.201  -1.709  -0.041  0.00  0.00    +0.000 C 
ATOM     13  H   UNL     1       0.158  -1.869   2.065  0.00  0.00    +0.000 HD
ATOM     14  H   UNL     1      -0.228  -3.330   1.223  0.00  0.00    +0.000 HD
ENDBRANCH   4  12
BRANCH   3  18
ATOM     15  F   UNL     1      -2.236  -0.392   1.066  0.00  0.00    +0.000 F 
ATOM     16  F   UNL     1      -2.638   1.466   0.010  0.00  0.00    +0.000 F 
ATOM     17  F   UNL     1      -2.235  -0.359  -1.103  0.00  0.00    +0.000 F 
ATOM     18  C   UNL     1      -1.845   0.356  -0.007  0.00  0.00    +0.000 C 
ENDBRANCH   3  18
TORSDOF 2
