REMARK  Name = 70449287
REMARK  0 active torsions:
REMARK  status: ('A' for Active; 'I' for Inactive)
REMARK                            x       y       z     vdW  Elec       q    Type
REMARK                         _______ _______ _______ _____ _____    ______ ____
ROOT
ATOM      1  O   UNL     1       0.004   2.560   0.000  0.00  0.00    +0.000 OA
ATOM      2  N   UNL     1      -1.205   0.550   0.000  0.00  0.00    +0.000 N 
ATOM      3  N   UNL     1      -0.041  -1.528   0.001  0.00  0.00    +0.000 NA
ATOM      4  N   UNL     1      -2.315  -1.600   0.000  0.00  0.00    +0.000 NA
ATOM      5  N   UNL     1       2.284  -1.590   0.000  0.00  0.00    +0.000 NA
ATOM      6  C   UNL     1       1.218   0.565   0.001  0.00  0.00    +0.000 A 
ATOM      7  C   UNL     1      -0.042   1.333   0.001  0.00  0.00    +0.000 A 
ATOM      8  C   UNL     1      -1.151  -0.857   0.000  0.00  0.00    +0.000 A 
ATOM      9  C   UNL     1       1.169  -0.822   0.001  0.00  0.00    +0.000 A 
ATOM     10  C   UNL     1      -2.442   1.177  -0.000  0.00  0.00    +0.000 A 
ATOM     11  C   UNL     1       2.459   1.199  -0.000  0.00  0.00    +0.000 A 
ATOM     12  C   UNL     1      -3.589   0.496  -0.001  0.00  0.00    +0.000 A 
ATOM     13  C   UNL     1       3.615   0.428  -0.001  0.00  0.00    +0.000 A 
ATOM     14  C   UNL     1      -3.439  -0.964  -0.001  0.00  0.00    +0.000 A 
ATOM     15  C   UNL     1       3.475  -0.949  -0.001  0.00  0.00    +0.000 A 
ENDROOT
TORSDOF 0
