REMARK  Name = 70467785
REMARK  5 active torsions:
REMARK  status: ('A' for Active; 'I' for Inactive)
REMARK    1  A    between atoms: N_2  and  C_6
REMARK    2  A    between atoms: N_3  and  C_6
REMARK    3  A    between atoms: C_5  and  C_9
REMARK    4  A    between atoms: C_5  and  C_10
REMARK    5  A    between atoms: C_7  and  C_8
REMARK                            x       y       z     vdW  Elec       q    Type
REMARK                         _______ _______ _______ _____ _____    ______ ____
ROOT
ATOM      1  O   UNL     1       0.052  -2.128  -0.245  0.00  0.00    +0.000 OA
ATOM      2  N   UNL     1      -0.928  -0.020   0.022  0.00  0.00    +0.000 N 
ATOM      3  C   UNL     1       0.133  -0.913  -0.091  0.00  0.00    +0.000 C 
ATOM      4  H   UNL     1      -0.710   0.953   0.202  0.00  0.00    +0.000 HD
ENDROOT
BRANCH   3   6
ATOM      5  N   UNL     1       2.891   1.634  -0.405  0.00  0.00    +0.000 NA
ATOM      6  C   UNL     1       1.484  -0.298  -0.036  0.00  0.00    +0.000 A 
ATOM      7  C   UNL     1       2.583  -1.021   0.416  0.00  0.00    +0.000 A 
ATOM      8  C   UNL     1       1.689   1.014  -0.431  0.00  0.00    +0.000 A 
ATOM      9  C   UNL     1       3.835  -0.418   0.458  0.00  0.00    +0.000 A 
ATOM     10  C   UNL     1       3.935   0.899   0.040  0.00  0.00    +0.000 A 
ENDBRANCH   3   6
BRANCH   2  12
ATOM     11  C   UNL     1      -3.194   0.661   0.108  0.00  0.00    +0.000 C 
ATOM     12  C   UNL     1      -2.286  -0.348  -0.019  0.00  0.00    +0.000 C 
ATOM     13  C   UNL     1      -2.815   2.114   0.299  0.00  0.00    +0.000 C 
ATOM     14  C   UNL     1      -4.697   0.479   0.076  0.00  0.00    +0.000 C 
BRANCH  12  15
ATOM     15  N   UNL     1      -2.680  -1.656  -0.191  0.00  0.00    +0.000 N 
ATOM     16  H   UNL     1      -3.654  -1.917  -0.239  0.00  0.00    +0.000 HD
ATOM     17  H   UNL     1      -1.974  -2.374  -0.287  0.00  0.00    +0.000 HD
ENDBRANCH  12  15
ENDBRANCH   2  12
TORSDOF 3
