REMARK  Name = 70538737
REMARK  0 active torsions:
REMARK  status: ('A' for Active; 'I' for Inactive)
REMARK                            x       y       z     vdW  Elec       q    Type
REMARK                         _______ _______ _______ _____ _____    ______ ____
ROOT
ATOM      1  S   UNL     1      -2.250  -1.567   0.001  0.00  0.00    +0.000 S 
ATOM      2  O   UNL     1      -1.532   2.211   0.000  0.00  0.00    +0.000 OA
ATOM      3  N   UNL     1      -0.643  -1.889  -0.000  0.00  0.00    +0.000 N 
ATOM      4  N   UNL     1      -2.400   0.105  -0.000  0.00  0.00    +0.000 N 
ATOM      5  N   UNL     1       1.636  -1.334   0.000  0.00  0.00    +0.000 NA
ATOM      6  C   UNL     1       0.045   0.465   0.000  0.00  0.00    +0.000 A 
ATOM      7  C   UNL     1       0.346  -0.901  -0.000  0.00  0.00    +0.000 A 
ATOM      8  C   UNL     1      -1.346   0.995  -0.000  0.00  0.00    +0.000 C 
ATOM      9  C   UNL     1       1.101   1.388   0.000  0.00  0.00    +0.000 A 
ATOM     10  C   UNL     1       2.415   0.944   0.000  0.00  0.00    +0.000 A 
ATOM     11  C   UNL     1       2.628  -0.417   0.000  0.00  0.00    +0.000 A 
ATOM     12  H   UNL     1      -0.303  -2.845  -0.001  0.00  0.00    +0.000 HD
ATOM     13  H   UNL     1      -3.342   0.485  -0.001  0.00  0.00    +0.000 HD
ENDROOT
TORSDOF 0
