REMARK  Name = 70558091
REMARK  0 active torsions:
REMARK  status: ('A' for Active; 'I' for Inactive)
REMARK                            x       y       z     vdW  Elec       q    Type
REMARK                         _______ _______ _______ _____ _____    ______ ____
ROOT
ATOM      1  O   UNL     1      -1.292  -2.062   0.925  0.00  0.00    +0.000 OA
ATOM      2  N   UNL     1       1.682   1.365   0.097  0.00  0.00    +0.000 NA
ATOM      3  N   UNL     1      -0.552   1.715   0.587  0.00  0.00    +0.000 NA
ATOM      4  N   UNL     1      -2.017  -0.658  -0.752  0.00  0.00    +0.000 NA
ATOM      5  C   UNL     1       0.249  -0.556   0.049  0.00  0.00    +0.000 A 
ATOM      6  C   UNL     1       0.449   0.813   0.197  0.00  0.00    +0.000 A 
ATOM      7  C   UNL     1       1.338  -1.390  -0.200  0.00  0.00    +0.000 A 
ATOM      8  C   UNL     1      -1.096  -1.139   0.142  0.00  0.00    +0.000 A 
ATOM      9  C   UNL     1       2.604  -0.834  -0.313  0.00  0.00    +0.000 A 
ATOM     10  C   UNL     1       2.721   0.536  -0.162  0.00  0.00    +0.000 A 
ATOM     11  C   UNL     1      -1.774   1.612   0.187  0.00  0.00    +0.000 A 
ATOM     12  C   UNL     1      -2.312   0.597  -0.756  0.00  0.00    +0.000 A 
ENDROOT
TORSDOF 0
