REMARK  Name = 70582974
REMARK  1 active torsions:
REMARK  status: ('A' for Active; 'I' for Inactive)
REMARK    1  A    between atoms: C_6  and  C_7
REMARK                            x       y       z     vdW  Elec       q    Type
REMARK                         _______ _______ _______ _____ _____    ______ ____
ROOT
ATOM      1  O   UNL     1      -0.205  -2.352   0.011  0.00  0.00    +0.000 OA
ATOM      2  N   UNL     1      -2.886   1.424  -0.005  0.00  0.00    +0.000 NA
ATOM      3  N   UNL     1      -3.271  -0.966  -0.005  0.00  0.00    +0.000 NA
ATOM      4  N   UNL     1      -2.520  -1.993  -0.001  0.00  0.00    +0.000 NA
ATOM      5  C   UNL     1      -0.121   0.757   0.009  0.00  0.00    +0.000 A 
ATOM      6  C   UNL     1      -1.120  -0.184   0.004  0.00  0.00    +0.000 A 
ATOM      7  C   UNL     1      -0.532   2.086   0.006  0.00  0.00    +0.000 A 
ATOM      8  C   UNL     1      -2.442   0.159  -0.002  0.00  0.00    +0.000 A 
ATOM      9  C   UNL     1      -1.181  -1.622   0.005  0.00  0.00    +0.000 C 
ATOM     10  C   UNL     1      -1.905   2.364  -0.001  0.00  0.00    +0.000 A 
ENDROOT
BRANCH   5  12
ATOM     11  N   UNL     1       3.290  -0.101  -1.240  0.00  0.00    +0.000 N 
ATOM     12  C   UNL     1       1.312   0.405   0.016  0.00  0.00    +0.000 C 
ATOM     13  C   UNL     1       4.147  -0.313  -0.086  0.00  0.00    +0.000 C 
ATOM     14  C   UNL     1       1.962   0.234  -1.151  0.00  0.00    +0.000 C 
ATOM     15  C   UNL     1       2.084   0.215   1.240  0.00  0.00    +0.000 C 
ATOM     16  C   UNL     1       3.387  -0.114   1.201  0.00  0.00    +0.000 C 
ATOM     17  H   UNL     1       3.682  -0.207  -2.170  0.00  0.00    +0.000 HD
ENDBRANCH   5  12
TORSDOF 1
