REMARK  Name = 7060847
REMARK  1 active torsions:
REMARK  status: ('A' for Active; 'I' for Inactive)
REMARK    1  A    between atoms: C_11  and  C_12
REMARK                            x       y       z     vdW  Elec       q    Type
REMARK                         _______ _______ _______ _____ _____    ______ ____
ROOT
ATOM      1  O   UNL     1       0.442   1.797   0.308  0.00  0.00    +0.000 OA
ATOM      2  N   UNL     1      -2.003   1.106  -0.177  0.00  0.00    +0.000 NA
ATOM      3  N   UNL     1      -0.218  -0.311  -0.414  0.00  0.00    +0.000 N 
ATOM      4  C   UNL     1      -4.518  -0.845   0.435  0.00  0.00    +0.000 C 
ATOM      5  C   UNL     1      -3.286  -1.721   0.213  0.00  0.00    +0.000 C 
ATOM      6  C   UNL     1      -4.206   0.602   0.817  0.00  0.00    +0.000 C 
ATOM      7  C   UNL     1      -2.404  -1.234  -0.931  0.00  0.00    +0.000 C 
ATOM      8  C   UNL     1      -3.438   1.363  -0.259  0.00  0.00    +0.000 C 
ATOM      9  C   UNL     1      -1.563  -0.060  -0.491  0.00  0.00    +0.000 C 
ATOM     10  C   UNL     1       0.705   0.642  -0.016  0.00  0.00    +0.000 C 
ATOM     11  H   UNL     1       0.102  -1.231  -0.701  0.00  0.00    +0.000 HD
ENDROOT
BRANCH  10  13
ATOM     12  N   UNL     1       4.439   0.715  -0.092  0.00  0.00    +0.000 NA
ATOM     13  C   UNL     1       2.115   0.176   0.040  0.00  0.00    +0.000 A 
ATOM     14  C   UNL     1       2.388  -1.151   0.262  0.00  0.00    +0.000 A 
ATOM     15  C   UNL     1       3.135   1.072  -0.131  0.00  0.00    +0.000 A 
ATOM     16  C   UNL     1       3.717  -1.557   0.309  0.00  0.00    +0.000 A 
ATOM     17  C   UNL     1       4.696  -0.594   0.127  0.00  0.00    +0.000 A 
ENDBRANCH  10  13
TORSDOF 1
