REMARK  Name = 70618379
REMARK  4 active torsions:
REMARK  status: ('A' for Active; 'I' for Inactive)
REMARK    1  A    between atoms: N_3  and  C_9
REMARK    2  A    between atoms: C_5  and  C_6
REMARK    3  A    between atoms: C_6  and  C_12
REMARK    4  A    between atoms: C_8  and  C_11
REMARK                            x       y       z     vdW  Elec       q    Type
REMARK                         _______ _______ _______ _____ _____    ______ ____
ROOT
ATOM      1  N   UNL     1       0.376  -2.120   0.215  0.00  0.00    +0.000 NA
ATOM      2  C   UNL     1      -1.242  -0.446  -0.435  0.00  0.00    +0.000 A 
ATOM      3  C   UNL     1      -0.250   0.528  -0.427  0.00  0.00    +0.000 A 
ATOM      4  C   UNL     1       1.056   0.179  -0.099  0.00  0.00    +0.000 A 
ATOM      5  C   UNL     1       1.314  -1.146   0.212  0.00  0.00    +0.000 A 
ATOM      6  C   UNL     1      -0.881  -1.743  -0.109  0.00  0.00    +0.000 A 
ENDROOT
BRANCH   4   9
ATOM      7  O   UNL     1       2.740   1.472  -1.118  0.00  0.00    +0.000 OA
ATOM      8  N   UNL     1       2.310   1.893   1.095  0.00  0.00    +0.000 N 
ATOM      9  C   UNL     1       2.089   1.206  -0.094  0.00  0.00    +0.000 C 
ATOM     10  H   UNL     1       1.783   1.694   1.939  0.00  0.00    +0.000 HD
ATOM     11  H   UNL     1       3.014   2.622   1.153  0.00  0.00    +0.000 HD
ENDBRANCH   4   9
BRANCH   5  12
ATOM     12  N   UNL     1       2.643  -1.509   0.547  0.00  0.00    +0.000 N 
ATOM     13  H   UNL     1       3.407  -0.995   0.127  0.00  0.00    +0.000 HD
ATOM     14  H   UNL     1       2.801  -2.484   0.774  0.00  0.00    +0.000 HD
ENDBRANCH   5  12
BRANCH   2  15
ATOM     15  C   UNL     1      -2.648  -0.105  -0.781  0.00  0.00    +0.000 C 
BRANCH  15  16
ATOM     16  C   UNL     1      -3.475   0.293   0.415  0.00  0.00    +0.000 C 
ATOM     17  C   UNL     1      -4.031   1.498   0.580  0.00  0.00    +0.000 C 
ENDBRANCH  15  16
ENDBRANCH   2  15
TORSDOF 4
