REMARK  Name = 70820584
REMARK  5 active torsions:
REMARK  status: ('A' for Active; 'I' for Inactive)
REMARK    1  A    between atoms: O_2  and  C_13
REMARK    2  A    between atoms: N_4  and  C_7
REMARK    3  A    between atoms: C_7  and  C_8
REMARK    4  A    between atoms: C_8  and  C_13
REMARK    5  A    between atoms: C_9  and  C_10
REMARK                            x       y       z     vdW  Elec       q    Type
REMARK                         _______ _______ _______ _____ _____    ______ ____
ROOT
ATOM      1  O   UNL     1      -0.396   2.308  -0.340  0.00  0.00    +0.000 OA
ATOM      2  N   UNL     1      -1.235   0.494   0.837  0.00  0.00    +0.000 N 
ATOM      3  C   UNL     1      -0.239   1.207   0.181  0.00  0.00    +0.000 C 
ATOM      4  H   UNL     1      -1.052  -0.438   1.192  0.00  0.00    +0.000 HD
ENDROOT
BRANCH   3   7
ATOM      5  N   UNL     1       3.191   0.273  -1.063  0.00  0.00    +0.000 NA
ATOM      6  N   UNL     1       4.819  -1.238  -0.200  0.00  0.00    +0.000 N 
ATOM      7  C   UNL     1       1.091   0.549   0.101  0.00  0.00    +0.000 A 
ATOM      8  C   UNL     1       1.493  -0.373   1.061  0.00  0.00    +0.000 A 
ATOM      9  C   UNL     1       1.969   0.835  -0.931  0.00  0.00    +0.000 A 
ATOM     10  C   UNL     1       2.743  -0.973   0.960  0.00  0.00    +0.000 A 
ATOM     11  C   UNL     1       3.548  -0.619  -0.111  0.00  0.00    +0.000 A 
ATOM     12  H   UNL     1       5.268  -1.543   0.655  0.00  0.00    +0.000 HD
ATOM     13  H   UNL     1       5.406  -0.972  -0.981  0.00  0.00    +0.000 HD
ENDBRANCH   3   7
BRANCH   2  14
ATOM     14  C   UNL     1      -2.579   0.987   0.975  0.00  0.00    +0.000 C 
BRANCH  14  15
ATOM     15  C   UNL     1      -3.468   0.558  -0.185  0.00  0.00    +0.000 C 
BRANCH  15  17
ATOM     16  O   UNL     1      -3.498  -1.745   0.613  0.00  0.00    +0.000 OA
ATOM     17  C   UNL     1      -3.595  -0.945  -0.307  0.00  0.00    +0.000 C 
BRANCH  17  18
ATOM     18  O   UNL     1      -3.843  -1.318  -1.591  0.00  0.00    +0.000 OA
ATOM     19  H   UNL     1      -3.930  -2.291  -1.678  0.00  0.00    +0.000 HD
ENDBRANCH  17  18
ENDBRANCH  15  17
ENDBRANCH  14  15
ENDBRANCH   2  14
TORSDOF 5
