REMARK  Name = 70906165
REMARK  8 active torsions:
REMARK  status: ('A' for Active; 'I' for Inactive)
REMARK    1  A    between atoms: O_1  and  C_8
REMARK    2  A    between atoms: O_1  and  C_9
REMARK    3  A    between atoms: N_3  and  C_7
REMARK    4  A    between atoms: C_6  and  C_7
REMARK    5  A    between atoms: C_6  and  C_8
REMARK    6  A    between atoms: C_9  and  C_10
REMARK    7  A    between atoms: C_10  and  C_12
REMARK    8  A    between atoms: C_11  and  C_13
REMARK                            x       y       z     vdW  Elec       q    Type
REMARK                         _______ _______ _______ _____ _____    ______ ____
ROOT
ATOM      1  O   UNL     1      -1.130  -2.325   1.101  0.00  0.00    +0.000 OA
ATOM      2  N   UNL     1      -0.119  -1.444  -0.791  0.00  0.00    +0.000 N 
ATOM      3  C   UNL     1      -1.091  -1.491   0.202  0.00  0.00    +0.000 C 
ATOM      4  H   UNL     1      -0.176  -0.757  -1.536  0.00  0.00    +0.000 HD
ENDROOT
BRANCH   3   7
ATOM      5  N   UNL     1      -2.842   1.750  -0.582  0.00  0.00    +0.000 NA
ATOM      6  N   UNL     1      -5.067   2.482  -0.141  0.00  0.00    +0.000 N 
ATOM      7  C   UNL     1      -2.156  -0.458   0.123  0.00  0.00    +0.000 A 
ATOM      8  C   UNL     1      -3.421  -0.691   0.649  0.00  0.00    +0.000 A 
ATOM      9  C   UNL     1      -1.919   0.768  -0.477  0.00  0.00    +0.000 A 
ATOM     10  C   UNL     1      -4.398   0.294   0.561  0.00  0.00    +0.000 A 
ATOM     11  C   UNL     1      -4.061   1.487  -0.059  0.00  0.00    +0.000 A 
ATOM     12  H   UNL     1      -4.818   3.350  -0.601  0.00  0.00    +0.000 HD
ATOM     13  H   UNL     1      -6.035   2.187  -0.166  0.00  0.00    +0.000 HD
ENDBRANCH   3   7
BRANCH   2  14
ATOM     14  C   UNL     1       0.962  -2.389  -0.865  0.00  0.00    +0.000 C 
BRANCH  14  15
ATOM     15  C   UNL     1       2.188  -1.935  -0.084  0.00  0.00    +0.000 C 
BRANCH  15  16
ATOM     16  C   UNL     1       2.739  -0.601  -0.572  0.00  0.00    +0.000 C 
BRANCH  16  17
ATOM     17  O   UNL     1       3.885  -0.270   0.201  0.00  0.00    +0.000 OA
BRANCH  17  18
ATOM     18  C   UNL     1       4.448   0.970  -0.207  0.00  0.00    +0.000 C 
BRANCH  18  19
ATOM     19  C   UNL     1       5.666   1.264   0.656  0.00  0.00    +0.000 C 
ATOM     20  C   UNL     1       6.314   2.587   0.285  0.00  0.00    +0.000 C 
ENDBRANCH  18  19
ENDBRANCH  17  18
ENDBRANCH  16  17
ENDBRANCH  15  16
ENDBRANCH  14  15
ENDBRANCH   2  14
TORSDOF 7
