REMARK  Name = 70906158
REMARK  7 active torsions:
REMARK  status: ('A' for Active; 'I' for Inactive)
REMARK    1  A    between atoms: N_2  and  C_10
REMARK    2  A    between atoms: C_5  and  C_6
REMARK    3  A    between atoms: C_5  and  C_7
REMARK    4  A    between atoms: C_5  and  C_8
REMARK    5  A    between atoms: C_5  and  C_9
REMARK    6  A    between atoms: C_6  and  C_10
REMARK    7  A    between atoms: C_11  and  C_12
REMARK                            x       y       z     vdW  Elec       q    Type
REMARK                         _______ _______ _______ _____ _____    ______ ____
ROOT
ATOM      1  O   UNL     1       0.068   1.786  -0.280  0.00  0.00    +0.000 OA
ATOM      2  N   UNL     1       0.577  -0.241   0.725  0.00  0.00    +0.000 N 
ATOM      3  C   UNL     1      -0.277   0.683   0.137  0.00  0.00    +0.000 C 
ATOM      4  H   UNL     1       0.217  -1.115   1.093  0.00  0.00    +0.000 HD
ENDROOT
BRANCH   3   7
ATOM      5  N   UNL     1      -4.028   0.943  -0.068  0.00  0.00    +0.000 NA
ATOM      6  N   UNL     1      -5.715  -0.733  -0.214  0.00  0.00    +0.000 N 
ATOM      7  C   UNL     1      -1.705   0.285   0.044  0.00  0.00    +0.000 A 
ATOM      8  C   UNL     1      -2.074  -1.054  -0.017  0.00  0.00    +0.000 A 
ATOM      9  C   UNL     1      -2.711   1.237   0.015  0.00  0.00    +0.000 A 
ATOM     10  C   UNL     1      -3.419  -1.396  -0.103  0.00  0.00    +0.000 A 
ATOM     11  C   UNL     1      -4.349  -0.369  -0.126  0.00  0.00    +0.000 A 
ATOM     12  H   UNL     1      -6.391   0.021  -0.236  0.00  0.00    +0.000 HD
ATOM     13  H   UNL     1      -5.953  -1.604  -0.673  0.00  0.00    +0.000 HD
ENDBRANCH   3   7
BRANCH   2  14
ATOM     14  C   UNL     1       1.983   0.008   0.909  0.00  0.00    +0.000 C 
BRANCH  14  15
ATOM     15  C   UNL     1       2.791  -0.463  -0.299  0.00  0.00    +0.000 C 
BRANCH  15  16
ATOM     16  C   UNL     1       4.321  -0.224  -0.217  0.00  0.00    +0.000 C 
ATOM     17  C   UNL     1       4.645   1.278  -0.138  0.00  0.00    +0.000 C 
ATOM     18  C   UNL     1       5.044  -0.834  -1.429  0.00  0.00    +0.000 C 
ATOM     19  C   UNL     1       4.848  -0.905   1.061  0.00  0.00    +0.000 C 
ENDBRANCH  15  16
ENDBRANCH  14  15
ENDBRANCH   2  14
TORSDOF 4
