REMARK  Name = 71213782
REMARK  2 active torsions:
REMARK  status: ('A' for Active; 'I' for Inactive)
REMARK    1  A    between atoms: N_2  and  C_5
REMARK    2  A    between atoms: C_8  and  C_16
REMARK                            x       y       z     vdW  Elec       q    Type
REMARK                         _______ _______ _______ _____ _____    ______ ____
ROOT
ATOM      1  N   UNL     1      -1.161  -1.149   0.124  0.00  0.00    +0.000 N 
ATOM      2  N   UNL     1       0.500   0.494   0.551  0.00  0.00    +0.000 NA
ATOM      3  C   UNL     1       0.186  -0.740   0.095  0.00  0.00    +0.000 A 
ATOM      4  C   UNL     1       1.113  -1.640  -0.405  0.00  0.00    +0.000 A 
ATOM      5  C   UNL     1       2.809   0.011   0.021  0.00  0.00    +0.000 A 
ATOM      6  C   UNL     1       2.447  -1.250  -0.439  0.00  0.00    +0.000 A 
ATOM      7  C   UNL     1       1.807   0.838   0.502  0.00  0.00    +0.000 A 
ATOM      8  H   UNL     1      -1.277  -2.117   0.413  0.00  0.00    +0.000 HD
ENDROOT
BRANCH   1   9
ATOM      9  C   UNL     1      -2.377  -0.442   0.022  0.00  0.00    +0.000 A 
ATOM     10  C   UNL     1      -3.517  -0.918   0.669  0.00  0.00    +0.000 A 
ATOM     11  C   UNL     1      -2.439   0.734  -0.726  0.00  0.00    +0.000 A 
ATOM     12  C   UNL     1      -4.720  -0.218   0.568  0.00  0.00    +0.000 A 
ATOM     13  C   UNL     1      -3.641   1.433  -0.828  0.00  0.00    +0.000 A 
ATOM     14  C   UNL     1      -4.782   0.957  -0.181  0.00  0.00    +0.000 A 
ENDBRANCH   1   9
BRANCH   5  17
ATOM     15  O   UNL     1       5.099  -0.282  -0.447  0.00  0.00    +0.000 OA
ATOM     16  N   UNL     1       4.481   1.724   0.476  0.00  0.00    +0.000 N 
ATOM     17  C   UNL     1       4.194   0.448  -0.002  0.00  0.00    +0.000 C 
ATOM     18  H   UNL     1       3.804   2.379   0.848  0.00  0.00    +0.000 HD
ATOM     19  H   UNL     1       5.439   2.058   0.465  0.00  0.00    +0.000 HD
ENDBRANCH   5  17
TORSDOF 2
