REMARK  Name = 71276874
REMARK  3 active torsions:
REMARK  status: ('A' for Active; 'I' for Inactive)
REMARK    1  A    between atoms: N_3  and  C_6
REMARK    2  A    between atoms: N_5  and  C_12
REMARK    3  A    between atoms: C_10  and  C_11
REMARK                            x       y       z     vdW  Elec       q    Type
REMARK                         _______ _______ _______ _____ _____    ______ ____
ROOT
ATOM      1  O   UNL     1      -0.115  -2.401   0.575  0.00  0.00    +0.000 OA
ATOM      2  N   UNL     1       1.254  -0.570   0.168  0.00  0.00    +0.000 N 
ATOM      3  C   UNL     1       2.984   1.027   0.259  0.00  0.00    +0.000 C 
ATOM      4  C   UNL     1       3.564  -0.304  -0.218  0.00  0.00    +0.000 C 
ATOM      5  C   UNL     1       1.494   0.860  -0.032  0.00  0.00    +0.000 C 
ATOM      6  C   UNL     1       2.511  -1.302   0.244  0.00  0.00    +0.000 C 
ATOM      7  C   UNL     1       0.033  -1.202   0.345  0.00  0.00    +0.000 C 
ENDROOT
BRANCH   7   9
ATOM      8  N   UNL     1      -2.973   0.605  -1.031  0.00  0.00    +0.000 NA
ATOM      9  C   UNL     1      -1.180  -0.374   0.262  0.00  0.00    +0.000 A 
ATOM     10  C   UNL     1      -1.858  -0.153  -0.926  0.00  0.00    +0.000 A 
ATOM     11  C   UNL     1      -1.679   0.220   1.416  0.00  0.00    +0.000 A 
ATOM     12  C   UNL     1      -2.823   1.007   1.348  0.00  0.00    +0.000 A 
ATOM     13  C   UNL     1      -3.427   1.167   0.112  0.00  0.00    +0.000 A 
BRANCH  10  14
ATOM     14  N   UNL     1      -1.354  -0.753  -2.107  0.00  0.00    +0.000 N 
ATOM     15  H   UNL     1      -0.356  -0.902  -2.187  0.00  0.00    +0.000 HD
ATOM     16  H   UNL     1      -1.872  -0.576  -2.960  0.00  0.00    +0.000 HD
ENDBRANCH  10  14
ENDBRANCH   7   9
BRANCH   3  17
ATOM     17  N   UNL     1       3.568   2.172  -0.415  0.00  0.00    +0.000 NA
ATOM     18  H   UNL     1       4.561   2.231  -0.196  0.00  0.00    +0.000 HD
ATOM     19  H   UNL     1       3.142   3.030  -0.067  0.00  0.00    +0.000 HD
ENDBRANCH   3  17
TORSDOF 3
