REMARK  Name = 71368267
REMARK  4 active torsions:
REMARK  status: ('A' for Active; 'I' for Inactive)
REMARK    1  A    between atoms: N_2  and  N_4
REMARK    2  A    between atoms: C_7  and  C_14
REMARK    3  A    between atoms: C_11  and  C_12
REMARK    4  A    between atoms: C_11  and  C_13
REMARK                            x       y       z     vdW  Elec       q    Type
REMARK                         _______ _______ _______ _____ _____    ______ ____
ROOT
ATOM      1  N   UNL     1      -1.824  -0.622  -0.347  0.00  0.00    +0.000 N 
ATOM      2  N   UNL     1       0.384  -1.475  -0.187  0.00  0.00    +0.000 NA
ATOM      3  C   UNL     1      -0.441  -0.405  -0.227  0.00  0.00    +0.000 A 
ATOM      4  C   UNL     1       2.236   0.066   0.009  0.00  0.00    +0.000 A 
ATOM      5  C   UNL     1      -0.010   0.910  -0.154  0.00  0.00    +0.000 A 
ATOM      6  C   UNL     1       1.356   1.141  -0.035  0.00  0.00    +0.000 A 
ATOM      7  C   UNL     1       1.704  -1.211  -0.070  0.00  0.00    +0.000 A 
ATOM      8  H   UNL     1      -2.129  -1.586  -0.398  0.00  0.00    +0.000 HD
ENDROOT
BRANCH   4  11
ATOM      9  O   UNL     1       4.153   1.417   0.222  0.00  0.00    +0.000 OA
ATOM     10  N   UNL     1       4.488  -0.851   0.171  0.00  0.00    +0.000 N 
ATOM     11  C   UNL     1       3.668   0.274   0.134  0.00  0.00    +0.000 C 
ATOM     12  H   UNL     1       4.173  -1.811   0.110  0.00  0.00    +0.000 HD
ATOM     13  H   UNL     1       5.492  -0.734   0.264  0.00  0.00    +0.000 HD
ENDBRANCH   4  11
BRANCH   1  14
ATOM     14  N   UNL     1      -2.678   0.417  -0.384  0.00  0.00    +0.000 NA
ATOM     15  C   UNL     1      -3.872   0.224   0.090  0.00  0.00    +0.000 C 
ATOM     16  C   UNL     1      -4.195  -1.144   0.639  0.00  0.00    +0.000 C 
ATOM     17  C   UNL     1      -4.970   1.259   0.139  0.00  0.00    +0.000 C 
ENDBRANCH   1  14
TORSDOF 2
