REMARK  Name = 71627100
REMARK  2 active torsions:
REMARK  status: ('A' for Active; 'I' for Inactive)
REMARK    1  A    between atoms: N_3  and  C_7
REMARK    2  A    between atoms: C_6  and  C_10
REMARK                            x       y       z     vdW  Elec       q    Type
REMARK                         _______ _______ _______ _____ _____    ______ ____
ROOT
ATOM      1  N   UNL     1      -1.845   1.206   0.015  0.00  0.00    +0.000 NA
ATOM      2  N   UNL     1       0.200   2.402  -0.016  0.00  0.00    +0.000 N 
ATOM      3  C   UNL     1       0.247  -0.005  -0.019  0.00  0.00    +0.000 A 
ATOM      4  C   UNL     1      -0.443  -1.212  -0.009  0.00  0.00    +0.000 A 
ATOM      5  C   UNL     1      -0.494   1.166  -0.006  0.00  0.00    +0.000 A 
ATOM      6  C   UNL     1      -1.833  -1.212   0.013  0.00  0.00    +0.000 A 
ATOM      7  C   UNL     1      -2.481   0.013   0.024  0.00  0.00    +0.000 A 
ATOM      8  H   UNL     1       1.107   2.453   0.431  0.00  0.00    +0.000 HD
ATOM      9  H   UNL     1      -0.371   3.239  -0.012  0.00  0.00    +0.000 HD
ENDROOT
BRANCH   3  12
ATOM     10  O   UNL     1       2.331   0.045  -1.115  0.00  0.00    +0.000 OA
ATOM     11  N   UNL     1       2.369   0.025   1.178  0.00  0.00    +0.000 N 
ATOM     12  C   UNL     1       1.706   0.017  -0.043  0.00  0.00    +0.000 C 
ATOM     13  H   UNL     1       1.870   0.011   2.062  0.00  0.00    +0.000 HD
ATOM     14  H   UNL     1       3.382   0.047   1.222  0.00  0.00    +0.000 HD
ENDBRANCH   3  12
BRANCH   4  15
ATOM     15  N   UNL     1       0.244  -2.446  -0.021  0.00  0.00    +0.000 N 
ATOM     16  H   UNL     1      -0.280  -3.312  -0.014  0.00  0.00    +0.000 HD
ATOM     17  H   UNL     1       1.254  -2.475  -0.036  0.00  0.00    +0.000 HD
ENDBRANCH   4  15
TORSDOF 2
