REMARK  Name = 71724839
REMARK  2 active torsions:
REMARK  status: ('A' for Active; 'I' for Inactive)
REMARK    1  A    between atoms: O_2  and  N_4
REMARK    2  A    between atoms: C_6  and  C_11
REMARK                            x       y       z     vdW  Elec       q    Type
REMARK                         _______ _______ _______ _____ _____    ______ ____
ROOT
ATOM      1  N   UNL     1       0.884   1.395   0.001  0.00  0.00    +0.000 NA
ATOM      2  N   UNL     1       3.056   0.415  -0.003  0.00  0.00    +0.000 N 
ATOM      3  C   UNL     1      -1.065  -0.036  -0.003  0.00  0.00    +0.000 A 
ATOM      4  C   UNL     1      -0.249  -1.161  -0.008  0.00  0.00    +0.000 A 
ATOM      5  C   UNL     1       1.646   0.277  -0.003  0.00  0.00    +0.000 A 
ATOM      6  C   UNL     1       1.134  -1.010  -0.008  0.00  0.00    +0.000 A 
ATOM      7  C   UNL     1      -0.455   1.208   0.001  0.00  0.00    +0.000 A 
ATOM      8  H   UNL     1       3.470   1.338   0.004  0.00  0.00    +0.000 HD
ENDROOT
BRANCH   3  11
ATOM      9  O   UNL     1      -3.069  -1.273   0.010  0.00  0.00    +0.000 OA
ATOM     10  N   UNL     1      -3.265   1.012   0.002  0.00  0.00    +0.000 N 
ATOM     11  C   UNL     1      -2.512  -0.160  -0.003  0.00  0.00    +0.000 C 
ATOM     12  H   UNL     1      -2.891   1.952  -0.003  0.00  0.00    +0.000 HD
ATOM     13  H   UNL     1      -4.279   0.953   0.009  0.00  0.00    +0.000 HD
ENDBRANCH   3  11
BRANCH   2  14
ATOM     14  O   UNL     1       3.895  -0.666   0.012  0.00  0.00    +0.000 OA
ATOM     15  H   UNL     1       4.373  -0.561  -0.827  0.00  0.00    +0.000 HD
ENDBRANCH   2  14
TORSDOF 2
