REMARK  Name = 71862551
REMARK  5 active torsions:
REMARK  status: ('A' for Active; 'I' for Inactive)
REMARK    1  A    between atoms: N_2  and  C_8
REMARK    2  A    between atoms: N_2  and  C_9
REMARK    3  A    between atoms: N_4  and  C_15
REMARK    4  A    between atoms: C_5  and  C_8
REMARK    5  A    between atoms: C_10  and  C_12
REMARK                            x       y       z     vdW  Elec       q    Type
REMARK                         _______ _______ _______ _____ _____    ______ ____
ROOT
ATOM      1  N   UNL     1       0.577   2.131   0.112  0.00  0.00    +0.000 NA
ATOM      2  C   UNL     1       0.461   0.795  -0.066  0.00  0.00    +0.000 A 
ATOM      3  C   UNL     1       1.532  -0.083  -0.067  0.00  0.00    +0.000 A 
ATOM      4  C   UNL     1       2.805   0.443   0.128  0.00  0.00    +0.000 A 
ATOM      5  C   UNL     1       1.829   2.605   0.298  0.00  0.00    +0.000 A 
ATOM      6  C   UNL     1       2.964   1.811   0.314  0.00  0.00    +0.000 A 
ENDROOT
BRANCH   3   9
ATOM      7  O   UNL     1       1.946  -2.088  -1.210  0.00  0.00    +0.000 OA
ATOM      8  N   UNL     1       0.583  -2.202   0.663  0.00  0.00    +0.000 N 
ATOM      9  C   UNL     1       1.375  -1.517  -0.265  0.00  0.00    +0.000 C 
ATOM     10  C   UNL     1       0.352  -3.628   0.616  0.00  0.00    +0.000 C 
ATOM     11  H   UNL     1       0.130  -1.676   1.405  0.00  0.00    +0.000 HD
ENDBRANCH   3   9
BRANCH   2  12
ATOM     12  N   UNL     1      -0.810   0.280  -0.263  0.00  0.00    +0.000 N 
ATOM     13  H   UNL     1      -0.877  -0.646  -0.673  0.00  0.00    +0.000 HD
BRANCH  12  14
ATOM     14  C   UNL     1      -2.008   1.086  -0.284  0.00  0.00    +0.000 C 
BRANCH  14  15
ATOM     15  C   UNL     1      -3.209   0.245  -0.543  0.00  0.00    +0.000 C 
ATOM     16  C   UNL     1      -4.553   0.657  -0.007  0.00  0.00    +0.000 C 
ATOM     17  C   UNL     1      -3.844  -0.534   0.575  0.00  0.00    +0.000 C 
ENDBRANCH  14  15
ENDBRANCH  12  14
ENDBRANCH   2  12
TORSDOF 4
