REMARK  Name = 71970407
REMARK  4 active torsions:
REMARK  status: ('A' for Active; 'I' for Inactive)
REMARK    1  A    between atoms: N_2  and  C_5
REMARK    2  A    between atoms: N_2  and  C_10
REMARK    3  A    between atoms: N_4  and  C_16
REMARK    4  A    between atoms: C_11  and  C_13
REMARK                            x       y       z     vdW  Elec       q    Type
REMARK                         _______ _______ _______ _____ _____    ______ ____
ROOT
ATOM      1  N   UNL     1      -0.359  -2.055   0.406  0.00  0.00    +0.000 NA
ATOM      2  C   UNL     1      -0.439  -0.724   0.186  0.00  0.00    +0.000 A 
ATOM      3  C   UNL     1      -1.614  -0.058  -0.124  0.00  0.00    +0.000 A 
ATOM      4  C   UNL     1      -2.782  -0.806  -0.215  0.00  0.00    +0.000 A 
ATOM      5  C   UNL     1      -1.515  -2.750   0.309  0.00  0.00    +0.000 A 
ATOM      6  C   UNL     1      -2.740  -2.179   0.004  0.00  0.00    +0.000 A 
ENDROOT
BRANCH   3   9
ATOM      7  O   UNL     1      -2.076   1.824  -1.445  0.00  0.00    +0.000 OA
ATOM      8  N   UNL     1      -1.264   2.208   0.693  0.00  0.00    +0.000 N 
ATOM      9  C   UNL     1      -1.667   1.379  -0.359  0.00  0.00    +0.000 C 
ATOM     10  C   UNL     1      -1.282   3.651   0.622  0.00  0.00    +0.000 C 
ATOM     11  H   UNL     1      -0.924   1.783   1.551  0.00  0.00    +0.000 HD
ENDBRANCH   3   9
BRANCH   2  12
ATOM     12  N   UNL     1       0.727   0.014   0.275  0.00  0.00    +0.000 N 
ATOM     13  H   UNL     1       0.745   0.907  -0.206  0.00  0.00    +0.000 HD
BRANCH  12  14
ATOM     14  C   UNL     1       2.019  -0.567   0.593  0.00  0.00    +0.000 C 
ATOM     15  C   UNL     1       2.992   0.531   1.046  0.00  0.00    +0.000 C 
ATOM     16  C   UNL     1       2.645  -1.179  -0.667  0.00  0.00    +0.000 C 
ATOM     17  C   UNL     1       3.772   0.822  -0.194  0.00  0.00    +0.000 C 
ATOM     18  C   UNL     1       3.583  -0.112  -1.130  0.00  0.00    +0.000 C 
ENDBRANCH  12  14
ENDBRANCH   2  12
TORSDOF 3
