REMARK  Name = 72217725
REMARK  2 active torsions:
REMARK  status: ('A' for Active; 'I' for Inactive)
REMARK    1  A    between atoms: C_5  and  C_10
REMARK    2  A    between atoms: C_6  and  C_11
REMARK                            x       y       z     vdW  Elec       q    Type
REMARK                         _______ _______ _______ _____ _____    ______ ____
ROOT
ATOM      1  N   UNL     1       1.045   1.904   0.015  0.00  0.00    +0.000 NA
ATOM      2  N   UNL     1       2.667   0.188   0.216  0.00  0.00    +0.000 N 
ATOM      3  C   UNL     1       0.342  -0.409   0.044  0.00  0.00    +0.000 A 
ATOM      4  C   UNL     1      -0.986  -0.015  -0.082  0.00  0.00    +0.000 A 
ATOM      5  C   UNL     1       1.311   0.580   0.087  0.00  0.00    +0.000 A 
ATOM      6  C   UNL     1      -1.299   1.338  -0.159  0.00  0.00    +0.000 A 
ATOM      7  C   UNL     1      -0.257   2.249  -0.106  0.00  0.00    +0.000 A 
ATOM      8  H   UNL     1       2.881  -0.654   0.735  0.00  0.00    +0.000 HD
ATOM      9  H   UNL     1       3.351   0.935   0.237  0.00  0.00    +0.000 HD
ENDROOT
BRANCH   3  11
ATOM     10  O   UNL     1       1.760  -2.273  -0.287  0.00  0.00    +0.000 OA
ATOM     11  C   UNL     1       0.691  -1.824   0.126  0.00  0.00    +0.000 C 
ENDBRANCH   3  11
BRANCH   4  13
ATOM     12  O   UNL     1      -3.205  -0.751   0.280  0.00  0.00    +0.000 OA
ATOM     13  C   UNL     1      -2.069  -0.988  -0.136  0.00  0.00    +0.000 C 
ENDBRANCH   4  13
TORSDOF 2
