REMARK  Name = 72212056
REMARK  2 active torsions:
REMARK  status: ('A' for Active; 'I' for Inactive)
REMARK    1  A    between atoms: C_7  and  C_9
REMARK    2  A    between atoms: C_9  and  C_13
REMARK                            x       y       z     vdW  Elec       q    Type
REMARK                         _______ _______ _______ _____ _____    ______ ____
ROOT
ATOM      1  N   UNL     1       2.322  -1.009   0.582  0.00  0.00    +0.000 NA
ATOM      2  N   UNL     1       4.205   0.409   0.233  0.00  0.00    +0.000 N 
ATOM      3  C   UNL     1       0.149  -0.319  -0.222  0.00  0.00    +0.000 A 
ATOM      4  C   UNL     1       0.698   0.857  -0.720  0.00  0.00    +0.000 A 
ATOM      5  C   UNL     1       0.996  -1.212   0.415  0.00  0.00    +0.000 A 
ATOM      6  C   UNL     1       2.058   1.102  -0.567  0.00  0.00    +0.000 A 
ATOM      7  C   UNL     1       2.820   0.146   0.086  0.00  0.00    +0.000 A 
ATOM      8  H   UNL     1       4.660   0.995  -0.457  0.00  0.00    +0.000 HD
ATOM      9  H   UNL     1       4.758  -0.295   0.705  0.00  0.00    +0.000 HD
ENDROOT
BRANCH   3  11
ATOM     10  O   UNL     1      -1.669  -1.614  -0.981  0.00  0.00    +0.000 OA
ATOM     11  C   UNL     1      -1.268  -0.604  -0.365  0.00  0.00    +0.000 C 
BRANCH  11  15
ATOM     12  F   UNL     1      -1.745   1.379   0.874  0.00  0.00    +0.000 F 
ATOM     13  F   UNL     1      -3.142   0.831  -0.716  0.00  0.00    +0.000 F 
ATOM     14  F   UNL     1      -3.110  -0.292   1.147  0.00  0.00    +0.000 F 
ATOM     15  C   UNL     1      -2.315   0.326   0.234  0.00  0.00    +0.000 C 
ENDBRANCH  11  15
ENDBRANCH   3  11
TORSDOF 2
