REMARK  Name = 7221440
REMARK  5 active torsions:
REMARK  status: ('A' for Active; 'I' for Inactive)
REMARK    1  A    between atoms: N_2  and  C_5
REMARK    2  A    between atoms: N_2  and  C_7
REMARK    3  A    between atoms: C_5  and  C_6
REMARK    4  A    between atoms: C_6  and  C_9
REMARK    5  A    between atoms: C_8  and  C_13
REMARK                            x       y       z     vdW  Elec       q    Type
REMARK                         _______ _______ _______ _____ _____    ______ ____
ROOT
ATOM      1  N   UNL     1      -0.142   1.764   0.025  0.00  0.00    +0.000 N 
ATOM      2  C   UNL     1      -0.096   0.407   0.005  0.00  0.00    +0.000 A 
ATOM      3  C   UNL     1      -1.323  -0.282  -0.026  0.00  0.00    +0.000 A 
ATOM      4  C   UNL     1      -2.521   0.426  -0.034  0.00  0.00    +0.000 A 
ATOM      5  C   UNL     1      -1.281   2.471   0.018  0.00  0.00    +0.000 A 
ATOM      6  C   UNL     1      -2.505   1.817  -0.013  0.00  0.00    +0.000 A 
ATOM      7  H   UNL     1       0.732   2.287   0.050  0.00  0.00    +0.000 HD
ENDROOT
BRANCH   3  10
ATOM      8  O   UNL     1      -1.334  -2.368  -1.120  0.00  0.00    +0.000 OA
ATOM      9  N   UNL     1      -1.389  -2.402   1.173  0.00  0.00    +0.000 N 
ATOM     10  C   UNL     1      -1.355  -1.737  -0.049  0.00  0.00    +0.000 C 
ATOM     11  H   UNL     1      -1.397  -1.905   2.057  0.00  0.00    +0.000 HD
ATOM     12  H   UNL     1      -1.405  -3.416   1.215  0.00  0.00    +0.000 HD
ENDBRANCH   3  10
BRANCH   2  13
ATOM     13  N   UNL     1       1.118  -0.216   0.015  0.00  0.00    +0.000 N 
ATOM     14  H   UNL     1       1.128  -1.209   0.224  0.00  0.00    +0.000 HD
BRANCH  13  15
ATOM     15  C   UNL     1       2.384   0.474   0.046  0.00  0.00    +0.000 C 
BRANCH  15  16
ATOM     16  C   UNL     1       3.542  -0.517  -0.013  0.00  0.00    +0.000 C 
ATOM     17  C   UNL     1       4.903   0.164  -0.028  0.00  0.00    +0.000 C 
ENDBRANCH  15  16
ENDBRANCH  13  15
ENDBRANCH   2  13
TORSDOF 4
