REMARK  Name = 73012506
REMARK  2 active torsions:
REMARK  status: ('A' for Active; 'I' for Inactive)
REMARK    1  A    between atoms: N_4  and  C_7
REMARK    2  A    between atoms: C_6  and  C_10
REMARK                            x       y       z     vdW  Elec       q    Type
REMARK                         _______ _______ _______ _____ _____    ______ ____
ROOT
ATOM      1  I   UNL     1      -3.609  -1.531   0.002  0.00  0.00    +0.000 I 
ATOM      2  N   UNL     1      -0.873   1.809   0.021  0.00  0.00    +0.000 NA
ATOM      3  C   UNL     1       0.506  -0.176  -0.024  0.00  0.00    +0.000 A 
ATOM      4  C   UNL     1       0.333   1.198  -0.002  0.00  0.00    +0.000 A 
ATOM      5  C   UNL     1      -0.632  -0.976  -0.023  0.00  0.00    +0.000 A 
ATOM      6  C   UNL     1      -1.890  -0.384  -0.000  0.00  0.00    +0.000 A 
ATOM      7  C   UNL     1      -1.956   1.000   0.021  0.00  0.00    +0.000 A 
ENDROOT
BRANCH   3  10
ATOM      8  O   UNL     1       2.398  -1.053  -1.119  0.00  0.00    +0.000 OA
ATOM      9  N   UNL     1       2.415  -1.101   1.174  0.00  0.00    +0.000 N 
ATOM     10  C   UNL     1       1.819  -0.805  -0.048  0.00  0.00    +0.000 C 
ATOM     11  H   UNL     1       1.961  -0.898   2.059  0.00  0.00    +0.000 HD
ATOM     12  H   UNL     1       3.332  -1.534   1.216  0.00  0.00    +0.000 HD
ENDBRANCH   3  10
BRANCH   4  13
ATOM     13  N   UNL     1       1.488   2.019  -0.002  0.00  0.00    +0.000 N 
ATOM     14  H   UNL     1       2.330   1.672   0.440  0.00  0.00    +0.000 HD
ATOM     15  H   UNL     1       1.331   3.020   0.010  0.00  0.00    +0.000 HD
ENDBRANCH   4  13
TORSDOF 2
