REMARK  Name = 737633
REMARK  2 active torsions:
REMARK  status: ('A' for Active; 'I' for Inactive)
REMARK    1  A    between atoms: N_3  and  C_5
REMARK    2  A    between atoms: C_4  and  C_9
REMARK                            x       y       z     vdW  Elec       q    Type
REMARK                         _______ _______ _______ _____ _____    ______ ____
ROOT
ATOM      1  N   UNL     1       1.731  -0.751   0.001  0.00  0.00    +0.000 NA
ATOM      2  C   UNL     1      -0.552   0.045   0.000  0.00  0.00    +0.000 A 
ATOM      3  C   UNL     1       0.396  -0.966   0.000  0.00  0.00    +0.000 A 
ATOM      4  C   UNL     1      -0.101   1.360  -0.000  0.00  0.00    +0.000 A 
ATOM      5  C   UNL     1       1.265   1.621  -0.000  0.00  0.00    +0.000 A 
ATOM      6  C   UNL     1       2.132   0.540   0.000  0.00  0.00    +0.000 A 
ENDROOT
BRANCH   3   7
ATOM      7  N   UNL     1      -0.055  -2.309  -0.001  0.00  0.00    +0.000 N 
ATOM      8  H   UNL     1      -0.559  -2.577   0.841  0.00  0.00    +0.000 HD
ATOM      9  H   UNL     1      -0.558  -2.576  -0.842  0.00  0.00    +0.000 HD
ENDBRANCH   3   7
BRANCH   2  11
ATOM     10  O   UNL     1      -2.832   0.677   0.000  0.00  0.00    +0.000 OA
ATOM     11  C   UNL     1      -1.984  -0.218   0.000  0.00  0.00    +0.000 C 
ENDBRANCH   2  11
TORSDOF 2
