REMARK  Name = 73885319
REMARK  1 active torsions:
REMARK  status: ('A' for Active; 'I' for Inactive)
REMARK    1  A    between atoms: C_7  and  C_13
REMARK                            x       y       z     vdW  Elec       q    Type
REMARK                         _______ _______ _______ _____ _____    ______ ____
ROOT
ATOM      1  O   UNL     1       0.945   2.087   1.778  0.00  0.00    +0.000 OA
ATOM      2  N   UNL     1      -0.532   1.522   0.103  0.00  0.00    +0.000 NA
ATOM      3  N   UNL     1       0.157  -1.442   0.518  0.00  0.00    +0.000 NA
ATOM      4  N   UNL     1      -2.054  -1.639   0.990  0.00  0.00    +0.000 NA
ATOM      5  N   UNL     1       2.211  -1.697  -0.515  0.00  0.00    +0.000 NA
ATOM      6  C   UNL     1      -1.297   0.490  -0.058  0.00  0.00    +0.000 A 
ATOM      7  C   UNL     1      -2.589   0.583  -0.794  0.00  0.00    +0.000 A 
ATOM      8  C   UNL     1      -1.011  -0.883   0.506  0.00  0.00    +0.000 A 
ATOM      9  C   UNL     1       1.632   0.505   0.221  0.00  0.00    +0.000 A 
ATOM     10  C   UNL     1       1.323  -0.835   0.036  0.00  0.00    +0.000 A 
ATOM     11  C   UNL     1      -3.512  -0.352  -0.537  0.00  0.00    +0.000 A 
ATOM     12  C   UNL     1       0.643   1.418   0.797  0.00  0.00    +0.000 A 
ATOM     13  C   UNL     1      -2.794   1.716  -1.746  0.00  0.00    +0.000 C 
ATOM     14  C   UNL     1       2.882   0.990  -0.159  0.00  0.00    +0.000 A 
ATOM     15  C   UNL     1      -3.214  -1.379   0.483  0.00  0.00    +0.000 A 
ATOM     16  C   UNL     1       3.796   0.118  -0.733  0.00  0.00    +0.000 A 
ATOM     17  C   UNL     1       3.414  -1.202  -0.892  0.00  0.00    +0.000 A 
ENDROOT
TORSDOF 0
