REMARK  Name = 76848702
REMARK  2 active torsions:
REMARK  status: ('A' for Active; 'I' for Inactive)
REMARK    1  A    between atoms: C_4  and  C_8
REMARK    2  A    between atoms: C_7  and  C_10
REMARK                            x       y       z     vdW  Elec       q    Type
REMARK                         _______ _______ _______ _____ _____    ______ ____
ROOT
ATOM      1  N   UNL     1       0.478  -1.560   0.001  0.00  0.00    +0.000 NA
ATOM      2  N   UNL     1       2.791  -1.033  -0.003  0.00  0.00    +0.000 N 
ATOM      3  C   UNL     1       1.182   0.753   0.000  0.00  0.00    +0.000 A 
ATOM      4  C   UNL     1      -0.146   1.165   0.000  0.00  0.00    +0.000 A 
ATOM      5  C   UNL     1       1.439  -0.609   0.001  0.00  0.00    +0.000 A 
ATOM      6  C   UNL     1      -1.162   0.215   0.001  0.00  0.00    +0.000 A 
ATOM      7  C   UNL     1       2.269   1.773   0.000  0.00  0.00    +0.000 C 
ATOM      8  C   UNL     1      -0.800  -1.122   0.001  0.00  0.00    +0.000 A 
ATOM      9  H   UNL     1       3.483  -0.458   0.461  0.00  0.00    +0.000 HD
ATOM     10  H   UNL     1       2.948  -2.034  -0.011  0.00  0.00    +0.000 HD
ENDROOT
BRANCH   6  12
ATOM     11  O   UNL     1      -3.492  -0.196  -0.001  0.00  0.00    +0.000 OA
ATOM     12  C   UNL     1      -2.559   0.613  -0.001  0.00  0.00    +0.000 C 
ENDBRANCH   6  12
TORSDOF 1
