REMARK  Name = 78970929
REMARK  6 active torsions:
REMARK  status: ('A' for Active; 'I' for Inactive)
REMARK    1  A    between atoms: N_2  and  C_6
REMARK    2  A    between atoms: C_5  and  C_6
REMARK    3  A    between atoms: C_5  and  C_7
REMARK    4  A    between atoms: C_5  and  C_8
REMARK    5  A    between atoms: C_5  and  C_9
REMARK    6  A    between atoms: C_13  and  C_15
REMARK                            x       y       z     vdW  Elec       q    Type
REMARK                         _______ _______ _______ _____ _____    ______ ____
ROOT
ATOM      1  N   UNL     1       1.468  -0.482  -0.023  0.00  0.00    +0.000 N 
ATOM      2  N   UNL     1      -0.693  -1.417  -0.013  0.00  0.00    +0.000 NA
ATOM      3  C   UNL     1       0.093  -0.317  -0.014  0.00  0.00    +0.000 A 
ATOM      4  C   UNL     1      -0.390   0.981  -0.007  0.00  0.00    +0.000 A 
ATOM      5  C   UNL     1      -1.768   1.163   0.002  0.00  0.00    +0.000 A 
ATOM      6  C   UNL     1      -2.610   0.056   0.003  0.00  0.00    +0.000 A 
ATOM      7  C   UNL     1      -2.027  -1.201  -0.004  0.00  0.00    +0.000 A 
ATOM      8  H   UNL     1       1.800  -1.439  -0.033  0.00  0.00    +0.000 HD
ENDROOT
BRANCH   6  11
ATOM      9  O   UNL     1      -4.585   1.338   0.003  0.00  0.00    +0.000 OA
ATOM     10  N   UNL     1      -4.832  -0.941   0.013  0.00  0.00    +0.000 N 
ATOM     11  C   UNL     1      -4.053   0.213   0.013  0.00  0.00    +0.000 C 
ATOM     12  H   UNL     1      -4.479  -1.890   0.016  0.00  0.00    +0.000 HD
ATOM     13  H   UNL     1      -5.845  -0.861   0.013  0.00  0.00    +0.000 HD
ENDBRANCH   6  11
BRANCH   1  14
ATOM     14  C   UNL     1       2.407   0.616  -0.025  0.00  0.00    +0.000 C 
BRANCH  14  15
ATOM     15  C   UNL     1       3.874   0.130   0.017  0.00  0.00    +0.000 C 
ATOM     16  C   UNL     1       4.123  -0.759   1.248  0.00  0.00    +0.000 C 
ATOM     17  C   UNL     1       4.847   1.321   0.041  0.00  0.00    +0.000 C 
ATOM     18  C   UNL     1       4.145  -0.701  -1.252  0.00  0.00    +0.000 C 
ENDBRANCH  14  15
ENDBRANCH   1  14
TORSDOF 3
