REMARK  Name = 79034156
REMARK  6 active torsions:
REMARK  status: ('A' for Active; 'I' for Inactive)
REMARK    1  A    between atoms: N_5  and  C_8
REMARK    2  A    between atoms: N_6  and  C_17
REMARK    3  A    between atoms: N_6  and  C_18
REMARK    4  A    between atoms: C_8  and  C_9
REMARK    5  A    between atoms: C_9  and  C_12
REMARK    6  A    between atoms: C_11  and  C_15
REMARK                            x       y       z     vdW  Elec       q    Type
REMARK                         _______ _______ _______ _____ _____    ______ ____
ROOT
ATOM      1  N   UNL     1       1.540  -0.874  -0.533  0.00  0.00    +0.000 N 
ATOM      2  N   UNL     1      -0.698  -1.569  -0.780  0.00  0.00    +0.000 NA
ATOM      3  C   UNL     1       0.192  -0.690  -0.266  0.00  0.00    +0.000 A 
ATOM      4  C   UNL     1      -2.450  -0.287   0.284  0.00  0.00    +0.000 A 
ATOM      5  C   UNL     1      -0.157   0.397   0.519  0.00  0.00    +0.000 A 
ATOM      6  C   UNL     1      -1.505   0.596   0.794  0.00  0.00    +0.000 A 
ATOM      7  C   UNL     1      -1.999  -1.344  -0.491  0.00  0.00    +0.000 A 
ATOM      8  H   UNL     1       1.786  -1.670  -1.111  0.00  0.00    +0.000 HD
ENDROOT
BRANCH   4  11
ATOM      9  O   UNL     1      -4.319  -0.651   1.571  0.00  0.00    +0.000 OA
ATOM     10  N   UNL     1      -4.636   0.674  -0.329  0.00  0.00    +0.000 N 
ATOM     11  C   UNL     1      -3.866  -0.107   0.554  0.00  0.00    +0.000 C 
ATOM     12  C   UNL     1      -6.057   0.911  -0.116  0.00  0.00    +0.000 C 
ATOM     13  C   UNL     1      -4.062   1.298  -1.519  0.00  0.00    +0.000 C 
ENDBRANCH   4  11
BRANCH   1  14
ATOM     14  C   UNL     1       2.580  -0.004  -0.041  0.00  0.00    +0.000 C 
BRANCH  14  15
ATOM     15  C   UNL     1       3.957  -0.516  -0.452  0.00  0.00    +0.000 C 
BRANCH  15  19
ATOM     16  F   UNL     1       4.993   1.599  -0.380  0.00  0.00    +0.000 F 
ATOM     17  F   UNL     1       5.098   0.386   1.426  0.00  0.00    +0.000 F 
ATOM     18  F   UNL     1       6.293  -0.150  -0.322  0.00  0.00    +0.000 F 
ATOM     19  C   UNL     1       5.097   0.331   0.078  0.00  0.00    +0.000 C 
ENDBRANCH  15  19
ENDBRANCH  14  15
ENDBRANCH   1  14
TORSDOF 4
