REMARK  Name = 79033942
REMARK  4 active torsions:
REMARK  status: ('A' for Active; 'I' for Inactive)
REMARK    1  A    between atoms: N_5  and  C_8
REMARK    2  A    between atoms: C_8  and  C_9
REMARK    3  A    between atoms: C_9  and  C_11
REMARK    4  A    between atoms: C_13  and  C_16
REMARK                            x       y       z     vdW  Elec       q    Type
REMARK                         _______ _______ _______ _____ _____    ______ ____
ROOT
ATOM      1  N   UNL     1       0.883  -0.989  -0.035  0.00  0.00    +0.000 N 
ATOM      2  N   UNL     1      -1.387  -1.619   0.003  0.00  0.00    +0.000 NA
ATOM      3  C   UNL     1      -0.458  -0.637  -0.021  0.00  0.00    +0.000 A 
ATOM      4  C   UNL     1      -0.759   0.715  -0.033  0.00  0.00    +0.000 A 
ATOM      5  C   UNL     1      -3.084   0.103   0.005  0.00  0.00    +0.000 A 
ATOM      6  C   UNL     1      -2.100   1.084  -0.019  0.00  0.00    +0.000 A 
ATOM      7  C   UNL     1      -2.680  -1.222   0.015  0.00  0.00    +0.000 A 
ATOM      8  H   UNL     1       1.095  -1.980  -0.030  0.00  0.00    +0.000 HD
ENDROOT
BRANCH   5  11
ATOM      9  O   UNL     1      -4.866   1.643  -0.006  0.00  0.00    +0.000 OA
ATOM     10  N   UNL     1      -5.423  -0.581   0.043  0.00  0.00    +0.000 N 
ATOM     11  C   UNL     1      -4.493   0.456   0.019  0.00  0.00    +0.000 C 
ATOM     12  H   UNL     1      -5.202  -1.569   0.060  0.00  0.00    +0.000 HD
ATOM     13  H   UNL     1      -6.414  -0.363   0.047  0.00  0.00    +0.000 HD
ENDBRANCH   5  11
BRANCH   1  14
ATOM     14  C   UNL     1       1.962  -0.032  -0.060  0.00  0.00    +0.000 C 
BRANCH  14  15
ATOM     15  C   UNL     1       3.315  -0.736  -0.002  0.00  0.00    +0.000 C 
BRANCH  15  19
ATOM     16  F   UNL     1       5.664  -0.444   0.062  0.00  0.00    +0.000 F 
ATOM     17  F   UNL     1       4.493   0.993  -1.086  0.00  0.00    +0.000 F 
ATOM     18  F   UNL     1       4.443   1.046   1.091  0.00  0.00    +0.000 F 
ATOM     19  C   UNL     1       4.490   0.221   0.025  0.00  0.00    +0.000 C 
ENDBRANCH  15  19
ENDBRANCH  14  15
ENDBRANCH   1  14
TORSDOF 4
