REMARK  Name = 79040050
REMARK  6 active torsions:
REMARK  status: ('A' for Active; 'I' for Inactive)
REMARK    1  A    between atoms: N_5  and  C_9
REMARK    2  A    between atoms: N_5  and  C_12
REMARK    3  A    between atoms: C_8  and  C_9
REMARK    4  A    between atoms: C_8  and  C_10
REMARK    5  A    between atoms: C_10  and  C_11
REMARK    6  A    between atoms: C_13  and  C_16
REMARK                            x       y       z     vdW  Elec       q    Type
REMARK                         _______ _______ _______ _____ _____    ______ ____
ROOT
ATOM      1  N   UNL     1      -2.158  -1.834   0.024  0.00  0.00    +0.000 NA
ATOM      2  C   UNL     1      -1.631  -0.592  -0.074  0.00  0.00    +0.000 A 
ATOM      3  C   UNL     1      -2.369   0.575   0.044  0.00  0.00    +0.000 A 
ATOM      4  C   UNL     1      -3.735   0.461   0.277  0.00  0.00    +0.000 A 
ATOM      5  C   UNL     1      -4.313  -0.799   0.384  0.00  0.00    +0.000 A 
ATOM      6  C   UNL     1      -3.489  -1.905   0.251  0.00  0.00    +0.000 A 
ENDROOT
BRANCH   3   9
ATOM      7  O   UNL     1      -1.316   2.489   0.924  0.00  0.00    +0.000 OA
ATOM      8  N   UNL     1      -1.715   2.475  -1.334  0.00  0.00    +0.000 N 
ATOM      9  C   UNL     1      -1.773   1.899  -0.069  0.00  0.00    +0.000 C 
ATOM     10  H   UNL     1      -2.075   2.004  -2.158  0.00  0.00    +0.000 HD
ATOM     11  H   UNL     1      -1.304   3.392  -1.471  0.00  0.00    +0.000 HD
ENDBRANCH   3   9
BRANCH   2  12
ATOM     12  N   UNL     1      -0.269  -0.486  -0.309  0.00  0.00    +0.000 N 
ATOM     13  H   UNL     1       0.051   0.384  -0.721  0.00  0.00    +0.000 HD
BRANCH  12  14
ATOM     14  C   UNL     1       0.611  -1.622  -0.451  0.00  0.00    +0.000 C 
BRANCH  14  15
ATOM     15  C   UNL     1       2.047  -1.167  -0.696  0.00  0.00    +0.000 C 
BRANCH  15  16
ATOM     16  C   UNL     1       2.599  -0.315   0.450  0.00  0.00    +0.000 C 
BRANCH  16  20
ATOM     17  F   UNL     1       4.507   0.816   1.244  0.00  0.00    +0.000 F 
ATOM     18  F   UNL     1       4.836  -0.969   0.037  0.00  0.00    +0.000 F 
ATOM     19  F   UNL     1       4.134   0.873  -0.903  0.00  0.00    +0.000 F 
ATOM     20  C   UNL     1       4.032   0.102   0.200  0.00  0.00    +0.000 C 
ENDBRANCH  16  20
ENDBRANCH  15  16
ENDBRANCH  14  15
ENDBRANCH  12  14
ENDBRANCH   2  12
TORSDOF 6
