REMARK  Name = 79040504
REMARK  5 active torsions:
REMARK  status: ('A' for Active; 'I' for Inactive)
REMARK    1  A    between atoms: N_5  and  C_9
REMARK    2  A    between atoms: C_8  and  C_9
REMARK    3  A    between atoms: C_8  and  C_10
REMARK    4  A    between atoms: C_10  and  C_11
REMARK    5  A    between atoms: C_15  and  C_17
REMARK                            x       y       z     vdW  Elec       q    Type
REMARK                         _______ _______ _______ _____ _____    ______ ____
ROOT
ATOM      1  N   UNL     1       0.348   0.718   0.007  0.00  0.00    +0.000 N 
ATOM      2  N   UNL     1      -1.870   1.510   0.002  0.00  0.00    +0.000 NA
ATOM      3  C   UNL     1      -1.014   0.464   0.003  0.00  0.00    +0.000 A 
ATOM      4  C   UNL     1      -1.412  -0.863   0.001  0.00  0.00    +0.000 A 
ATOM      5  C   UNL     1      -2.776  -1.134  -0.003  0.00  0.00    +0.000 A 
ATOM      6  C   UNL     1      -3.688  -0.084  -0.004  0.00  0.00    +0.000 A 
ATOM      7  C   UNL     1      -3.188   1.208  -0.001  0.00  0.00    +0.000 A 
ATOM      8  H   UNL     1       0.631   1.692   0.008  0.00  0.00    +0.000 HD
ENDROOT
BRANCH   6  11
ATOM      9  O   UNL     1      -5.576  -1.492   0.007  0.00  0.00    +0.000 OA
ATOM     10  N   UNL     1      -5.970   0.767  -0.008  0.00  0.00    +0.000 N 
ATOM     11  C   UNL     1      -5.118  -0.335  -0.007  0.00  0.00    +0.000 C 
ATOM     12  H   UNL     1      -5.679   1.736  -0.015  0.00  0.00    +0.000 HD
ATOM     13  H   UNL     1      -6.975   0.621  -0.004  0.00  0.00    +0.000 HD
ENDBRANCH   6  11
BRANCH   1  14
ATOM     14  C   UNL     1       1.356  -0.315   0.008  0.00  0.00    +0.000 C 
BRANCH  14  15
ATOM     15  C   UNL     1       2.756   0.295   0.018  0.00  0.00    +0.000 C 
BRANCH  15  16
ATOM     16  C   UNL     1       3.860  -0.765   0.014  0.00  0.00    +0.000 C 
BRANCH  16  20
ATOM     17  F   UNL     1       6.192  -1.095  -0.051  0.00  0.00    +0.000 F 
ATOM     18  F   UNL     1       5.404   0.657  -1.082  0.00  0.00    +0.000 F 
ATOM     19  F   UNL     1       5.456   0.604   1.101  0.00  0.00    +0.000 F 
ATOM     20  C   UNL     1       5.239  -0.139  -0.005  0.00  0.00    +0.000 C 
ENDBRANCH  16  20
ENDBRANCH  15  16
ENDBRANCH  14  15
ENDBRANCH   1  14
TORSDOF 5
