REMARK  Name = 79098959
REMARK  4 active torsions:
REMARK  status: ('A' for Active; 'I' for Inactive)
REMARK    1  A    between atoms: N_4  and  C_7
REMARK    2  A    between atoms: N_4  and  C_8
REMARK    3  A    between atoms: C_7  and  C_10
REMARK    4  A    between atoms: C_9  and  C_13
REMARK                            x       y       z     vdW  Elec       q    Type
REMARK                         _______ _______ _______ _____ _____    ______ ____
ROOT
ATOM      1  N   UNL     1      -0.790   1.880  -0.026  0.00  0.00    +0.000 NA
ATOM      2  C   UNL     1      -0.449   0.572  -0.004  0.00  0.00    +0.000 A 
ATOM      3  C   UNL     1      -1.365  -0.468   0.022  0.00  0.00    +0.000 A 
ATOM      4  C   UNL     1      -2.717  -0.144   0.026  0.00  0.00    +0.000 A 
ATOM      5  C   UNL     1      -3.107   1.191   0.004  0.00  0.00    +0.000 A 
ATOM      6  C   UNL     1      -2.113   2.156  -0.021  0.00  0.00    +0.000 A 
ENDROOT
BRANCH   3   9
ATOM      7  O   UNL     1      -0.798  -2.472   1.121  0.00  0.00    +0.000 OA
ATOM      8  N   UNL     1      -0.800  -2.515  -1.171  0.00  0.00    +0.000 N 
ATOM      9  C   UNL     1      -0.967  -1.868   0.049  0.00  0.00    +0.000 C 
ATOM     10  H   UNL     1      -0.941  -2.040  -2.057  0.00  0.00    +0.000 HD
ATOM     11  H   UNL     1      -0.530  -3.492  -1.211  0.00  0.00    +0.000 HD
ENDBRANCH   3   9
BRANCH   2  12
ATOM     12  N   UNL     1       0.931   0.250  -0.005  0.00  0.00    +0.000 N 
ATOM     13  H   UNL     1       1.173  -0.679  -0.333  0.00  0.00    +0.000 HD
BRANCH  12  14
ATOM     14  C   UNL     1       1.954   1.244  -0.030  0.00  0.00    +0.000 C 
BRANCH  14  17
ATOM     15  F   UNL     1       3.457  -0.240  -1.070  0.00  0.00    +0.000 F 
ATOM     16  F   UNL     1       3.448  -0.174   1.110  0.00  0.00    +0.000 F 
ATOM     17  C   UNL     1       3.316   0.586  -0.004  0.00  0.00    +0.000 C 
ENDBRANCH  14  17
ENDBRANCH  12  14
ENDBRANCH   2  12
TORSDOF 4
