REMARK  Name = 79099278
REMARK  3 active torsions:
REMARK  status: ('A' for Active; 'I' for Inactive)
REMARK    1  A    between atoms: N_4  and  C_7
REMARK    2  A    between atoms: C_7  and  C_11
REMARK    3  A    between atoms: C_10  and  C_14
REMARK                            x       y       z     vdW  Elec       q    Type
REMARK                         _______ _______ _______ _____ _____    ______ ____
ROOT
ATOM      1  N   UNL     1       1.877   0.301   0.011  0.00  0.00    +0.000 N 
ATOM      2  N   UNL     1      -0.264   1.346   0.006  0.00  0.00    +0.000 NA
ATOM      3  C   UNL     1       0.463   0.206   0.006  0.00  0.00    +0.000 A 
ATOM      4  C   UNL     1      -0.088  -1.065   0.003  0.00  0.00    +0.000 A 
ATOM      5  C   UNL     1      -2.256  -0.024  -0.003  0.00  0.00    +0.000 A 
ATOM      6  C   UNL     1      -1.474  -1.174  -0.002  0.00  0.00    +0.000 A 
ATOM      7  C   UNL     1      -1.609   1.200   0.001  0.00  0.00    +0.000 A 
ATOM      8  H   UNL     1       2.267   1.236   0.014  0.00  0.00    +0.000 HD
ENDROOT
BRANCH   5  11
ATOM      9  O   UNL     1      -4.297  -1.201   0.006  0.00  0.00    +0.000 OA
ATOM     10  N   UNL     1      -4.423   1.089  -0.007  0.00  0.00    +0.000 N 
ATOM     11  C   UNL     1      -3.706  -0.105  -0.007  0.00  0.00    +0.000 C 
ATOM     12  H   UNL     1      -4.021   2.017  -0.013  0.00  0.00    +0.000 HD
ATOM     13  H   UNL     1      -5.438   1.062  -0.004  0.00  0.00    +0.000 HD
ENDBRANCH   5  11
BRANCH   1  14
ATOM     14  C   UNL     1       2.725  -0.846   0.012  0.00  0.00    +0.000 C 
BRANCH  14  17
ATOM     15  F   UNL     1       4.448   0.352   1.079  0.00  0.00    +0.000 F 
ATOM     16  F   UNL     1       4.430   0.337  -1.101  0.00  0.00    +0.000 F 
ATOM     17  C   UNL     1       4.176  -0.416  -0.003  0.00  0.00    +0.000 C 
ENDBRANCH  14  17
ENDBRANCH   1  14
TORSDOF 3
