REMARK  Name = 79099286
REMARK  5 active torsions:
REMARK  status: ('A' for Active; 'I' for Inactive)
REMARK    1  A    between atoms: N_4  and  C_9
REMARK    2  A    between atoms: N_5  and  C_15
REMARK    3  A    between atoms: N_5  and  C_16
REMARK    4  A    between atoms: C_7  and  C_10
REMARK    5  A    between atoms: C_9  and  C_14
REMARK                            x       y       z     vdW  Elec       q    Type
REMARK                         _______ _______ _______ _____ _____    ______ ____
ROOT
ATOM      1  N   UNL     1      -2.485  -0.046  -0.295  0.00  0.00    +0.000 N 
ATOM      2  N   UNL     1      -0.368  -0.330  -1.349  0.00  0.00    +0.000 NA
ATOM      3  C   UNL     1       1.634  -0.406   0.005  0.00  0.00    +0.000 A 
ATOM      4  C   UNL     1      -1.077  -0.171  -0.209  0.00  0.00    +0.000 A 
ATOM      5  C   UNL     1       0.871  -0.241   1.155  0.00  0.00    +0.000 A 
ATOM      6  C   UNL     1      -0.511  -0.121   1.055  0.00  0.00    +0.000 A 
ATOM      7  C   UNL     1       0.973  -0.444  -1.212  0.00  0.00    +0.000 A 
ATOM      8  H   UNL     1      -2.887  -0.086  -1.225  0.00  0.00    +0.000 HD
ENDROOT
BRANCH   3  11
ATOM      9  O   UNL     1       3.538  -1.681   0.181  0.00  0.00    +0.000 OA
ATOM     10  N   UNL     1       3.872   0.626   0.011  0.00  0.00    +0.000 N 
ATOM     11  C   UNL     1       3.098  -0.537   0.078  0.00  0.00    +0.000 C 
ATOM     12  C   UNL     1       5.327   0.592   0.059  0.00  0.00    +0.000 C 
ATOM     13  C   UNL     1       3.274   1.953  -0.112  0.00  0.00    +0.000 C 
ENDBRANCH   3  11
BRANCH   1  14
ATOM     14  C   UNL     1      -3.315   0.124   0.853  0.00  0.00    +0.000 C 
BRANCH  14  17
ATOM     15  F   UNL     1      -5.147  -0.863  -0.247  0.00  0.00    +0.000 F 
ATOM     16  F   UNL     1      -4.921   1.300  -0.405  0.00  0.00    +0.000 F 
ATOM     17  C   UNL     1      -4.763   0.245   0.432  0.00  0.00    +0.000 C 
ENDBRANCH  14  17
ENDBRANCH   1  14
TORSDOF 3
