REMARK  Name = 80347887
REMARK  3 active torsions:
REMARK  status: ('A' for Active; 'I' for Inactive)
REMARK    1  A    between atoms: N_5  and  C_8
REMARK    2  A    between atoms: C_8  and  C_11
REMARK    3  A    between atoms: C_12  and  C_15
REMARK                            x       y       z     vdW  Elec       q    Type
REMARK                         _______ _______ _______ _____ _____    ______ ____
ROOT
ATOM      1  N   UNL     1       1.518   0.483   0.014  0.00  0.00    +0.000 N 
ATOM      2  N   UNL     1      -0.674   1.418   0.006  0.00  0.00    +0.000 NA
ATOM      3  C   UNL     1       0.111   0.317   0.009  0.00  0.00    +0.000 A 
ATOM      4  C   UNL     1      -0.375  -0.981   0.005  0.00  0.00    +0.000 A 
ATOM      5  C   UNL     1      -2.593  -0.052  -0.003  0.00  0.00    +0.000 A 
ATOM      6  C   UNL     1      -1.754  -1.160  -0.000  0.00  0.00    +0.000 A 
ATOM      7  C   UNL     1      -2.009   1.204   0.001  0.00  0.00    +0.000 A 
ATOM      8  H   UNL     1       1.860   1.437   0.018  0.00  0.00    +0.000 HD
ENDROOT
BRANCH   5  11
ATOM      9  O   UNL     1      -4.572  -1.330   0.005  0.00  0.00    +0.000 OA
ATOM     10  N   UNL     1      -4.814   0.950  -0.010  0.00  0.00    +0.000 N 
ATOM     11  C   UNL     1      -4.037  -0.206  -0.008  0.00  0.00    +0.000 C 
ATOM     12  H   UNL     1      -4.459   1.898  -0.016  0.00  0.00    +0.000 HD
ATOM     13  H   UNL     1      -5.826   0.871  -0.007  0.00  0.00    +0.000 HD
ENDBRANCH   5  11
BRANCH   1  14
ATOM     14  C   UNL     1       2.423  -0.620   0.017  0.00  0.00    +0.000 C 
BRANCH  14  18
ATOM     15  F   UNL     1       4.712  -1.159  -0.017  0.00  0.00    +0.000 F 
ATOM     16  F   UNL     1       4.092   0.628  -1.101  0.00  0.00    +0.000 F 
ATOM     17  F   UNL     1       4.125   0.628   1.085  0.00  0.00    +0.000 F 
ATOM     18  C   UNL     1       3.847  -0.120  -0.004  0.00  0.00    +0.000 C 
ENDBRANCH  14  18
ENDBRANCH   1  14
TORSDOF 3
