REMARK  Name = 80347886
REMARK  5 active torsions:
REMARK  status: ('A' for Active; 'I' for Inactive)
REMARK    1  A    between atoms: N_5  and  C_10
REMARK    2  A    between atoms: N_6  and  C_16
REMARK    3  A    between atoms: N_6  and  C_17
REMARK    4  A    between atoms: C_8  and  C_11
REMARK    5  A    between atoms: C_10  and  C_15
REMARK                            x       y       z     vdW  Elec       q    Type
REMARK                         _______ _______ _______ _____ _____    ______ ____
ROOT
ATOM      1  N   UNL     1      -2.135   0.160  -0.459  0.00  0.00    +0.000 N 
ATOM      2  N   UNL     1       0.027   0.607  -1.355  0.00  0.00    +0.000 NA
ATOM      3  C   UNL     1       1.970   0.400   0.068  0.00  0.00    +0.000 A 
ATOM      4  C   UNL     1      -0.730   0.246  -0.295  0.00  0.00    +0.000 A 
ATOM      5  C   UNL     1       1.158   0.032   1.136  0.00  0.00    +0.000 A 
ATOM      6  C   UNL     1      -0.219  -0.048   0.959  0.00  0.00    +0.000 A 
ATOM      7  C   UNL     1       1.361   0.674  -1.145  0.00  0.00    +0.000 A 
ATOM      8  H   UNL     1      -2.497   0.376  -1.381  0.00  0.00    +0.000 HD
ENDROOT
BRANCH   3  11
ATOM      9  O   UNL     1       3.870   1.586   0.582  0.00  0.00    +0.000 OA
ATOM     10  N   UNL     1       4.200  -0.646  -0.030  0.00  0.00    +0.000 N 
ATOM     11  C   UNL     1       3.430   0.494   0.223  0.00  0.00    +0.000 C 
ATOM     12  C   UNL     1       5.649  -0.650   0.112  0.00  0.00    +0.000 C 
ATOM     13  C   UNL     1       3.602  -1.910  -0.455  0.00  0.00    +0.000 C 
ENDBRANCH   3  11
BRANCH   1  14
ATOM     14  C   UNL     1      -3.013  -0.212   0.602  0.00  0.00    +0.000 C 
BRANCH  14  18
ATOM     15  F   UNL     1      -5.284  -0.525   1.128  0.00  0.00    +0.000 F 
ATOM     16  F   UNL     1      -4.799   1.041  -0.309  0.00  0.00    +0.000 F 
ATOM     17  F   UNL     1      -4.643  -1.062  -0.885  0.00  0.00    +0.000 F 
ATOM     18  C   UNL     1      -4.444  -0.188   0.124  0.00  0.00    +0.000 C 
ENDBRANCH  14  18
ENDBRANCH   1  14
TORSDOF 3
