REMARK  Name = 80353123
REMARK  8 active torsions:
REMARK  status: ('A' for Active; 'I' for Inactive)
REMARK    1  A    between atoms: N_2  and  C_8
REMARK    2  A    between atoms: N_2  and  C_10
REMARK    3  A    between atoms: N_2  and  C_11
REMARK    4  A    between atoms: N_3  and  C_9
REMARK    5  A    between atoms: C_6  and  C_7
REMARK    6  A    between atoms: C_6  and  C_8
REMARK    7  A    between atoms: C_7  and  C_9
REMARK    8  A    between atoms: C_15  and  C_17
REMARK                            x       y       z     vdW  Elec       q    Type
REMARK                         _______ _______ _______ _____ _____    ______ ____
ROOT
ATOM      1  N   UNL     1       0.092  -0.938   0.068  0.00  0.00    +0.000 N 
ATOM      2  N   UNL     1      -2.177  -1.558   0.200  0.00  0.00    +0.000 NA
ATOM      3  C   UNL     1      -1.249  -0.587   0.045  0.00  0.00    +0.000 A 
ATOM      4  C   UNL     1      -1.552   0.753  -0.136  0.00  0.00    +0.000 A 
ATOM      5  C   UNL     1      -2.892   1.120  -0.160  0.00  0.00    +0.000 A 
ATOM      6  C   UNL     1      -3.876   0.150  -0.005  0.00  0.00    +0.000 A 
ATOM      7  C   UNL     1      -3.470  -1.163   0.170  0.00  0.00    +0.000 A 
ATOM      8  H   UNL     1       0.304  -1.920   0.201  0.00  0.00    +0.000 HD
ENDROOT
BRANCH   6  11
ATOM      9  O   UNL     1      -5.660   1.676  -0.200  0.00  0.00    +0.000 OA
ATOM     10  N   UNL     1      -6.213  -0.524   0.135  0.00  0.00    +0.000 N 
ATOM     11  C   UNL     1      -5.285   0.501  -0.026  0.00  0.00    +0.000 C 
ATOM     12  H   UNL     1      -5.992  -1.502   0.276  0.00  0.00    +0.000 HD
ATOM     13  H   UNL     1      -7.205  -0.307   0.118  0.00  0.00    +0.000 HD
ENDBRANCH   6  11
BRANCH   1  14
ATOM     14  C   UNL     1       1.170   0.008  -0.086  0.00  0.00    +0.000 C 
BRANCH  14  15
ATOM     15  C   UNL     1       2.522  -0.697  -0.020  0.00  0.00    +0.000 C 
BRANCH  15  16
ATOM     16  C   UNL     1       3.701   0.270  -0.173  0.00  0.00    +0.000 C 
BRANCH  16  17
ATOM     17  C   UNL     1       5.036  -0.468  -0.069  0.00  0.00    +0.000 C 
BRANCH  17  18
ATOM     18  N   UNL     1       6.145   0.468  -0.208  0.00  0.00    +0.000 NA
ATOM     19  C   UNL     1       6.332   1.232   1.026  0.00  0.00    +0.000 C 
ATOM     20  C   UNL     1       7.377  -0.241  -0.559  0.00  0.00    +0.000 C 
ENDBRANCH  17  18
ENDBRANCH  16  17
ENDBRANCH  15  16
ENDBRANCH  14  15
ENDBRANCH   1  14
TORSDOF 6
