REMARK  Name = 80583580
REMARK  2 active torsions:
REMARK  status: ('A' for Active; 'I' for Inactive)
REMARK    1  A    between atoms: N_4  and  C_9
REMARK    2  A    between atoms: C_7  and  C_11
REMARK                            x       y       z     vdW  Elec       q    Type
REMARK                         _______ _______ _______ _____ _____    ______ ____
ROOT
ATOM      1  N   UNL     1      -0.745   1.800   0.376  0.00  0.00    +0.000 NA
ATOM      2  C   UNL     1      -0.505  -0.584   0.052  0.00  0.00    +0.000 A 
ATOM      3  C   UNL     1      -1.836  -0.672  -0.342  0.00  0.00    +0.000 A 
ATOM      4  C   UNL     1      -0.012   0.664   0.398  0.00  0.00    +0.000 A 
ATOM      5  C   UNL     1      -2.622   0.475  -0.376  0.00  0.00    +0.000 A 
ATOM      6  C   UNL     1      -2.034   1.675  -0.011  0.00  0.00    +0.000 A 
ENDROOT
BRANCH   2   9
ATOM      7  O   UNL     1       1.507  -1.740   0.455  0.00  0.00    +0.000 OA
ATOM      8  N   UNL     1      -0.274  -2.988  -0.272  0.00  0.00    +0.000 N 
ATOM      9  C   UNL     1       0.319  -1.783   0.092  0.00  0.00    +0.000 C 
ATOM     10  H   UNL     1      -1.231  -3.113  -0.574  0.00  0.00    +0.000 HD
ATOM     11  H   UNL     1       0.278  -3.840  -0.246  0.00  0.00    +0.000 HD
ENDBRANCH   2   9
BRANCH   4  12
ATOM     12  N   UNL     1       1.318   0.823   0.804  0.00  0.00    +0.000 NA
ATOM     13  N   UNL     1       2.091   1.058  -0.150  0.00  0.00    +0.000 NA
ATOM     14  N   UNL     1       2.791   1.272  -1.026  0.00  0.00    +0.000 NA
ENDBRANCH   4  12
TORSDOF 2
