REMARK  Name = 80583554
REMARK  4 active torsions:
REMARK  status: ('A' for Active; 'I' for Inactive)
REMARK    1  A    between atoms: N_2  and  C_10
REMARK    2  A    between atoms: N_2  and  C_11
REMARK    3  A    between atoms: N_4  and  C_14
REMARK    4  A    between atoms: C_7  and  C_8
REMARK                            x       y       z     vdW  Elec       q    Type
REMARK                         _______ _______ _______ _____ _____    ______ ____
ROOT
ATOM      1  N   UNL     1      -1.236  -0.282   1.179  0.00  0.00    +0.000 NA
ATOM      2  C   UNL     1       0.776   0.270  -0.041  0.00  0.00    +0.000 A 
ATOM      3  C   UNL     1       0.118   0.042  -1.245  0.00  0.00    +0.000 A 
ATOM      4  C   UNL     1       0.061   0.096   1.133  0.00  0.00    +0.000 A 
ATOM      5  C   UNL     1      -1.216  -0.348  -1.237  0.00  0.00    +0.000 A 
ATOM      6  C   UNL     1      -1.843  -0.495  -0.010  0.00  0.00    +0.000 A 
ENDROOT
BRANCH   2   9
ATOM      7  O   UNL     1       2.401   1.896  -0.024  0.00  0.00    +0.000 OA
ATOM      8  N   UNL     1       3.171  -0.310   0.032  0.00  0.00    +0.000 N 
ATOM      9  C   UNL     1       2.188   0.684  -0.015  0.00  0.00    +0.000 C 
ATOM     10  C   UNL     1       4.592   0.006   0.076  0.00  0.00    +0.000 C 
ATOM     11  C   UNL     1       2.839  -1.733   0.040  0.00  0.00    +0.000 C 
ENDBRANCH   2   9
BRANCH   6  12
ATOM     12  N   UNL     1      -3.184  -0.884   0.049  0.00  0.00    +0.000 NA
ATOM     13  N   UNL     1      -3.972   0.087   0.037  0.00  0.00    +0.000 NA
ATOM     14  N   UNL     1      -4.697   0.969   0.027  0.00  0.00    +0.000 NA
ENDBRANCH   6  12
TORSDOF 2
