REMARK  Name = 82075846
REMARK  6 active torsions:
REMARK  status: ('A' for Active; 'I' for Inactive)
REMARK    1  A    between atoms: N_2  and  C_5
REMARK    2  A    between atoms: N_2  and  C_6
REMARK    3  A    between atoms: N_2  and  C_7
REMARK    4  A    between atoms: C_5  and  C_9
REMARK    5  A    between atoms: C_6  and  C_10
REMARK    6  A    between atoms: C_8  and  C_12
REMARK                            x       y       z     vdW  Elec       q    Type
REMARK                         _______ _______ _______ _____ _____    ______ ____
ROOT
ATOM      1  N   UNL     1       0.140   1.818  -0.062  0.00  0.00    +0.000 NA
ATOM      2  C   UNL     1       0.039   0.471  -0.014  0.00  0.00    +0.000 A 
ATOM      3  C   UNL     1      -1.163  -0.216   0.019  0.00  0.00    +0.000 A 
ATOM      4  C   UNL     1      -2.338   0.527   0.001  0.00  0.00    +0.000 A 
ATOM      5  C   UNL     1      -2.276   1.915  -0.049  0.00  0.00    +0.000 A 
ATOM      6  C   UNL     1      -1.023   2.507  -0.078  0.00  0.00    +0.000 A 
ENDROOT
BRANCH   3   9
ATOM      7  O   UNL     1      -1.281  -2.274   1.159  0.00  0.00    +0.000 OA
ATOM      8  N   UNL     1      -1.284  -2.360  -1.132  0.00  0.00    +0.000 N 
ATOM      9  C   UNL     1      -1.240  -1.670   0.074  0.00  0.00    +0.000 C 
ATOM     10  H   UNL     1      -1.261  -1.883  -2.028  0.00  0.00    +0.000 HD
ATOM     11  H   UNL     1      -1.342  -3.373  -1.152  0.00  0.00    +0.000 HD
ENDBRANCH   3   9
BRANCH   2  12
ATOM     12  N   UNL     1       1.242  -0.280   0.007  0.00  0.00    +0.000 N 
BRANCH  12  13
ATOM     13  C   UNL     1       1.847  -0.718  -1.230  0.00  0.00    +0.000 C 
ATOM     14  C   UNL     1       2.803   0.340  -1.747  0.00  0.00    +0.000 C 
ENDBRANCH  12  13
BRANCH  12  15
ATOM     15  C   UNL     1       1.865  -0.618   1.267  0.00  0.00    +0.000 C 
ATOM     16  C   UNL     1       2.671   0.559   1.784  0.00  0.00    +0.000 C 
ENDBRANCH  12  15
ENDBRANCH   2  12
TORSDOF 4
