REMARK  Name = 82075847
REMARK  6 active torsions:
REMARK  status: ('A' for Active; 'I' for Inactive)
REMARK    1  A    between atoms: N_2  and  C_5
REMARK    2  A    between atoms: N_2  and  C_9
REMARK    3  A    between atoms: C_5  and  C_6
REMARK    4  A    between atoms: C_5  and  C_7
REMARK    5  A    between atoms: C_5  and  C_8
REMARK    6  A    between atoms: C_10  and  C_12
REMARK                            x       y       z     vdW  Elec       q    Type
REMARK                         _______ _______ _______ _____ _____    ______ ____
ROOT
ATOM      1  N   UNL     1      -0.281   1.620   0.015  0.00  0.00    +0.000 NA
ATOM      2  C   UNL     1       0.065   0.314  -0.006  0.00  0.00    +0.000 A 
ATOM      3  C   UNL     1       1.373  -0.142  -0.022  0.00  0.00    +0.000 A 
ATOM      4  C   UNL     1       2.392   0.804  -0.015  0.00  0.00    +0.000 A 
ATOM      5  C   UNL     1       0.736   2.511   0.021  0.00  0.00    +0.000 A 
ATOM      6  C   UNL     1       2.076   2.158   0.007  0.00  0.00    +0.000 A 
ENDROOT
BRANCH   3   9
ATOM      7  O   UNL     1       1.873  -2.164  -1.121  0.00  0.00    +0.000 OA
ATOM      8  N   UNL     1       1.877  -2.205   1.172  0.00  0.00    +0.000 N 
ATOM      9  C   UNL     1       1.715  -1.558  -0.048  0.00  0.00    +0.000 C 
ATOM     10  H   UNL     1       1.758  -1.724   2.058  0.00  0.00    +0.000 HD
ATOM     11  H   UNL     1       2.121  -3.189   1.212  0.00  0.00    +0.000 HD
ENDBRANCH   3   9
BRANCH   2  12
ATOM     12  N   UNL     1      -0.953  -0.620  -0.015  0.00  0.00    +0.000 N 
ATOM     13  H   UNL     1      -0.721  -1.542   0.342  0.00  0.00    +0.000 HD
BRANCH  12  14
ATOM     14  C   UNL     1      -2.361  -0.269  -0.001  0.00  0.00    +0.000 C 
ATOM     15  C   UNL     1      -2.673   0.574  -1.241  0.00  0.00    +0.000 C 
ATOM     16  C   UNL     1      -3.192  -1.555  -0.017  0.00  0.00    +0.000 C 
ATOM     17  C   UNL     1      -2.649   0.533   1.271  0.00  0.00    +0.000 C 
ENDBRANCH  12  14
ENDBRANCH   2  12
TORSDOF 3
