REMARK  Name = 83187
REMARK  2 active torsions:
REMARK  status: ('A' for Active; 'I' for Inactive)
REMARK    1  A    between atoms: N_2  and  C_6
REMARK    2  A    between atoms: C_5  and  C_7
REMARK                            x       y       z     vdW  Elec       q    Type
REMARK                         _______ _______ _______ _____ _____    ______ ____
ROOT
ATOM      1  O   UNL     1      -0.198   1.838   0.285  0.00  0.00    +0.000 OA
ATOM      2  N   UNL     1       0.480  -0.377  -0.088  0.00  0.00    +0.000 N 
ATOM      3  C   UNL     1      -0.468   0.643   0.080  0.00  0.00    +0.000 C 
ATOM      4  H   UNL     1       0.158  -1.320  -0.284  0.00  0.00    +0.000 HD
ENDROOT
BRANCH   2   6
ATOM      5  N   UNL     1       2.603  -1.408  -0.251  0.00  0.00    +0.000 NA
ATOM      6  C   UNL     1       1.894  -0.281  -0.064  0.00  0.00    +0.000 A 
ATOM      7  C   UNL     1       2.429   0.970   0.151  0.00  0.00    +0.000 A 
ATOM      8  C   UNL     1       3.816   1.075   0.176  0.00  0.00    +0.000 A 
ATOM      9  C   UNL     1       4.596  -0.061  -0.012  0.00  0.00    +0.000 A 
ATOM     10  C   UNL     1       3.947  -1.267  -0.220  0.00  0.00    +0.000 A 
ENDBRANCH   2   6
BRANCH   3  12
ATOM     11  N   UNL     1      -3.514  -1.502   0.354  0.00  0.00    +0.000 NA
ATOM     12  C   UNL     1      -1.860   0.231   0.029  0.00  0.00    +0.000 A 
ATOM     13  C   UNL     1      -2.855   1.116  -0.370  0.00  0.00    +0.000 A 
ATOM     14  C   UNL     1      -2.238  -1.056   0.378  0.00  0.00    +0.000 A 
ATOM     15  C   UNL     1      -4.179   0.693  -0.408  0.00  0.00    +0.000 A 
ATOM     16  C   UNL     1      -4.453  -0.614  -0.040  0.00  0.00    +0.000 A 
ENDBRANCH   3  12
TORSDOF 2
