REMARK  Name = 83388488
REMARK  4 active torsions:
REMARK  status: ('A' for Active; 'I' for Inactive)
REMARK    1  A    between atoms: C_4  and  C_5
REMARK    2  A    between atoms: C_4  and  C_6
REMARK    3  A    between atoms: C_4  and  C_7
REMARK    4  A    between atoms: C_5  and  C_8
REMARK                            x       y       z     vdW  Elec       q    Type
REMARK                         _______ _______ _______ _____ _____    ______ ____
ROOT
ATOM      1  N   UNL     1      -1.865   1.134  -0.546  0.00  0.00    +0.000 NA
ATOM      2  N   UNL     1      -4.050   0.408   0.065  0.00  0.00    +0.000 N 
ATOM      3  C   UNL     1       0.029  -0.305  -0.117  0.00  0.00    +0.000 A 
ATOM      4  C   UNL     1      -0.814  -1.263   0.434  0.00  0.00    +0.000 A 
ATOM      5  C   UNL     1      -0.540   0.866  -0.589  0.00  0.00    +0.000 A 
ATOM      6  C   UNL     1      -2.183  -1.024   0.495  0.00  0.00    +0.000 A 
ATOM      7  C   UNL     1      -2.654   0.179  -0.004  0.00  0.00    +0.000 A 
ATOM      8  H   UNL     1      -4.671  -0.391   0.050  0.00  0.00    +0.000 HD
ATOM      9  H   UNL     1      -4.391   1.287  -0.307  0.00  0.00    +0.000 HD
ENDROOT
BRANCH   3  11
ATOM     10  O   UNL     1       1.920  -1.684  -0.301  0.00  0.00    +0.000 OA
ATOM     11  C   UNL     1       1.503  -0.531  -0.197  0.00  0.00    +0.000 C 
BRANCH  11  12
ATOM     12  C   UNL     1       2.460   0.657  -0.134  0.00  0.00    +0.000 C 
ATOM     13  C   UNL     1       3.902   0.180  -0.305  0.00  0.00    +0.000 C 
ATOM     14  C   UNL     1       2.293   1.383   1.198  0.00  0.00    +0.000 C 
ENDBRANCH  11  12
ENDBRANCH   3  11
TORSDOF 2
