REMARK  Name = 835746
REMARK  2 active torsions:
REMARK  status: ('A' for Active; 'I' for Inactive)
REMARK    1  A    between atoms: C_6  and  C_12
REMARK    2  A    between atoms: C_8  and  C_10
REMARK                            x       y       z     vdW  Elec       q    Type
REMARK                         _______ _______ _______ _____ _____    ______ ____
ROOT
ATOM      1  O   UNL     1      -0.586   1.814   0.289  0.00  0.00    +0.000 OA
ATOM      2  N   UNL     1       0.109  -0.397  -0.082  0.00  0.00    +0.000 N 
ATOM      3  N   UNL     1       2.238  -1.411  -0.249  0.00  0.00    +0.000 NA
ATOM      4  C   UNL     1       1.521  -0.290  -0.061  0.00  0.00    +0.000 A 
ATOM      5  C   UNL     1       4.222  -0.049  -0.018  0.00  0.00    +0.000 A 
ATOM      6  C   UNL     1       2.048   0.966   0.150  0.00  0.00    +0.000 A 
ATOM      7  C   UNL     1       3.434   1.081   0.171  0.00  0.00    +0.000 A 
ATOM      8  C   UNL     1      -0.847   0.616   0.087  0.00  0.00    +0.000 C 
ATOM      9  C   UNL     1       3.582  -1.260  -0.222  0.00  0.00    +0.000 A 
ATOM     10  C   UNL     1       5.707   0.041  -0.004  0.00  0.00    +0.000 C 
ATOM     11  H   UNL     1      -0.206  -1.343  -0.276  0.00  0.00    +0.000 HD
ENDROOT
BRANCH   8  13
ATOM     12  N   UNL     1      -4.546   0.737  -0.419  0.00  0.00    +0.000 NA
ATOM     13  C   UNL     1      -2.236   0.193   0.041  0.00  0.00    +0.000 A 
ATOM     14  C   UNL     1      -2.603  -1.100   0.396  0.00  0.00    +0.000 A 
ATOM     15  C   UNL     1      -3.236   1.065  -0.356  0.00  0.00    +0.000 A 
ATOM     16  C   UNL     1      -3.941  -1.476   0.344  0.00  0.00    +0.000 A 
ATOM     17  C   UNL     1      -4.865  -0.529  -0.067  0.00  0.00    +0.000 A 
ENDBRANCH   8  13
TORSDOF 1
