REMARK  Name = 83652456
REMARK  2 active torsions:
REMARK  status: ('A' for Active; 'I' for Inactive)
REMARK    1  A    between atoms: C_11  and  C_13
REMARK    2  A    between atoms: C_12  and  C_14
REMARK                            x       y       z     vdW  Elec       q    Type
REMARK                         _______ _______ _______ _____ _____    ______ ____
ROOT
ATOM      1  O   UNL     1      -0.971   2.699   0.066  0.00  0.00    +0.000 OA
ATOM      2  O   UNL     1       4.625  -2.021  -0.546  0.00  0.00    +0.000 OA
ATOM      3  N   UNL     1       0.494   0.884  -0.064  0.00  0.00    +0.000 N 
ATOM      4  N   UNL     1       3.167  -0.264  -0.109  0.00  0.00    +0.000 N 
ATOM      5  C   UNL     1       0.714  -0.563  -0.189  0.00  0.00    +0.000 C 
ATOM      6  C   UNL     1       1.685   1.734  -0.105  0.00  0.00    +0.000 C 
ATOM      7  C   UNL     1       2.058  -0.887  -0.833  0.00  0.00    +0.000 C 
ATOM      8  C   UNL     1       2.900   1.043   0.504  0.00  0.00    +0.000 C 
ATOM      9  C   UNL     1      -0.765   1.487   0.021  0.00  0.00    +0.000 C 
ATOM     10  C   UNL     1       4.394  -0.923  -0.032  0.00  0.00    +0.000 C 
ATOM     11  C   UNL     1       5.485  -0.213   0.731  0.00  0.00    +0.000 C 
ENDROOT
BRANCH   9  14
ATOM     12  N   UNL     1      -4.043  -0.073  -0.934  0.00  0.00    +0.000 NA
ATOM     13  N   UNL     1      -5.319  -1.801   0.098  0.00  0.00    +0.000 N 
ATOM     14  C   UNL     1      -1.950   0.615   0.062  0.00  0.00    +0.000 A 
ATOM     15  C   UNL     1      -2.119  -0.318   1.079  0.00  0.00    +0.000 A 
ATOM     16  C   UNL     1      -2.932   0.697  -0.912  0.00  0.00    +0.000 A 
ATOM     17  C   UNL     1      -3.249  -1.128   1.091  0.00  0.00    +0.000 A 
ATOM     18  C   UNL     1      -4.173  -0.968   0.071  0.00  0.00    +0.000 A 
ATOM     19  H   UNL     1      -5.244  -2.710   0.537  0.00  0.00    +0.000 HD
ATOM     20  H   UNL     1      -5.989  -1.685  -0.653  0.00  0.00    +0.000 HD
ENDBRANCH   9  14
TORSDOF 1
