REMARK  Name = 84584264
REMARK  7 active torsions:
REMARK  status: ('A' for Active; 'I' for Inactive)
REMARK    1  A    between atoms: N_2  and  C_5
REMARK    2  A    between atoms: N_2  and  C_6
REMARK    3  A    between atoms: N_3  and  C_14
REMARK    4  A    between atoms: N_3  and  C_15
REMARK    5  A    between atoms: C_5  and  C_8
REMARK    6  A    between atoms: C_5  and  C_9
REMARK    7  A    between atoms: C_7  and  C_10
REMARK                            x       y       z     vdW  Elec       q    Type
REMARK                         _______ _______ _______ _____ _____    ______ ____
ROOT
ATOM      1  N   UNL     1      -1.561  -1.500   0.086  0.00  0.00    +0.000 NA
ATOM      2  C   UNL     1      -0.679  -0.509  -0.171  0.00  0.00    +0.000 A 
ATOM      3  C   UNL     1       0.685  -0.703  -0.319  0.00  0.00    +0.000 A 
ATOM      4  C   UNL     1       1.175  -1.998  -0.195  0.00  0.00    +0.000 A 
ATOM      5  C   UNL     1       0.298  -3.045   0.068  0.00  0.00    +0.000 A 
ATOM      6  C   UNL     1      -1.048  -2.746   0.199  0.00  0.00    +0.000 A 
ENDROOT
BRANCH   3   9
ATOM      7  O   UNL     1       1.821   0.659  -1.780  0.00  0.00    +0.000 OA
ATOM      8  N   UNL     1       2.197   1.068   0.490  0.00  0.00    +0.000 N 
ATOM      9  C   UNL     1       1.612   0.387  -0.592  0.00  0.00    +0.000 C 
ATOM     10  C   UNL     1       3.120   2.178   0.300  0.00  0.00    +0.000 C 
ATOM     11  C   UNL     1       1.917   0.709   1.879  0.00  0.00    +0.000 C 
ENDBRANCH   3   9
BRANCH   2  12
ATOM     12  N   UNL     1      -1.174   0.778  -0.289  0.00  0.00    +0.000 N 
ATOM     13  H   UNL     1      -0.518   1.538  -0.138  0.00  0.00    +0.000 HD
BRANCH  12  14
ATOM     14  C   UNL     1      -2.575   1.113  -0.157  0.00  0.00    +0.000 C 
ATOM     15  C   UNL     1      -2.839   2.449  -0.839  0.00  0.00    +0.000 C 
ATOM     16  C   UNL     1      -2.949   1.160   1.319  0.00  0.00    +0.000 C 
ENDBRANCH  12  14
ENDBRANCH   2  12
TORSDOF 3
