REMARK  Name = 85795465
REMARK  1 active torsions:
REMARK  status: ('A' for Active; 'I' for Inactive)
REMARK    1  A    between atoms: N_2  and  N_5
REMARK                            x       y       z     vdW  Elec       q    Type
REMARK                         _______ _______ _______ _____ _____    ______ ____
ROOT
ATOM      1  O   UNL     1       1.438   2.077  -0.000  0.00  0.00    +0.000 OA
ATOM      2  N   UNL     1       1.984  -0.191  -0.000  0.00  0.00    +0.000 N 
ATOM      3  N   UNL     1       0.321  -1.871   0.000  0.00  0.00    +0.000 NA
ATOM      4  N   UNL     1      -1.934  -1.278  -0.000  0.00  0.00    +0.000 NA
ATOM      5  C   UNL     1      -0.311   0.503   0.001  0.00  0.00    +0.000 A 
ATOM      6  C   UNL     1      -0.649  -0.851   0.001  0.00  0.00    +0.000 A 
ATOM      7  C   UNL     1       1.116   0.894   0.000  0.00  0.00    +0.000 A 
ATOM      8  C   UNL     1      -1.327   1.456   0.001  0.00  0.00    +0.000 A 
ATOM      9  C   UNL     1       1.560  -1.504   0.000  0.00  0.00    +0.000 A 
ATOM     10  C   UNL     1      -2.650   1.034  -0.000  0.00  0.00    +0.000 A 
ATOM     11  C   UNL     1      -2.898  -0.328  -0.001  0.00  0.00    +0.000 A 
ENDROOT
BRANCH   2  12
ATOM     12  N   UNL     1       3.350   0.059  -0.000  0.00  0.00    +0.000 N 
ATOM     13  H   UNL     1       3.747  -0.403   0.817  0.00  0.00    +0.000 HD
ATOM     14  H   UNL     1       3.747  -0.403  -0.818  0.00  0.00    +0.000 HD
ENDBRANCH   2  12
TORSDOF 1
