REMARK  Name = 85802515
REMARK  3 active torsions:
REMARK  status: ('A' for Active; 'I' for Inactive)
REMARK    1  A    between atoms: O_2  and  N_5
REMARK    2  A    between atoms: N_4  and  C_7
REMARK    3  A    between atoms: C_6  and  C_9
REMARK                            x       y       z     vdW  Elec       q    Type
REMARK                         _______ _______ _______ _____ _____    ______ ____
ROOT
ATOM      1  N   UNL     1      -2.257   0.799  -0.267  0.00  0.00    +0.000 NA
ATOM      2  C   UNL     1      -0.063  -0.137   0.126  0.00  0.00    +0.000 A 
ATOM      3  C   UNL     1      -0.917   0.921  -0.141  0.00  0.00    +0.000 A 
ATOM      4  C   UNL     1      -0.621  -1.402   0.273  0.00  0.00    +0.000 A 
ATOM      5  C   UNL     1      -1.996  -1.568   0.150  0.00  0.00    +0.000 A 
ATOM      6  C   UNL     1      -2.763  -0.446  -0.118  0.00  0.00    +0.000 A 
ENDROOT
BRANCH   2   9
ATOM      7  O   UNL     1       1.852   0.782   1.128  0.00  0.00    +0.000 OA
ATOM      8  N   UNL     1       2.178  -0.681  -0.624  0.00  0.00    +0.000 N 
ATOM      9  C   UNL     1       1.378   0.027   0.260  0.00  0.00    +0.000 C 
ATOM     10  H   UNL     1       1.861  -1.364  -1.303  0.00  0.00    +0.000 HD
BRANCH   8  11
ATOM     11  O   UNL     1       3.564  -0.508  -0.498  0.00  0.00    +0.000 OA
ATOM     12  H   UNL     1       3.712   0.180  -1.169  0.00  0.00    +0.000 HD
ENDBRANCH   8  11
ENDBRANCH   2   9
BRANCH   3  13
ATOM     13  N   UNL     1      -0.356   2.214  -0.289  0.00  0.00    +0.000 N 
ATOM     14  H   UNL     1       0.483   2.442   0.231  0.00  0.00    +0.000 HD
ATOM     15  H   UNL     1      -1.003   2.967  -0.488  0.00  0.00    +0.000 HD
ENDBRANCH   3  13
TORSDOF 3
