REMARK  Name = 85839189
REMARK  2 active torsions:
REMARK  status: ('A' for Active; 'I' for Inactive)
REMARK    1  A    between atoms: N_4  and  C_9
REMARK    2  A    between atoms: C_6  and  C_11
REMARK                            x       y       z     vdW  Elec       q    Type
REMARK                         _______ _______ _______ _____ _____    ______ ____
ROOT
ATOM      1  I   UNL     1       2.755   2.227   0.002  0.00  0.00    +0.000 I 
ATOM      2  N   UNL     1       0.829  -1.690  -0.002  0.00  0.00    +0.000 NA
ATOM      3  C   UNL     1      -0.932  -0.034   0.003  0.00  0.00    +0.000 A 
ATOM      4  C   UNL     1       0.015   0.984   0.003  0.00  0.00    +0.000 A 
ATOM      5  C   UNL     1       1.369   0.666   0.001  0.00  0.00    +0.000 A 
ATOM      6  C   UNL     1       1.720  -0.674  -0.001  0.00  0.00    +0.000 A 
ATOM      7  C   UNL     1      -0.478  -1.343   0.000  0.00  0.00    +0.000 A 
ENDROOT
BRANCH   3  10
ATOM      8  O   UNL     1      -2.772   1.437  -0.010  0.00  0.00    +0.000 OA
ATOM      9  N   UNL     1      -3.243  -0.807   0.003  0.00  0.00    +0.000 N 
ATOM     10  C   UNL     1      -2.354   0.265   0.004  0.00  0.00    +0.000 C 
ATOM     11  H   UNL     1      -2.985  -1.786   0.010  0.00  0.00    +0.000 HD
ATOM     12  H   UNL     1      -4.242  -0.627  -0.003  0.00  0.00    +0.000 HD
ENDBRANCH   3  10
BRANCH   6  13
ATOM     13  N   UNL     1       3.091  -1.031  -0.004  0.00  0.00    +0.000 N 
ATOM     14  H   UNL     1       3.754  -0.384  -0.413  0.00  0.00    +0.000 HD
ATOM     15  H   UNL     1       3.311  -2.019  -0.014  0.00  0.00    +0.000 HD
ENDBRANCH   6  13
TORSDOF 2
