REMARK  Name = 85910361
REMARK  3 active torsions:
REMARK  status: ('A' for Active; 'I' for Inactive)
REMARK    1  A    between atoms: N_3  and  C_8
REMARK    2  A    between atoms: N_4  and  C_11
REMARK    3  A    between atoms: C_7  and  C_11
REMARK                            x       y       z     vdW  Elec       q    Type
REMARK                         _______ _______ _______ _____ _____    ______ ____
ROOT
ATOM      1  N   UNL     1      -2.709   0.635   0.192  0.00  0.00    +0.000 NA
ATOM      2  C   UNL     1      -0.416  -0.080  -0.087  0.00  0.00    +0.000 A 
ATOM      3  C   UNL     1      -1.384   0.892   0.108  0.00  0.00    +0.000 A 
ATOM      4  C   UNL     1      -0.835  -1.401  -0.204  0.00  0.00    +0.000 A 
ATOM      5  C   UNL     1      -2.189  -1.705  -0.124  0.00  0.00    +0.000 A 
ATOM      6  C   UNL     1      -3.078  -0.660   0.073  0.00  0.00    +0.000 A 
ENDROOT
BRANCH   3   7
ATOM      7  N   UNL     1      -0.965   2.241   0.231  0.00  0.00    +0.000 N 
ATOM      8  H   UNL     1      -0.061   2.431   0.644  0.00  0.00    +0.000 HD
ATOM      9  H   UNL     1      -1.696   2.929   0.367  0.00  0.00    +0.000 HD
ENDBRANCH   3   7
BRANCH   2  11
ATOM     10  O   UNL     1       1.384   1.326  -0.618  0.00  0.00    +0.000 OA
ATOM     11  C   UNL     1       1.005   0.228  -0.170  0.00  0.00    +0.000 C 
BRANCH  11  12
ATOM     12  N   UNL     1       1.884  -0.760   0.274  0.00  0.00    +0.000 NA
ATOM     13  N   UNL     1       3.096  -0.480   0.196  0.00  0.00    +0.000 NA
ATOM     14  N   UNL     1       4.208  -0.236   0.130  0.00  0.00    +0.000 NA
ENDBRANCH  11  12
ENDBRANCH   2  11
TORSDOF 3
