REMARK  Name = 86723289
REMARK  4 active torsions:
REMARK  status: ('A' for Active; 'I' for Inactive)
REMARK    1  A    between atoms: C_4  and  C_5
REMARK    2  A    between atoms: C_4  and  C_6
REMARK    3  A    between atoms: C_5  and  C_8
REMARK    4  A    between atoms: C_6  and  C_7
REMARK                            x       y       z     vdW  Elec       q    Type
REMARK                         _______ _______ _______ _____ _____    ______ ____
ROOT
ATOM      1  N   UNL     1       1.947   1.357   0.002  0.00  0.00    +0.000 NA
ATOM      2  N   UNL     1       4.227   0.668   0.000  0.00  0.00    +0.000 N 
ATOM      3  C   UNL     1       0.200  -0.314  -0.000  0.00  0.00    +0.000 A 
ATOM      4  C   UNL     1       1.155  -1.324  -0.003  0.00  0.00    +0.000 A 
ATOM      5  C   UNL     1       0.643   0.999   0.002  0.00  0.00    +0.000 A 
ATOM      6  C   UNL     1       2.506  -0.995  -0.002  0.00  0.00    +0.000 A 
ATOM      7  C   UNL     1       2.847   0.348  -0.000  0.00  0.00    +0.000 A 
ATOM      8  H   UNL     1       4.874   0.010   0.417  0.00  0.00    +0.000 HD
ATOM      9  H   UNL     1       4.471   1.650   0.008  0.00  0.00    +0.000 HD
ENDROOT
BRANCH   3  11
ATOM     10  O   UNL     1      -1.615  -1.810  -0.002  0.00  0.00    +0.000 OA
ATOM     11  C   UNL     1      -1.258  -0.634  -0.001  0.00  0.00    +0.000 C 
BRANCH  11  12
ATOM     12  C   UNL     1      -2.258   0.512   0.002  0.00  0.00    +0.000 C 
BRANCH  12  13
ATOM     13  C   UNL     1      -3.705   0.018   0.016  0.00  0.00    +0.000 C 
ATOM     14  C   UNL     1      -4.690   1.175  -0.014  0.00  0.00    +0.000 C 
ENDBRANCH  12  13
ENDBRANCH  11  12
ENDBRANCH   3  11
TORSDOF 3
