REMARK  Name = 87555284
REMARK  2 active torsions:
REMARK  status: ('A' for Active; 'I' for Inactive)
REMARK    1  A    between atoms: N_6  and  C_11
REMARK    2  A    between atoms: C_8  and  C_13
REMARK                            x       y       z     vdW  Elec       q    Type
REMARK                         _______ _______ _______ _____ _____    ______ ____
ROOT
ATOM      1  N   UNL     1       0.271   1.147  -0.536  0.00  0.00    +0.000 NA
ATOM      2  C   UNL     1      -1.777  -0.045  -0.056  0.00  0.00    +0.000 A 
ATOM      3  C   UNL     1      -1.099  -1.256  -0.136  0.00  0.00    +0.000 A 
ATOM      4  C   UNL     1       0.263  -1.267  -0.415  0.00  0.00    +0.000 A 
ATOM      5  C   UNL     1       0.896  -0.049  -0.605  0.00  0.00    +0.000 A 
ATOM      6  C   UNL     1      -1.053   1.118  -0.263  0.00  0.00    +0.000 A 
ENDROOT
BRANCH   2   9
ATOM      7  O   UNL     1      -3.856  -1.041   0.429  0.00  0.00    +0.000 OA
ATOM      8  N   UNL     1      -3.812   1.248   0.294  0.00  0.00    +0.000 N 
ATOM      9  C   UNL     1      -3.200  -0.001   0.230  0.00  0.00    +0.000 C 
ATOM     10  H   UNL     1      -3.351   2.137   0.150  0.00  0.00    +0.000 HD
ATOM     11  H   UNL     1      -4.805   1.308   0.499  0.00  0.00    +0.000 HD
ENDBRANCH   2   9
BRANCH   5  15
ATOM     12  S   UNL     1       3.347   0.026   0.270  0.00  0.00    +0.000 S 
ATOM     13  O   UNL     1       4.782   0.034   0.030  0.00  0.00    +0.000 OA
ATOM     14  O   UNL     1       2.914   0.129   1.656  0.00  0.00    +0.000 OA
ATOM     15  N   UNL     1       2.325  -0.043  -0.899  0.00  0.00    +0.000 NA
ENDBRANCH   5  15
TORSDOF 2
