REMARK  Name = 87552729
REMARK  2 active torsions:
REMARK  status: ('A' for Active; 'I' for Inactive)
REMARK    1  A    between atoms: N_6  and  C_9
REMARK    2  A    between atoms: C_8  and  C_12
REMARK                            x       y       z     vdW  Elec       q    Type
REMARK                         _______ _______ _______ _____ _____    ______ ____
ROOT
ATOM      1  N   UNL     1      -0.777   1.821  -0.481  0.00  0.00    +0.000 NA
ATOM      2  C   UNL     1      -0.903  -0.553  -0.041  0.00  0.00    +0.000 A 
ATOM      3  C   UNL     1      -0.236   0.582  -0.472  0.00  0.00    +0.000 A 
ATOM      4  C   UNL     1      -2.210  -0.407   0.411  0.00  0.00    +0.000 A 
ATOM      5  C   UNL     1      -2.801   0.851   0.418  0.00  0.00    +0.000 A 
ATOM      6  C   UNL     1      -2.049   1.923  -0.034  0.00  0.00    +0.000 A 
ENDROOT
BRANCH   2   9
ATOM      7  O   UNL     1      -0.367  -2.620  -1.034  0.00  0.00    +0.000 OA
ATOM      8  N   UNL     1       0.395  -2.270   1.101  0.00  0.00    +0.000 N 
ATOM      9  C   UNL     1      -0.292  -1.875  -0.042  0.00  0.00    +0.000 C 
ATOM     10  H   UNL     1       0.474  -1.671   1.916  0.00  0.00    +0.000 HD
ATOM     11  H   UNL     1       0.845  -3.178   1.151  0.00  0.00    +0.000 HD
ENDBRANCH   2   9
BRANCH   3  15
ATOM     12  S   UNL     1       2.314   0.628   0.050  0.00  0.00    +0.000 S 
ATOM     13  O   UNL     1       3.703   0.529  -0.377  0.00  0.00    +0.000 OA
ATOM     14  O   UNL     1       2.081   0.917   1.457  0.00  0.00    +0.000 OA
ATOM     15  N   UNL     1       1.141   0.474  -0.955  0.00  0.00    +0.000 NA
ENDBRANCH   3  15
TORSDOF 2
