REMARK  Name = 87574485
REMARK  4 active torsions:
REMARK  status: ('A' for Active; 'I' for Inactive)
REMARK    1  A    between atoms: N_3  and  C_7
REMARK    2  A    between atoms: N_5  and  C_14
REMARK    3  A    between atoms: C_7  and  C_12
REMARK    4  A    between atoms: C_8  and  C_13
REMARK                            x       y       z     vdW  Elec       q    Type
REMARK                         _______ _______ _______ _____ _____    ______ ____
ROOT
ATOM      1 CL   UNL     1       3.684  -1.513   0.490  0.00  0.00    +0.000 Cl
ATOM      2  N   UNL     1       2.821  -0.231  -0.235  0.00  0.00    +0.000 N 
ATOM      3  N   UNL     1       0.750   0.931  -0.440  0.00  0.00    +0.000 NA
ATOM      4  C   UNL     1       1.405  -0.225  -0.188  0.00  0.00    +0.000 A 
ATOM      5  C   UNL     1      -1.322  -0.263  -0.085  0.00  0.00    +0.000 A 
ATOM      6  C   UNL     1       0.776  -1.421   0.118  0.00  0.00    +0.000 A 
ATOM      7  C   UNL     1      -0.614  -1.432   0.169  0.00  0.00    +0.000 A 
ATOM      8  C   UNL     1      -0.600   0.882  -0.381  0.00  0.00    +0.000 A 
ENDROOT
BRANCH   5  11
ATOM      9  O   UNL     1      -3.429  -1.278  -0.252  0.00  0.00    +0.000 OA
ATOM     10  N   UNL     1      -3.384   0.980   0.274  0.00  0.00    +0.000 N 
ATOM     11  C   UNL     1      -2.774  -0.241  -0.039  0.00  0.00    +0.000 C 
ATOM     12  C   UNL     1      -4.814   1.156   0.380  0.00  0.00    +0.000 C 
ATOM     13  H   UNL     1      -2.813   1.782   0.520  0.00  0.00    +0.000 HD
ENDBRANCH   5  11
BRANCH   2  14
ATOM     14  C   UNL     1       3.596   0.944  -0.541  0.00  0.00    +0.000 C 
ATOM     15  C   UNL     1       3.906   1.711   0.730  0.00  0.00    +0.000 C 
ENDBRANCH   2  14
TORSDOF 2
