REMARK  Name = 87642561
REMARK  5 active torsions:
REMARK  status: ('A' for Active; 'I' for Inactive)
REMARK    1  A    between atoms: S_1  and  C_9
REMARK    2  A    between atoms: N_3  and  C_6
REMARK    3  A    between atoms: N_5  and  C_10
REMARK    4  A    between atoms: C_6  and  C_9
REMARK    5  A    between atoms: C_7  and  C_8
REMARK                            x       y       z     vdW  Elec       q    Type
REMARK                         _______ _______ _______ _____ _____    ______ ____
ROOT
ATOM      1  N   UNL     1      -2.409   1.455   0.070  0.00  0.00    +0.000 NA
ATOM      2  C   UNL     1      -0.861  -0.403   0.061  0.00  0.00    +0.000 A 
ATOM      3  C   UNL     1      -1.165   0.942   0.201  0.00  0.00    +0.000 A 
ATOM      4  C   UNL     1      -1.901  -1.278  -0.232  0.00  0.00    +0.000 A 
ATOM      5  C   UNL     1      -3.195  -0.788  -0.374  0.00  0.00    +0.000 A 
ATOM      6  C   UNL     1      -3.394   0.574  -0.214  0.00  0.00    +0.000 A 
ENDROOT
BRANCH   2   9
ATOM      7  O   UNL     1       0.739  -1.788   1.070  0.00  0.00    +0.000 OA
ATOM      8  N   UNL     1       1.461  -0.431  -0.666  0.00  0.00    +0.000 N 
ATOM      9  C   UNL     1       0.490  -0.926   0.210  0.00  0.00    +0.000 C 
ATOM     10  H   UNL     1       1.194   0.272  -1.350  0.00  0.00    +0.000 HD
BRANCH   8  11
ATOM     11  C   UNL     1       2.839  -0.868  -0.659  0.00  0.00    +0.000 C 
BRANCH  11  12
ATOM     12  C   UNL     1       3.722  -0.039   0.264  0.00  0.00    +0.000 C 
BRANCH  12  13
ATOM     13  S   UNL     1       3.784   1.710  -0.233  0.00  0.00    +0.000 S 
ATOM     14  H   UNL     1       4.607   2.116   0.745  0.00  0.00    +0.000 HD
ENDBRANCH  12  13
ENDBRANCH  11  12
ENDBRANCH   8  11
ENDBRANCH   2   9
BRANCH   3  15
ATOM     15  N   UNL     1      -0.109   1.840   0.502  0.00  0.00    +0.000 N 
ATOM     16  H   UNL     1       0.677   1.502   1.042  0.00  0.00    +0.000 HD
ATOM     17  H   UNL     1      -0.359   2.817   0.596  0.00  0.00    +0.000 HD
ENDBRANCH   3  15
TORSDOF 5
