REMARK  Name = 87697460
REMARK  3 active torsions:
REMARK  status: ('A' for Active; 'I' for Inactive)
REMARK    1  A    between atoms: S_1  and  C_11
REMARK    2  A    between atoms: C_5  and  C_7
REMARK    3  A    between atoms: C_7  and  C_11
REMARK                            x       y       z     vdW  Elec       q    Type
REMARK                         _______ _______ _______ _____ _____    ______ ____
ROOT
ATOM      1  N   UNL     1       1.705   1.273  -0.001  0.00  0.00    +0.000 NA
ATOM      2  N   UNL     1       3.885   0.312  -0.000  0.00  0.00    +0.000 N 
ATOM      3  C   UNL     1      -0.232  -0.173   0.000  0.00  0.00    +0.000 A 
ATOM      4  C   UNL     1       0.594  -1.292   0.002  0.00  0.00    +0.000 A 
ATOM      5  C   UNL     1       0.368   1.076  -0.001  0.00  0.00    +0.000 A 
ATOM      6  C   UNL     1       1.975  -1.129   0.001  0.00  0.00    +0.000 A 
ATOM      7  C   UNL     1       2.476   0.163   0.000  0.00  0.00    +0.000 A 
ATOM      8  H   UNL     1       4.447  -0.419   0.419  0.00  0.00    +0.000 HD
ATOM      9  H   UNL     1       4.247   1.257   0.005  0.00  0.00    +0.000 HD
ENDROOT
BRANCH   3  11
ATOM     10  O   UNL     1      -2.204  -1.443  -0.004  0.00  0.00    +0.000 OA
ATOM     11  C   UNL     1      -1.678  -0.310   0.001  0.00  0.00    +0.000 C 
BRANCH  11  12
ATOM     12  C   UNL     1      -2.558   0.950  -0.001  0.00  0.00    +0.000 C 
BRANCH  12  13
ATOM     13  S   UNL     1      -4.332   0.576   0.002  0.00  0.00    +0.000 S 
ATOM     14  H   UNL     1      -4.756   1.848   0.001  0.00  0.00    +0.000 HD
ENDBRANCH  12  13
ENDBRANCH  11  12
ENDBRANCH   3  11
TORSDOF 3
