REMARK  Name = 87872956
REMARK  5 active torsions:
REMARK  status: ('A' for Active; 'I' for Inactive)
REMARK    1  A    between atoms: O_1  and  N_4
REMARK    2  A    between atoms: O_1  and  C_13
REMARK    3  A    between atoms: N_4  and  C_8
REMARK    4  A    between atoms: C_7  and  C_11
REMARK    5  A    between atoms: C_13  and  C_14
REMARK                            x       y       z     vdW  Elec       q    Type
REMARK                         _______ _______ _______ _____ _____    ______ ____
ROOT
ATOM      1  N   UNL     1      -0.442   1.861   0.005  0.00  0.00    +0.000 NA
ATOM      2  C   UNL     1      -1.488  -0.318   0.013  0.00  0.00    +0.000 A 
ATOM      3  C   UNL     1      -0.379   0.511  -0.029  0.00  0.00    +0.000 A 
ATOM      4  C   UNL     1      -2.743   0.276   0.094  0.00  0.00    +0.000 A 
ATOM      5  C   UNL     1      -2.848   1.662   0.130  0.00  0.00    +0.000 A 
ATOM      6  C   UNL     1      -1.678   2.403   0.084  0.00  0.00    +0.000 A 
ENDROOT
BRANCH   2   9
ATOM      7  O   UNL     1      -1.302  -2.438   1.023  0.00  0.00    +0.000 OA
ATOM      8  N   UNL     1      -1.411  -2.390  -1.267  0.00  0.00    +0.000 N 
ATOM      9  C   UNL     1      -1.388  -1.771  -0.021  0.00  0.00    +0.000 C 
ATOM     10  H   UNL     1      -1.488  -1.862  -2.130  0.00  0.00    +0.000 HD
ATOM     11  H   UNL     1      -1.351  -3.400  -1.349  0.00  0.00    +0.000 HD
ENDBRANCH   2   9
BRANCH   3  12
ATOM     12  N   UNL     1       0.904  -0.088  -0.108  0.00  0.00    +0.000 N 
ATOM     13  H   UNL     1       0.940  -1.032  -0.479  0.00  0.00    +0.000 HD
BRANCH  12  14
ATOM     14  O   UNL     1       2.042   0.650  -0.330  0.00  0.00    +0.000 OA
BRANCH  14  16
ATOM     15  O   UNL     1       3.202  -1.148   0.550  0.00  0.00    +0.000 OA
ATOM     16  C   UNL     1       3.161  -0.028   0.059  0.00  0.00    +0.000 C 
ATOM     17  C   UNL     1       4.371   0.818  -0.203  0.00  0.00    +0.000 C 
ENDBRANCH  14  16
ENDBRANCH  12  14
ENDBRANCH   3  12
TORSDOF 4
