REMARK  Name = 88257803
REMARK  1 active torsions:
REMARK  status: ('A' for Active; 'I' for Inactive)
REMARK    1  A    between atoms: C_5  and  C_8
REMARK                            x       y       z     vdW  Elec       q    Type
REMARK                         _______ _______ _______ _____ _____    ______ ____
ROOT
ATOM      1  N   UNL     1      -2.012   1.402  -0.180  0.00  0.00    +0.000 NA
ATOM      2  C   UNL     1      -0.171  -0.159  -0.041  0.00  0.00    +0.000 A 
ATOM      3  C   UNL     1      -1.060  -1.198   0.209  0.00  0.00    +0.000 A 
ATOM      4  C   UNL     1      -0.693   1.111  -0.227  0.00  0.00    +0.000 A 
ATOM      5  C   UNL     1      -2.425  -0.939   0.264  0.00  0.00    +0.000 A 
ATOM      6  C   UNL     1      -2.846   0.366   0.065  0.00  0.00    +0.000 A 
ENDROOT
BRANCH   2  10
ATOM      7  I   UNL     1       4.150   0.657   0.220  0.00  0.00    +0.000 I 
ATOM      8  O   UNL     1       1.699  -1.519  -0.421  0.00  0.00    +0.000 OA
ATOM      9  N   UNL     1       2.098   0.675   0.217  0.00  0.00    +0.000 N 
ATOM     10  C   UNL     1       1.260  -0.398  -0.106  0.00  0.00    +0.000 C 
ATOM     11  H   UNL     1       1.708   1.559   0.528  0.00  0.00    +0.000 HD
ENDBRANCH   2  10
TORSDOF 1
