REMARK  Name = 88386260
REMARK  7 active torsions:
REMARK  status: ('A' for Active; 'I' for Inactive)
REMARK    1  A    between atoms: C_5  and  C_6
REMARK    2  A    between atoms: C_5  and  C_7
REMARK    3  A    between atoms: C_5  and  C_9
REMARK    4  A    between atoms: C_8  and  C_14
REMARK    5  A    between atoms: C_13  and  C_15
REMARK    6  A    between atoms: C_16  and  C_17
REMARK    7  A    between atoms: C_17  and  C_18
REMARK                            x       y       z     vdW  Elec       q    Type
REMARK                         _______ _______ _______ _____ _____    ______ ____
ROOT
ATOM      1  N   UNL     1       3.394  -1.106   1.197  0.00  0.00    +0.000 NA
ATOM      2  N   UNL     1       3.076  -3.277   0.269  0.00  0.00    +0.000 N 
ATOM      3  C   UNL     1       1.362  -0.123  -0.451  0.00  0.00    +0.000 A 
ATOM      4  C   UNL     1       2.025   0.731   0.424  0.00  0.00    +0.000 A 
ATOM      5  C   UNL     1       1.714  -1.467  -0.503  0.00  0.00    +0.000 A 
ATOM      6  C   UNL     1       2.728  -1.905   0.334  0.00  0.00    +0.000 A 
ATOM      7  C   UNL     1       3.025   0.194   1.220  0.00  0.00    +0.000 A 
ATOM      8  H   UNL     1       2.364  -3.942  -0.008  0.00  0.00    +0.000 HD
ATOM      9  H   UNL     1       3.813  -3.593   0.887  0.00  0.00    +0.000 HD
ENDROOT
BRANCH   4  12
ATOM     10  O   UNL     1       2.257   2.990  -0.197  0.00  0.00    +0.000 OA
ATOM     11  N   UNL     1       0.722   2.521   1.441  0.00  0.00    +0.000 N 
ATOM     12  C   UNL     1       1.698   2.144   0.523  0.00  0.00    +0.000 C 
ATOM     13  H   UNL     1       0.247   1.845   2.030  0.00  0.00    +0.000 HD
ATOM     14  H   UNL     1       0.451   3.493   1.545  0.00  0.00    +0.000 HD
ENDBRANCH   4  12
BRANCH   3  15
ATOM     15  C   UNL     1       0.254   0.387  -1.358  0.00  0.00    +0.000 C 
ATOM     16  C   UNL     1       0.613   0.267  -2.844  0.00  0.00    +0.000 C 
BRANCH  15  17
ATOM     17  C   UNL     1      -1.056  -0.313  -1.075  0.00  0.00    +0.000 C 
ATOM     18  C   UNL     1      -2.162   0.322  -0.658  0.00  0.00    +0.000 C 
BRANCH  18  19
ATOM     19  C   UNL     1      -3.410  -0.356  -0.392  0.00  0.00    +0.000 C 
ATOM     20  C   UNL     1      -4.516   0.278   0.024  0.00  0.00    +0.000 C 
BRANCH  20  21
ATOM     21  C   UNL     1      -5.818  -0.415   0.299  0.00  0.00    +0.000 C 
ATOM     22  C   UNL     1      -5.908  -0.874   1.746  0.00  0.00    +0.000 C 
ENDBRANCH  20  21
ENDBRANCH  18  19
ENDBRANCH  15  17
ENDBRANCH   3  15
TORSDOF 5
