REMARK  Name = 88386261
REMARK  7 active torsions:
REMARK  status: ('A' for Active; 'I' for Inactive)
REMARK    1  A    between atoms: N_2  and  C_6
REMARK    2  A    between atoms: C_5  and  C_9
REMARK    3  A    between atoms: C_5  and  C_13
REMARK    4  A    between atoms: C_6  and  C_10
REMARK    5  A    between atoms: C_7  and  C_8
REMARK    6  A    between atoms: C_7  and  C_14
REMARK    7  A    between atoms: C_11  and  C_12
REMARK                            x       y       z     vdW  Elec       q    Type
REMARK                         _______ _______ _______ _____ _____    ______ ____
ROOT
ATOM      1  O   UNL     1       0.389  -0.846  -1.165  0.00  0.00    +0.000 OA
ATOM      2  N   UNL     1       0.154   0.735   0.516  0.00  0.00    +0.000 N 
ATOM      3  C   UNL     1       0.884  -0.075  -0.347  0.00  0.00    +0.000 C 
ATOM      4  H   UNL     1       0.629   1.298   1.215  0.00  0.00    +0.000 HD
ENDROOT
BRANCH   3   7
ATOM      5  N   UNL     1       4.516  -1.061  -0.493  0.00  0.00    +0.000 NA
ATOM      6  N   UNL     1       6.495   0.139   0.074  0.00  0.00    +0.000 N 
ATOM      7  C   UNL     1       2.363   0.005  -0.227  0.00  0.00    +0.000 A 
ATOM      8  C   UNL     1       2.983   1.158   0.240  0.00  0.00    +0.000 A 
ATOM      9  C   UNL     1       3.167  -1.067  -0.577  0.00  0.00    +0.000 A 
ATOM     10  C   UNL     1       4.369   1.204   0.342  0.00  0.00    +0.000 A 
ATOM     11  C   UNL     1       5.084   0.078  -0.034  0.00  0.00    +0.000 A 
ATOM     12  H   UNL     1       7.014  -0.683  -0.207  0.00  0.00    +0.000 HD
ATOM     13  H   UNL     1       6.946   1.042  -0.009  0.00  0.00    +0.000 HD
ENDBRANCH   3   7
BRANCH   2  14
ATOM     14  C   UNL     1      -1.282   0.752   0.538  0.00  0.00    +0.000 C 
BRANCH  14  16
ATOM     15  C   UNL     1      -2.948  -0.900   1.399  0.00  0.00    +0.000 C 
ATOM     16  C   UNL     1      -1.766  -0.273   1.514  0.00  0.00    +0.000 C 
BRANCH  15  17
ATOM     17  C   UNL     1      -3.943  -0.709   0.343  0.00  0.00    +0.000 C 
ATOM     18  C   UNL     1      -4.178   0.542  -0.106  0.00  0.00    +0.000 C 
ATOM     19  C   UNL     1      -4.663  -1.928  -0.172  0.00  0.00    +0.000 C 
BRANCH  18  20
ATOM     20  C   UNL     1      -5.119   0.971  -1.197  0.00  0.00    +0.000 C 
ATOM     21  C   UNL     1      -6.503   1.276  -0.649  0.00  0.00    +0.000 C 
ENDBRANCH  18  20
ENDBRANCH  15  17
ENDBRANCH  14  16
ENDBRANCH   2  14
TORSDOF 5
