REMARK  Name = 88687373
REMARK  4 active torsions:
REMARK  status: ('A' for Active; 'I' for Inactive)
REMARK    1  A    between atoms: N_2  and  C_7
REMARK    2  A    between atoms: N_4  and  C_7
REMARK    3  A    between atoms: C_5  and  C_6
REMARK    4  A    between atoms: C_10  and  C_12
REMARK                            x       y       z     vdW  Elec       q    Type
REMARK                         _______ _______ _______ _____ _____    ______ ____
ROOT
ATOM      1  O   UNL     1       0.317   1.948  -0.311  0.00  0.00    +0.000 OA
ATOM      2  N   UNL     1       1.140  -0.213   0.027  0.00  0.00    +0.000 N 
ATOM      3  C   UNL     1       0.145   0.746  -0.131  0.00  0.00    +0.000 C 
ATOM      4  H   UNL     1       0.868  -1.173   0.220  0.00  0.00    +0.000 HD
ENDROOT
BRANCH   3   6
ATOM      5  N   UNL     1      -2.792  -1.605  -0.320  0.00  0.00    +0.000 NA
ATOM      6  C   UNL     1      -1.247   0.234  -0.046  0.00  0.00    +0.000 A 
ATOM      7  C   UNL     1      -2.289   1.057   0.367  0.00  0.00    +0.000 A 
ATOM      8  C   UNL     1      -1.549  -1.077  -0.376  0.00  0.00    +0.000 A 
ATOM      9  C   UNL     1      -3.582   0.550   0.438  0.00  0.00    +0.000 A 
ATOM     10  C   UNL     1      -3.779  -0.775   0.087  0.00  0.00    +0.000 A 
ENDBRANCH   3   6
BRANCH   2  11
ATOM     11  C   UNL     1       2.514   0.027   0.009  0.00  0.00    +0.000 C 
ATOM     12  C   UNL     1       3.297  -1.058   0.212  0.00  0.00    +0.000 C 
ATOM     13  C   UNL     1       4.792  -1.114   0.247  0.00  0.00    +0.000 C 
BRANCH  11  14
ATOM     14  N   UNL     1       3.033   1.280  -0.203  0.00  0.00    +0.000 N 
ATOM     15  H   UNL     1       4.030   1.439  -0.215  0.00  0.00    +0.000 HD
ATOM     16  H   UNL     1       2.402   2.057  -0.353  0.00  0.00    +0.000 HD
ENDBRANCH  11  14
ENDBRANCH   2  11
TORSDOF 3
