REMARK  Name = 88687856
REMARK  6 active torsions:
REMARK  status: ('A' for Active; 'I' for Inactive)
REMARK    1  A    between atoms: N_2  and  C_7
REMARK    2  A    between atoms: N_3  and  C_7
REMARK    3  A    between atoms: C_5  and  C_6
REMARK    4  A    between atoms: C_5  and  C_8
REMARK    5  A    between atoms: C_6  and  C_9
REMARK    6  A    between atoms: C_10  and  C_11
REMARK                            x       y       z     vdW  Elec       q    Type
REMARK                         _______ _______ _______ _____ _____    ______ ____
ROOT
ATOM      1  O   UNL     1      -0.450  -2.147  -0.252  0.00  0.00    +0.000 OA
ATOM      2  N   UNL     1       0.568  -0.075   0.132  0.00  0.00    +0.000 N 
ATOM      3  C   UNL     1      -0.509  -0.936  -0.060  0.00  0.00    +0.000 C 
ATOM      4  H   UNL     1       0.362   0.895   0.339  0.00  0.00    +0.000 HD
ENDROOT
BRANCH   3   6
ATOM      5  N   UNL     1      -3.185   1.691  -0.423  0.00  0.00    +0.000 NA
ATOM      6  C   UNL     1      -1.845  -0.287  -0.049  0.00  0.00    +0.000 A 
ATOM      7  C   UNL     1      -2.983  -0.995   0.323  0.00  0.00    +0.000 A 
ATOM      8  C   UNL     1      -1.999   1.042  -0.411  0.00  0.00    +0.000 A 
ATOM      9  C   UNL     1      -4.221  -0.362   0.323  0.00  0.00    +0.000 A 
ATOM     10  C   UNL     1      -4.268   0.970  -0.055  0.00  0.00    +0.000 A 
ENDBRANCH   3   6
BRANCH   2  12
ATOM     11  C   UNL     1       2.842   0.546   0.346  0.00  0.00    +0.000 C 
ATOM     12  C   UNL     1       1.917  -0.437   0.142  0.00  0.00    +0.000 C 
ATOM     13  C   UNL     1       2.486   2.004   0.552  0.00  0.00    +0.000 C 
BRANCH  12  14
ATOM     14  N   UNL     1       2.285  -1.750  -0.041  0.00  0.00    +0.000 N 
ATOM     15  H   UNL     1       3.259  -2.020  -0.071  0.00  0.00    +0.000 HD
ATOM     16  H   UNL     1       1.571  -2.450  -0.191  0.00  0.00    +0.000 HD
ENDBRANCH  12  14
BRANCH  11  17
ATOM     17  C   UNL     1       4.346   0.314   0.418  0.00  0.00    +0.000 C 
ATOM     18  C   UNL     1       5.014   0.423  -0.946  0.00  0.00    +0.000 C 
ENDBRANCH  11  17
ENDBRANCH   2  12
TORSDOF 4
