REMARK  Name = 88758244
REMARK  0 active torsions:
REMARK  status: ('A' for Active; 'I' for Inactive)
REMARK                            x       y       z     vdW  Elec       q    Type
REMARK                         _______ _______ _______ _____ _____    ______ ____
ROOT
ATOM      1 CL   UNL     1      -3.296   1.124   0.000  0.00  0.00    +0.000 Cl
ATOM      2 CL   UNL     1      -2.991  -1.982  -0.000  0.00  0.00    +0.000 Cl
ATOM      3  O   UNL     1      -0.639   2.499  -0.000  0.00  0.00    +0.000 OA
ATOM      4  N   UNL     1      -1.709   0.421   0.000  0.00  0.00    +0.000 N 
ATOM      5  N   UNL     1      -0.459  -1.589   0.000  0.00  0.00    +0.000 NA
ATOM      6  N   UNL     1       1.869  -1.529   0.000  0.00  0.00    +0.000 NA
ATOM      7  C   UNL     1       0.694   0.571   0.000  0.00  0.00    +0.000 A 
ATOM      8  C   UNL     1       0.715  -0.820   0.000  0.00  0.00    +0.000 A 
ATOM      9  C   UNL     1      -0.605   1.272  -0.000  0.00  0.00    +0.000 A 
ATOM     10  C   UNL     1       1.900   1.269   0.000  0.00  0.00    +0.000 A 
ATOM     11  C   UNL     1      -1.596  -0.967   0.000  0.00  0.00    +0.000 A 
ATOM     12  C   UNL     1       3.093   0.557   0.000  0.00  0.00    +0.000 A 
ATOM     13  C   UNL     1       3.024  -0.826   0.000  0.00  0.00    +0.000 A 
ENDROOT
TORSDOF 0
