REMARK  Name = 88995807
REMARK  3 active torsions:
REMARK  status: ('A' for Active; 'I' for Inactive)
REMARK    1  A    between atoms: N_3  and  C_8
REMARK    2  A    between atoms: N_5  and  C_14
REMARK    3  A    between atoms: C_7  and  C_11
REMARK                            x       y       z     vdW  Elec       q    Type
REMARK                         _______ _______ _______ _____ _____    ______ ____
ROOT
ATOM      1  N   UNL     1      -0.267   1.769  -0.014  0.00  0.00    +0.000 NA
ATOM      2  C   UNL     1      -1.480  -0.322   0.023  0.00  0.00    +0.000 A 
ATOM      3  C   UNL     1      -0.309   0.418   0.007  0.00  0.00    +0.000 A 
ATOM      4  C   UNL     1      -2.687   0.369   0.018  0.00  0.00    +0.000 A 
ATOM      5  C   UNL     1      -2.685   1.760  -0.004  0.00  0.00    +0.000 A 
ATOM      6  C   UNL     1      -1.459   2.406  -0.019  0.00  0.00    +0.000 A 
ENDROOT
BRANCH   3   8
ATOM      7  O   UNL     1       2.503   1.465  -0.019  0.00  0.00    +0.000 OA
ATOM      8  N   UNL     1       0.915  -0.267   0.013  0.00  0.00    +0.000 N 
ATOM      9  N   UNL     1       3.170  -0.748   0.012  0.00  0.00    +0.000 N 
ATOM     10  C   UNL     1       2.213   0.272   0.000  0.00  0.00    +0.000 C 
ATOM     11  C   UNL     1       4.593  -0.494   0.004  0.00  0.00    +0.000 C 
ATOM     12  H   UNL     1       0.867  -1.282   0.029  0.00  0.00    +0.000 HD
ATOM     13  H   UNL     1       2.857  -1.713  -0.017  0.00  0.00    +0.000 HD
ENDBRANCH   3   8
BRANCH   2  16
ATOM     14  O   UNL     1      -1.511  -2.409   1.114  0.00  0.00    +0.000 OA
ATOM     15  N   UNL     1      -1.503  -2.441  -1.179  0.00  0.00    +0.000 N 
ATOM     16  C   UNL     1      -1.493  -1.778   0.044  0.00  0.00    +0.000 C 
ATOM     17  H   UNL     1      -1.496  -1.942  -2.063  0.00  0.00    +0.000 HD
ATOM     18  H   UNL     1      -1.518  -3.455  -1.223  0.00  0.00    +0.000 HD
ENDBRANCH   2  16
TORSDOF 2
