REMARK  Name = 89050714
REMARK  4 active torsions:
REMARK  status: ('A' for Active; 'I' for Inactive)
REMARK    1  A    between atoms: N_7  and  C_19
REMARK    2  A    between atoms: C_8  and  C_18
REMARK    3  A    between atoms: C_9  and  C_19
REMARK    4  A    between atoms: C_11  and  C_20
REMARK                            x       y       z     vdW  Elec       q    Type
REMARK                         _______ _______ _______ _____ _____    ______ ____
ROOT
ATOM      1  N   UNL     1      -2.477  -3.011  -0.155  0.00  0.00    +0.000 NA
ATOM      2  C   UNL     1      -0.839  -1.239  -0.008  0.00  0.00    +0.000 A 
ATOM      3  C   UNL     1      -3.183  -0.715   0.120  0.00  0.00    +0.000 A 
ATOM      4  C   UNL     1      -1.856  -0.300   0.126  0.00  0.00    +0.000 A 
ATOM      5  C   UNL     1      -3.438  -2.070  -0.022  0.00  0.00    +0.000 A 
ATOM      6  C   UNL     1      -1.199  -2.570  -0.144  0.00  0.00    +0.000 A 
ENDROOT
BRANCH   3   8
ATOM      7  O   UNL     1      -5.445  -0.184   0.254  0.00  0.00    +0.000 OA
ATOM      8  C   UNL     1      -4.268   0.240   0.258  0.00  0.00    +0.000 C 
BRANCH   8  11
ATOM      9  S   UNL     1      -4.585   2.629  -0.607  0.00  0.00    +0.000 S 
ATOM     10  O   UNL     1      -4.245   4.046  -0.295  0.00  0.00    +0.000 OA
ATOM     11  N   UNL     1      -4.032   1.654   0.407  0.00  0.00    +0.000 NA
ENDBRANCH   8  11
ENDBRANCH   3   8
BRANCH   2  12
ATOM     12  C   UNL     1       0.535  -0.844  -0.005  0.00  0.00    +0.000 C 
ATOM     13  C   UNL     1       1.690  -0.511  -0.004  0.00  0.00    +0.000 C 
BRANCH  13  16
ATOM     14  N   UNL     1       4.707   1.628   0.299  0.00  0.00    +0.000 NA
ATOM     15  N   UNL     1       7.019   1.116   0.028  0.00  0.00    +0.000 N 
ATOM     16  C   UNL     1       3.061  -0.117  -0.002  0.00  0.00    +0.000 A 
ATOM     17  C   UNL     1       4.070  -1.031  -0.282  0.00  0.00    +0.000 A 
ATOM     18  C   UNL     1       5.397  -0.618  -0.272  0.00  0.00    +0.000 A 
ATOM     19  C   UNL     1       5.661   0.711   0.022  0.00  0.00    +0.000 A 
ATOM     20  C   UNL     1       3.429   1.189   0.280  0.00  0.00    +0.000 A 
ATOM     21  H   UNL     1       7.726   0.427   0.251  0.00  0.00    +0.000 HD
ATOM     22  H   UNL     1       7.207   2.086   0.249  0.00  0.00    +0.000 HD
ENDBRANCH  13  16
ENDBRANCH   2  12
TORSDOF 4
