REMARK  Name = 89050715
REMARK  2 active torsions:
REMARK  status: ('A' for Active; 'I' for Inactive)
REMARK    1  A    between atoms: N_6  and  C_12
REMARK    2  A    between atoms: C_7  and  C_12
REMARK                            x       y       z     vdW  Elec       q    Type
REMARK                         _______ _______ _______ _____ _____    ______ ____
ROOT
ATOM      1  N   UNL     1       1.805   1.365   0.165  0.00  0.00    +0.000 NA
ATOM      2  N   UNL     1       4.101   0.817  -0.159  0.00  0.00    +0.000 N 
ATOM      3  C   UNL     1       0.145  -0.391   0.108  0.00  0.00    +0.000 A 
ATOM      4  C   UNL     1       1.139  -1.334  -0.128  0.00  0.00    +0.000 A 
ATOM      5  C   UNL     1       2.466  -0.929  -0.217  0.00  0.00    +0.000 A 
ATOM      6  C   UNL     1       2.744   0.420  -0.065  0.00  0.00    +0.000 A 
ATOM      7  C   UNL     1       0.527   0.934   0.246  0.00  0.00    +0.000 A 
ATOM      8  H   UNL     1       4.818   0.149   0.097  0.00  0.00    +0.000 HD
ATOM      9  H   UNL     1       4.301   1.803  -0.041  0.00  0.00    +0.000 HD
ENDROOT
BRANCH   3  11
ATOM     10  O   UNL     1      -1.543  -1.993   0.082  0.00  0.00    +0.000 OA
ATOM     11  C   UNL     1      -1.250  -0.783   0.207  0.00  0.00    +0.000 C 
BRANCH  11  14
ATOM     12  S   UNL     1      -3.418   0.347  -0.551  0.00  0.00    +0.000 S 
ATOM     13  O   UNL     1      -4.415   1.374  -0.138  0.00  0.00    +0.000 OA
ATOM     14  N   UNL     1      -2.301   0.172   0.451  0.00  0.00    +0.000 NA
ENDBRANCH  11  14
ENDBRANCH   3  11
TORSDOF 2
