REMARK  Name = 89166023
REMARK  3 active torsions:
REMARK  status: ('A' for Active; 'I' for Inactive)
REMARK    1  A    between atoms: N_2  and  C_7
REMARK    2  A    between atoms: C_5  and  C_7
REMARK    3  A    between atoms: C_9  and  C_11
REMARK                            x       y       z     vdW  Elec       q    Type
REMARK                         _______ _______ _______ _____ _____    ______ ____
ROOT
ATOM      1  O   UNL     1      -0.916   1.916  -0.410  0.00  0.00    +0.000 OA
ATOM      2  C   UNL     1      -0.664   0.716  -0.461  0.00  0.00    +0.000 C 
ENDROOT
BRANCH   2   3
ATOM      3  N   UNL     1      -1.580  -0.281  -0.711  0.00  0.00    +0.000 NA
ATOM      4  N   UNL     1      -3.627  -1.333   0.012  0.00  0.00    +0.000 N 
ATOM      5  C   UNL     1      -2.611  -0.407   0.069  0.00  0.00    +0.000 C 
ATOM      6  C   UNL     1      -2.708   0.583   1.210  0.00  0.00    +0.000 C 
ATOM      7  H   UNL     1      -4.391  -1.342   0.679  0.00  0.00    +0.000 HD
ATOM      8  H   UNL     1      -3.643  -2.041  -0.714  0.00  0.00    +0.000 HD
ENDBRANCH   2   3
BRANCH   2  10
ATOM      9  N   UNL     1       2.293  -1.574   0.026  0.00  0.00    +0.000 NA
ATOM     10  C   UNL     1       0.729   0.256  -0.195  0.00  0.00    +0.000 A 
ATOM     11  C   UNL     1       1.745   1.167   0.071  0.00  0.00    +0.000 A 
ATOM     12  C   UNL     1       1.051  -1.091  -0.206  0.00  0.00    +0.000 A 
ATOM     13  C   UNL     1       3.035   0.708   0.315  0.00  0.00    +0.000 A 
ATOM     14  C   UNL     1       3.255  -0.659   0.281  0.00  0.00    +0.000 A 
ENDBRANCH   2  10
TORSDOF 2
