REMARK  Name = 89187297
REMARK  3 active torsions:
REMARK  status: ('A' for Active; 'I' for Inactive)
REMARK    1  A    between atoms: N_2  and  C_6
REMARK    2  A    between atoms: N_4  and  C_11
REMARK    3  A    between atoms: C_7  and  C_10
REMARK                            x       y       z     vdW  Elec       q    Type
REMARK                         _______ _______ _______ _____ _____    ______ ____
ROOT
ATOM      1  O   UNL     1      -0.201  -1.883  -0.299  0.00  0.00    +0.000 OA
ATOM      2  N   UNL     1       0.460   0.351   0.022  0.00  0.00    +0.000 N 
ATOM      3  C   UNL     1      -0.459  -0.695  -0.138  0.00  0.00    +0.000 C 
ATOM      4  H   UNL     1       0.097   1.285   0.189  0.00  0.00    +0.000 HD
ENDROOT
BRANCH   3   7
ATOM      5  N   UNL     1      -4.180  -0.906   0.415  0.00  0.00    +0.000 NA
ATOM      6  N   UNL     1      -5.906   0.713   0.134  0.00  0.00    +0.000 N 
ATOM      7  C   UNL     1      -1.891  -0.300  -0.074  0.00  0.00    +0.000 A 
ATOM      8  C   UNL     1      -2.297   0.983  -0.423  0.00  0.00    +0.000 A 
ATOM      9  C   UNL     1      -2.863  -1.200   0.335  0.00  0.00    +0.000 A 
ATOM     10  C   UNL     1      -3.644   1.323  -0.353  0.00  0.00    +0.000 A 
ATOM     11  C   UNL     1      -4.537   0.351   0.069  0.00  0.00    +0.000 A 
ATOM     12  H   UNL     1      -6.140   1.683   0.303  0.00  0.00    +0.000 HD
ATOM     13  H   UNL     1      -6.554   0.001   0.449  0.00  0.00    +0.000 HD
ENDBRANCH   3   7
BRANCH   2  14
ATOM     14  C   UNL     1       1.853   0.277   0.031  0.00  0.00    +0.000 A 
ATOM     15  C   UNL     1       2.486  -0.956  -0.131  0.00  0.00    +0.000 A 
ATOM     16  C   UNL     1       2.612   1.434   0.204  0.00  0.00    +0.000 A 
ATOM     17  C   UNL     1       4.638   0.128   0.051  0.00  0.00    +0.000 A 
ATOM     18  C   UNL     1       3.879  -1.030  -0.121  0.00  0.00    +0.000 A 
ATOM     19  C   UNL     1       4.005   1.359   0.214  0.00  0.00    +0.000 A 
BRANCH  17  20
ATOM     20  N   UNL     1       6.046   0.051   0.062  0.00  0.00    +0.000 N 
ATOM     21  H   UNL     1       6.506  -0.841  -0.057  0.00  0.00    +0.000 HD
ATOM     22  H   UNL     1       6.598   0.890   0.186  0.00  0.00    +0.000 HD
ENDBRANCH  17  20
ENDBRANCH   2  14
TORSDOF 3
