REMARK  Name = 89240829
REMARK  1 active torsions:
REMARK  status: ('A' for Active; 'I' for Inactive)
REMARK    1  A    between atoms: C_6  and  C_11
REMARK                            x       y       z     vdW  Elec       q    Type
REMARK                         _______ _______ _______ _____ _____    ______ ____
ROOT
ATOM      1  N   UNL     1       1.988   1.087   0.243  0.00  0.00    +0.000 NA
ATOM      2  N   UNL     1       3.885  -0.346   0.092  0.00  0.00    +0.000 N 
ATOM      3  C   UNL     1      -0.226   0.164  -0.059  0.00  0.00    +0.000 A 
ATOM      4  C   UNL     1       0.320  -1.099  -0.259  0.00  0.00    +0.000 A 
ATOM      5  C   UNL     1       1.699  -1.270  -0.208  0.00  0.00    +0.000 A 
ATOM      6  C   UNL     1       0.643   1.214   0.187  0.00  0.00    +0.000 A 
ATOM      7  C   UNL     1       2.482  -0.155   0.043  0.00  0.00    +0.000 A 
ATOM      8  H   UNL     1       4.239  -1.252   0.372  0.00  0.00    +0.000 HD
ATOM      9  H   UNL     1       4.453   0.470   0.282  0.00  0.00    +0.000 HD
ENDROOT
BRANCH   3  13
ATOM     10  I   UNL     1      -4.526  -0.740   0.251  0.00  0.00    +0.000 I 
ATOM     11  O   UNL     1      -2.128   1.488  -0.408  0.00  0.00    +0.000 OA
ATOM     12  N   UNL     1      -2.474  -0.717   0.223  0.00  0.00    +0.000 N 
ATOM     13  C   UNL     1      -1.663   0.375  -0.105  0.00  0.00    +0.000 C 
ATOM     14  H   UNL     1      -2.063  -1.594   0.525  0.00  0.00    +0.000 HD
ENDBRANCH   3  13
TORSDOF 1
