REMARK  Name = 89494598
REMARK  5 active torsions:
REMARK  status: ('A' for Active; 'I' for Inactive)
REMARK    1  A    between atoms: N_2  and  C_5
REMARK    2  A    between atoms: N_2  and  C_8
REMARK    3  A    between atoms: C_5  and  C_6
REMARK    4  A    between atoms: C_6  and  C_9
REMARK    5  A    between atoms: C_12  and  C_14
REMARK                            x       y       z     vdW  Elec       q    Type
REMARK                         _______ _______ _______ _____ _____    ______ ____
ROOT
ATOM      1  N   UNL     1      -2.008  -0.856  -0.262  0.00  0.00    +0.000 N 
ATOM      2  N   UNL     1      -0.266   0.744  -0.410  0.00  0.00    +0.000 NA
ATOM      3  C   UNL     1      -0.647  -0.532  -0.174  0.00  0.00    +0.000 A 
ATOM      4  C   UNL     1      -2.450  -2.229  -0.012  0.00  0.00    +0.000 C 
ATOM      5  C   UNL     1       0.229  -1.554   0.154  0.00  0.00    +0.000 A 
ATOM      6  C   UNL     1       1.582  -1.248   0.245  0.00  0.00    +0.000 A 
ATOM      7  C   UNL     1       2.012   0.053   0.009  0.00  0.00    +0.000 A 
ATOM      8  C   UNL     1       1.057   1.003  -0.312  0.00  0.00    +0.000 A 
ENDROOT
BRANCH   7  11
ATOM      9  O   UNL     1       4.286  -0.447   0.369  0.00  0.00    +0.000 OA
ATOM     10  N   UNL     1       3.775   1.727  -0.152  0.00  0.00    +0.000 N 
ATOM     11  C   UNL     1       3.419   0.404   0.097  0.00  0.00    +0.000 C 
ATOM     12  H   UNL     1       3.134   2.475  -0.384  0.00  0.00    +0.000 HD
ATOM     13  H   UNL     1       4.752   1.998  -0.105  0.00  0.00    +0.000 HD
ENDBRANCH   7  11
BRANCH   1  14
ATOM     14  C   UNL     1      -3.000   0.140  -0.590  0.00  0.00    +0.000 C 
BRANCH  14  15
ATOM     15  C   UNL     1      -3.486   0.852   0.668  0.00  0.00    +0.000 C 
ATOM     16  C   UNL     1      -4.503   1.945   0.371  0.00  0.00    +0.000 C 
ENDBRANCH  14  15
ENDBRANCH   1  14
TORSDOF 3
