REMARK  Name = 89542472
REMARK  3 active torsions:
REMARK  status: ('A' for Active; 'I' for Inactive)
REMARK    1  A    between atoms: C_5  and  C_6
REMARK    2  A    between atoms: C_6  and  C_10
REMARK    3  A    between atoms: C_7  and  C_11
REMARK                            x       y       z     vdW  Elec       q    Type
REMARK                         _______ _______ _______ _____ _____    ______ ____
ROOT
ATOM      1  N   UNL     1      -2.352  -0.382   0.163  0.00  0.00    +0.000 NA
ATOM      2  N   UNL     1      -1.841   1.926   0.314  0.00  0.00    +0.000 N 
ATOM      3  C   UNL     1       0.348  -0.961  -0.271  0.00  0.00    +0.000 A 
ATOM      4  C   UNL     1      -0.063   0.354  -0.087  0.00  0.00    +0.000 A 
ATOM      5  C   UNL     1      -0.590  -1.988  -0.238  0.00  0.00    +0.000 A 
ATOM      6  C   UNL     1      -1.412   0.589   0.125  0.00  0.00    +0.000 A 
ATOM      7  C   UNL     1      -1.915  -1.649  -0.020  0.00  0.00    +0.000 A 
ATOM      8  H   UNL     1      -1.208   2.581   0.755  0.00  0.00    +0.000 HD
ATOM      9  H   UNL     1      -2.834   2.065   0.461  0.00  0.00    +0.000 HD
ENDROOT
BRANCH   4  12
ATOM     10  O   UNL     1       1.175   2.034  -1.179  0.00  0.00    +0.000 OA
ATOM     11  N   UNL     1       1.508   1.808   1.079  0.00  0.00    +0.000 N 
ATOM     12  C   UNL     1       0.907   1.443  -0.121  0.00  0.00    +0.000 C 
ATOM     13  H   UNL     1       1.294   1.337   1.953  0.00  0.00    +0.000 HD
ATOM     14  H   UNL     1       2.185   2.562   1.115  0.00  0.00    +0.000 HD
ENDBRANCH   4  12
BRANCH   3  15
ATOM     15  C   UNL     1       1.783  -1.302  -0.505  0.00  0.00    +0.000 C 
ATOM     16  C   UNL     1       2.453  -1.873   0.741  0.00  0.00    +0.000 C 
ENDBRANCH   3  15
TORSDOF 2
