REMARK  Name = 89542448
REMARK  2 active torsions:
REMARK  status: ('A' for Active; 'I' for Inactive)
REMARK    1  A    between atoms: C_5  and  C_9
REMARK    2  A    between atoms: C_6  and  C_10
REMARK                            x       y       z     vdW  Elec       q    Type
REMARK                         _______ _______ _______ _____ _____    ______ ____
ROOT
ATOM      1  N   UNL     1      -1.866   1.187   0.015  0.00  0.00    +0.000 NA
ATOM      2  N   UNL     1       0.161   2.413  -0.015  0.00  0.00    +0.000 N 
ATOM      3  C   UNL     1      -0.428  -1.210  -0.009  0.00  0.00    +0.000 A 
ATOM      4  C   UNL     1       0.244   0.007  -0.018  0.00  0.00    +0.000 A 
ATOM      5  C   UNL     1      -0.515   1.167  -0.006  0.00  0.00    +0.000 A 
ATOM      6  C   UNL     1      -1.818  -1.230   0.013  0.00  0.00    +0.000 A 
ATOM      7  C   UNL     1       0.312  -2.507  -0.021  0.00  0.00    +0.000 C 
ATOM      8  C   UNL     1      -2.485  -0.016   0.024  0.00  0.00    +0.000 A 
ATOM      9  H   UNL     1       1.067   2.477   0.431  0.00  0.00    +0.000 HD
ATOM     10  H   UNL     1      -0.422   3.241  -0.012  0.00  0.00    +0.000 HD
ENDROOT
BRANCH   4  13
ATOM     11  O   UNL     1       2.327   0.082  -1.115  0.00  0.00    +0.000 OA
ATOM     12  N   UNL     1       2.366   0.062   1.177  0.00  0.00    +0.000 N 
ATOM     13  C   UNL     1       1.702   0.046  -0.043  0.00  0.00    +0.000 C 
ATOM     14  H   UNL     1       1.869   0.040   2.062  0.00  0.00    +0.000 HD
ATOM     15  H   UNL     1       3.379   0.095   1.220  0.00  0.00    +0.000 HD
ENDBRANCH   4  13
TORSDOF 1
