REMARK  Name = 89649491
REMARK  4 active torsions:
REMARK  status: ('A' for Active; 'I' for Inactive)
REMARK    1  A    between atoms: O_1  and  N_3
REMARK    2  A    between atoms: O_1  and  C_13
REMARK    3  A    between atoms: N_3  and  C_12
REMARK    4  A    between atoms: C_6  and  C_7
REMARK                            x       y       z     vdW  Elec       q    Type
REMARK                         _______ _______ _______ _____ _____    ______ ____
ROOT
ATOM      1  N   UNL     1      -2.228   0.530  -1.037  0.00  0.00    +0.000 NA
ATOM      2  N   UNL     1      -4.105  -0.527  -0.019  0.00  0.00    +0.000 N 
ATOM      3  C   UNL     1      -0.093   0.510   0.097  0.00  0.00    +0.000 A 
ATOM      4  C   UNL     1      -0.651  -0.205   1.151  0.00  0.00    +0.000 A 
ATOM      5  C   UNL     1      -0.916   0.850  -0.964  0.00  0.00    +0.000 A 
ATOM      6  C   UNL     1      -1.997  -0.553   1.112  0.00  0.00    +0.000 A 
ATOM      7  C   UNL     1      -2.735  -0.165   0.006  0.00  0.00    +0.000 A 
ATOM      8  H   UNL     1      -4.393  -1.360   0.479  0.00  0.00    +0.000 HD
ATOM      9  H   UNL     1      -4.639  -0.247  -0.833  0.00  0.00    +0.000 HD
ENDROOT
BRANCH   3  12
ATOM     10  O   UNL     1       1.586   2.096   0.073  0.00  0.00    +0.000 OA
ATOM     11  N   UNL     1       2.271  -0.108   0.173  0.00  0.00    +0.000 N 
ATOM     12  C   UNL     1       1.331   0.894   0.109  0.00  0.00    +0.000 C 
ATOM     13  C   UNL     1       3.702   0.132   0.207  0.00  0.00    +0.000 C 
BRANCH  11  14
ATOM     14  O   UNL     1       1.950  -1.477   0.212  0.00  0.00    +0.000 OA
ATOM     15  C   UNL     1       1.885  -1.977  -1.120  0.00  0.00    +0.000 C 
ENDBRANCH  11  14
ENDBRANCH   3  12
TORSDOF 2
