REMARK  Name = 89783918
REMARK  6 active torsions:
REMARK  status: ('A' for Active; 'I' for Inactive)
REMARK    1  A    between atoms: N_2  and  C_11
REMARK    2  A    between atoms: C_5  and  C_6
REMARK    3  A    between atoms: C_5  and  C_7
REMARK    4  A    between atoms: C_6  and  C_8
REMARK    5  A    between atoms: C_9  and  C_11
REMARK    6  A    between atoms: C_10  and  C_13
REMARK                            x       y       z     vdW  Elec       q    Type
REMARK                         _______ _______ _______ _____ _____    ______ ____
ROOT
ATOM      1  O   UNL     1      -0.572  -0.617   1.935  0.00  0.00    +0.000 OA
ATOM      2  C   UNL     1      -0.274   0.262   1.132  0.00  0.00    +0.000 C 
ENDROOT
BRANCH   2   4
ATOM      3  N   UNL     1       2.884   1.369  -0.586  0.00  0.00    +0.000 NA
ATOM      4  C   UNL     1       1.033   0.182   0.421  0.00  0.00    +0.000 A 
ATOM      5  C   UNL     1       1.626  -1.033   0.097  0.00  0.00    +0.000 A 
ATOM      6  C   UNL     1       2.847  -1.049  -0.568  0.00  0.00    +0.000 A 
ATOM      7  C   UNL     1       0.975  -2.329   0.450  0.00  0.00    +0.000 C 
ATOM      8  C   UNL     1       1.697   1.344   0.061  0.00  0.00    +0.000 A 
ATOM      9  C   UNL     1       3.430   0.168  -0.884  0.00  0.00    +0.000 A 
ENDBRANCH   2   4
BRANCH   2  10
ATOM     10  N   UNL     1      -1.039   1.370   0.842  0.00  0.00    +0.000 NA
ATOM     11  N   UNL     1      -2.754   2.293  -0.579  0.00  0.00    +0.000 N 
ATOM     12  C   UNL     1      -1.889   1.317  -0.140  0.00  0.00    +0.000 C 
ATOM     13  H   UNL     1      -3.392   2.140  -1.353  0.00  0.00    +0.000 HD
ATOM     14  H   UNL     1      -2.783   3.203  -0.130  0.00  0.00    +0.000 HD
BRANCH  12  15
ATOM     15  C   UNL     1      -1.953  -0.007  -0.893  0.00  0.00    +0.000 C 
BRANCH  15  16
ATOM     16  C   UNL     1      -2.969  -0.969  -0.279  0.00  0.00    +0.000 C 
ATOM     17  C   UNL     1      -3.041  -2.302  -1.009  0.00  0.00    +0.000 C 
ENDBRANCH  15  16
ENDBRANCH  12  15
ENDBRANCH   2  10
TORSDOF 4
