REMARK  Name = 89996510
REMARK  4 active torsions:
REMARK  status: ('A' for Active; 'I' for Inactive)
REMARK    1  A    between atoms: N_3  and  C_12
REMARK    2  A    between atoms: N_3  and  C_13
REMARK    3  A    between atoms: C_6  and  C_7
REMARK    4  A    between atoms: C_14  and  C_15
REMARK                            x       y       z     vdW  Elec       q    Type
REMARK                         _______ _______ _______ _____ _____    ______ ____
ROOT
ATOM      1  O   UNL     1      -3.735  -1.465  -0.524  0.00  0.00    +0.000 OA
ATOM      2  N   UNL     1      -1.027  -0.664  -0.478  0.00  0.00    +0.000 NA
ATOM      3  N   UNL     1      -2.884   0.562   0.326  0.00  0.00    +0.000 N 
ATOM      4  C   UNL     1       1.188   0.288  -0.302  0.00  0.00    +0.000 A 
ATOM      5  C   UNL     1       0.659   1.425   0.299  0.00  0.00    +0.000 A 
ATOM      6  C   UNL     1      -1.505   0.457   0.108  0.00  0.00    +0.000 A 
ATOM      7  C   UNL     1      -0.712   1.519   0.511  0.00  0.00    +0.000 A 
ATOM      8  C   UNL     1       0.310  -0.719  -0.668  0.00  0.00    +0.000 A 
ATOM      9  C   UNL     1      -3.878  -0.369   0.009  0.00  0.00    +0.000 C 
ATOM     10  C   UNL     1      -5.246   0.121   0.411  0.00  0.00    +0.000 C 
ATOM     11  H   UNL     1      -3.192   1.424   0.770  0.00  0.00    +0.000 HD
ENDROOT
BRANCH   4  14
ATOM     12  O   UNL     1       3.046   0.588  -1.621  0.00  0.00    +0.000 OA
ATOM     13  N   UNL     1       3.425  -0.420   0.454  0.00  0.00    +0.000 N 
ATOM     14  C   UNL     1       2.634   0.159  -0.544  0.00  0.00    +0.000 C 
ATOM     15  C   UNL     1       4.865  -0.575   0.309  0.00  0.00    +0.000 C 
ATOM     16  C   UNL     1       2.860  -0.908   1.710  0.00  0.00    +0.000 C 
ENDBRANCH   4  14
TORSDOF 1
