REMARK  Name = 901914
REMARK  3 active torsions:
REMARK  status: ('A' for Active; 'I' for Inactive)
REMARK    1  A    between atoms: N_2  and  C_5
REMARK    2  A    between atoms: N_2  and  C_6
REMARK    3  A    between atoms: C_7  and  C_14
REMARK                            x       y       z     vdW  Elec       q    Type
REMARK                         _______ _______ _______ _____ _____    ______ ____
ROOT
ATOM      1  N   UNL     1      -0.684  -1.709  -0.431  0.00  0.00    +0.000 NA
ATOM      2  C   UNL     1      -0.846  -0.371  -0.275  0.00  0.00    +0.000 A 
ATOM      3  C   UNL     1      -2.068   0.221   0.019  0.00  0.00    +0.000 A 
ATOM      4  C   UNL     1      -3.181  -0.601   0.161  0.00  0.00    +0.000 A 
ATOM      5  C   UNL     1      -3.046  -1.976   0.006  0.00  0.00    +0.000 A 
ATOM      6  C   UNL     1      -1.788  -2.476  -0.287  0.00  0.00    +0.000 A 
ENDROOT
BRANCH   3   9
ATOM      7  O   UNL     1      -2.506   2.394  -0.778  0.00  0.00    +0.000 OA
ATOM      8  N   UNL     1      -2.051   2.187   1.460  0.00  0.00    +0.000 N 
ATOM      9  C   UNL     1      -2.220   1.661   0.183  0.00  0.00    +0.000 C 
ATOM     10  H   UNL     1      -1.823   1.602   2.258  0.00  0.00    +0.000 HD
ATOM     11  H   UNL     1      -2.151   3.181   1.632  0.00  0.00    +0.000 HD
ENDBRANCH   3   9
BRANCH   2  12
ATOM     12  N   UNL     1       0.285   0.455  -0.420  0.00  0.00    +0.000 N 
ATOM     13  H   UNL     1       0.096   1.303  -0.947  0.00  0.00    +0.000 HD
BRANCH  12  14
ATOM     14  C   UNL     1       1.659   0.244  -0.178  0.00  0.00    +0.000 A 
ATOM     15  C   UNL     1       2.613   0.922  -0.938  0.00  0.00    +0.000 A 
ATOM     16  C   UNL     1       2.064  -0.642   0.820  0.00  0.00    +0.000 A 
ATOM     17  C   UNL     1       3.971   0.714  -0.699  0.00  0.00    +0.000 A 
ATOM     18  C   UNL     1       3.422  -0.851   1.058  0.00  0.00    +0.000 A 
ATOM     19  C   UNL     1       4.376  -0.173   0.299  0.00  0.00    +0.000 A 
ENDBRANCH  12  14
ENDBRANCH   2  12
TORSDOF 3
