REMARK  Name = 90244946
REMARK  6 active torsions:
REMARK  status: ('A' for Active; 'I' for Inactive)
REMARK    1  A    between atoms: N_3  and  C_13
REMARK    2  A    between atoms: C_5  and  C_6
REMARK    3  A    between atoms: C_5  and  C_7
REMARK    4  A    between atoms: C_5  and  C_8
REMARK    5  A    between atoms: C_5  and  C_9
REMARK    6  A    between atoms: C_12  and  C_14
REMARK                            x       y       z     vdW  Elec       q    Type
REMARK                         _______ _______ _______ _____ _____    ______ ____
ROOT
ATOM      1  N   UNL     1       0.335  -2.100  -0.021  0.00  0.00    +0.000 NA
ATOM      2  C   UNL     1      -1.134  -0.179   0.001  0.00  0.00    +0.000 A 
ATOM      3  C   UNL     1      -0.034   0.671   0.023  0.00  0.00    +0.000 A 
ATOM      4  C   UNL     1      -0.898  -1.544  -0.021  0.00  0.00    +0.000 A 
ATOM      5  C   UNL     1       1.250   0.137   0.024  0.00  0.00    +0.000 A 
ATOM      6  C   UNL     1       1.379  -1.242   0.001  0.00  0.00    +0.000 A 
ENDROOT
BRANCH   5   9
ATOM      7  O   UNL     1       2.907   1.403   1.119  0.00  0.00    +0.000 OA
ATOM      8  N   UNL     1       2.914   1.455  -1.174  0.00  0.00    +0.000 N 
ATOM      9  C   UNL     1       2.397   1.036   0.048  0.00  0.00    +0.000 C 
ATOM     10  H   UNL     1       2.514   1.158  -2.058  0.00  0.00    +0.000 HD
ATOM     11  H   UNL     1       3.715   2.075  -1.216  0.00  0.00    +0.000 HD
ENDBRANCH   5   9
BRANCH   2  12
ATOM     12  C   UNL     1      -2.567   0.379  -0.000  0.00  0.00    +0.000 C 
ATOM     13  C   UNL     1      -3.662  -0.712  -0.026  0.00  0.00    +0.000 C 
ATOM     14  C   UNL     1      -2.796   1.225   1.270  0.00  0.00    +0.000 C 
ATOM     15  C   UNL     1      -2.778   1.266  -1.246  0.00  0.00    +0.000 C 
ENDBRANCH   2  12
BRANCH   6  16
ATOM     16  N   UNL     1       2.685  -1.794   0.002  0.00  0.00    +0.000 N 
ATOM     17  H   UNL     1       3.432  -1.271  -0.440  0.00  0.00    +0.000 HD
ATOM     18  H   UNL     1       2.749  -2.804  -0.011  0.00  0.00    +0.000 HD
ENDBRANCH   6  16
TORSDOF 3
