REMARK  Name = 90275756
REMARK  2 active torsions:
REMARK  status: ('A' for Active; 'I' for Inactive)
REMARK    1  A    between atoms: C_5  and  C_6
REMARK    2  A    between atoms: C_6  and  C_10
REMARK                            x       y       z     vdW  Elec       q    Type
REMARK                         _______ _______ _______ _____ _____    ______ ____
ROOT
ATOM      1  N   UNL     1      -2.521  -0.584  -0.339  0.00  0.00    +0.000 NA
ATOM      2  N   UNL     1      -2.881   1.755  -0.061  0.00  0.00    +0.000 N 
ATOM      3  C   UNL     1       0.128  -0.257   0.492  0.00  0.00    +0.000 A 
ATOM      4  C   UNL     1      -0.723   0.841   0.423  0.00  0.00    +0.000 A 
ATOM      5  C   UNL     1      -0.345  -1.518   0.146  0.00  0.00    +0.000 A 
ATOM      6  C   UNL     1      -2.026   0.627   0.005  0.00  0.00    +0.000 A 
ATOM      7  C   UNL     1      -1.665  -1.627  -0.259  0.00  0.00    +0.000 A 
ATOM      8  H   UNL     1      -2.700   2.533   0.562  0.00  0.00    +0.000 HD
ATOM      9  H   UNL     1      -3.834   1.593  -0.361  0.00  0.00    +0.000 HD
ENDROOT
BRANCH   3  10
ATOM     10  C   UNL     1       1.540  -0.083   0.936  0.00  0.00    +0.000 C 
BRANCH  10  13
ATOM     11  O   UNL     1       2.165   0.345  -1.369  0.00  0.00    +0.000 OA
ATOM     12  N   UNL     1       3.818   0.296   0.227  0.00  0.00    +0.000 N 
ATOM     13  C   UNL     1       2.510   0.205  -0.200  0.00  0.00    +0.000 C 
ATOM     14  H   UNL     1       4.080   0.179   1.200  0.00  0.00    +0.000 HD
ATOM     15  H   UNL     1       4.569   0.486  -0.429  0.00  0.00    +0.000 HD
ENDBRANCH  10  13
ENDBRANCH   3  10
TORSDOF 2
