REMARK  Name = 90271760
REMARK  3 active torsions:
REMARK  status: ('A' for Active; 'I' for Inactive)
REMARK    1  A    between atoms: N_3  and  C_7
REMARK    2  A    between atoms: N_3  and  C_12
REMARK    3  A    between atoms: C_6  and  C_10
REMARK                            x       y       z     vdW  Elec       q    Type
REMARK                         _______ _______ _______ _____ _____    ______ ____
ROOT
ATOM      1  I   UNL     1      -4.088  -0.683  -0.009  0.00  0.00    +0.000 I 
ATOM      2  N   UNL     1      -0.516   1.743  -0.014  0.00  0.00    +0.000 NA
ATOM      3  C   UNL     1       0.242  -0.552   0.024  0.00  0.00    +0.000 A 
ATOM      4  C   UNL     1       0.467   0.815   0.006  0.00  0.00    +0.000 A 
ATOM      5  C   UNL     1      -1.076  -0.995   0.019  0.00  0.00    +0.000 A 
ATOM      6  C   UNL     1      -2.115  -0.071  -0.002  0.00  0.00    +0.000 A 
ATOM      7  C   UNL     1      -1.784   1.275  -0.018  0.00  0.00    +0.000 A 
ENDROOT
BRANCH   3  10
ATOM      8  O   UNL     1       1.783  -1.958   1.117  0.00  0.00    +0.000 OA
ATOM      9  N   UNL     1       1.812  -1.978  -1.176  0.00  0.00    +0.000 N 
ATOM     10  C   UNL     1       1.323  -1.528   0.046  0.00  0.00    +0.000 C 
ATOM     11  H   UNL     1       1.444  -1.643  -2.060  0.00  0.00    +0.000 HD
ATOM     12  H   UNL     1       2.560  -2.662  -1.219  0.00  0.00    +0.000 HD
ENDBRANCH   3  10
BRANCH   4  13
ATOM     13  N   UNL     1       1.808   1.274   0.011  0.00  0.00    +0.000 N 
ATOM     14  C   UNL     1       2.147   2.659  -0.005  0.00  0.00    +0.000 C 
ATOM     15  H   UNL     1       2.524   0.614  -0.269  0.00  0.00    +0.000 HD
ENDBRANCH   4  13
TORSDOF 2
