REMARK  Name = 90405501
REMARK  6 active torsions:
REMARK  status: ('A' for Active; 'I' for Inactive)
REMARK    1  A    between atoms: N_2  and  C_5
REMARK    2  A    between atoms: N_3  and  C_5
REMARK    3  A    between atoms: C_5  and  C_6
REMARK    4  A    between atoms: C_6  and  C_7
REMARK    5  A    between atoms: C_7  and  C_10
REMARK    6  A    between atoms: C_11  and  C_14
REMARK                            x       y       z     vdW  Elec       q    Type
REMARK                         _______ _______ _______ _____ _____    ______ ____
ROOT
ATOM      1  N   UNL     1      -0.507  -0.562   0.311  0.00  0.00    +0.000 N 
ATOM      2  C   UNL     1       0.577   0.170   0.603  0.00  0.00    +0.000 A 
ATOM      3  C   UNL     1      -0.503  -1.499  -0.647  0.00  0.00    +0.000 A 
ATOM      4  C   UNL     1       1.759  -0.028  -0.097  0.00  0.00    +0.000 A 
ATOM      5  C   UNL     1       0.651  -1.741  -1.379  0.00  0.00    +0.000 A 
ATOM      6  C   UNL     1       1.792  -0.995  -1.097  0.00  0.00    +0.000 A 
ENDROOT
BRANCH   4   9
ATOM      7  O   UNL     1       4.003   0.610  -0.416  0.00  0.00    +0.000 OA
ATOM      8  N   UNL     1       2.838   1.712   1.224  0.00  0.00    +0.000 N 
ATOM      9  C   UNL     1       2.939   0.761   0.211  0.00  0.00    +0.000 C 
ATOM     10  H   UNL     1       2.011   1.899   1.776  0.00  0.00    +0.000 HD
ATOM     11  H   UNL     1       3.646   2.282   1.454  0.00  0.00    +0.000 HD
ENDBRANCH   4   9
BRANCH   1  12
ATOM     12  C   UNL     1      -1.785  -0.322   1.093  0.00  0.00    +0.000 C 
BRANCH  12  13
ATOM     13  N   UNL     1      -2.161  -1.526   1.845  0.00  0.00    +0.000 NA
ATOM     14  H   UNL     1      -1.365  -1.849   2.392  0.00  0.00    +0.000 HD
ATOM     15  H   UNL     1      -2.404  -2.282   1.207  0.00  0.00    +0.000 HD
ENDBRANCH  12  13
BRANCH  12  16
ATOM     16  C   UNL     1      -2.971   0.115   0.208  0.00  0.00    +0.000 C 
BRANCH  16  17
ATOM     17  C   UNL     1      -2.705   1.429  -0.536  0.00  0.00    +0.000 C 
ATOM     18  C   UNL     1      -3.928   1.877  -1.323  0.00  0.00    +0.000 C 
ENDBRANCH  16  17
ENDBRANCH  12  16
ENDBRANCH   1  12
TORSDOF 5
