REMARK  Name = 90876994
REMARK  1 active torsions:
REMARK  status: ('A' for Active; 'I' for Inactive)
REMARK    1  A    between atoms: N_4  and  C_8
REMARK                            x       y       z     vdW  Elec       q    Type
REMARK                         _______ _______ _______ _____ _____    ______ ____
ROOT
ATOM      1  O   UNL     1      -0.613   2.644  -0.001  0.00  0.00    +0.000 OA
ATOM      2  N   UNL     1      -0.932  -1.367  -0.001  0.00  0.00    +0.000 N 
ATOM      3  N   UNL     1       1.435  -1.655   0.000  0.00  0.00    +0.000 NA
ATOM      4  C   UNL     1       0.512   0.562   0.000  0.00  0.00    +0.000 A 
ATOM      5  C   UNL     1       0.362  -0.827  -0.000  0.00  0.00    +0.000 A 
ATOM      6  C   UNL     1      -0.692   1.422   0.000  0.00  0.00    +0.000 A 
ATOM      7  C   UNL     1      -2.088  -0.608   0.000  0.00  0.00    +0.000 A 
ATOM      8  C   UNL     1      -2.013   0.740   0.001  0.00  0.00    +0.000 A 
ATOM      9  C   UNL     1       1.790   1.119   0.000  0.00  0.00    +0.000 A 
ATOM     10  C   UNL     1       2.893   0.276   0.000  0.00  0.00    +0.000 A 
ATOM     11  C   UNL     1       2.664  -1.089   0.000  0.00  0.00    +0.000 A 
ATOM     12  H   UNL     1      -1.031  -2.374  -0.002  0.00  0.00    +0.000 HD
ENDROOT
BRANCH   7  13
ATOM     13  N   UNL     1      -3.319  -1.217   0.001  0.00  0.00    +0.000 N 
ATOM     14  H   UNL     1      -4.166  -0.663   0.002  0.00  0.00    +0.000 HD
ATOM     15  H   UNL     1      -3.366  -2.228   0.000  0.00  0.00    +0.000 HD
ENDBRANCH   7  13
TORSDOF 1
