REMARK  Name = 90929211
REMARK  10 active torsions:
REMARK  status: ('A' for Active; 'I' for Inactive)
REMARK    1  A    between atoms: N_2  and  C_8
REMARK    2  A    between atoms: N_4  and  C_13
REMARK    3  A    between atoms: N_5  and  C_19
REMARK    4  A    between atoms: C_6  and  C_7
REMARK    5  A    between atoms: C_6  and  C_8
REMARK    6  A    between atoms: C_7  and  C_9
REMARK    7  A    between atoms: C_9  and  C_10
REMARK    8  A    between atoms: C_11  and  C_12
REMARK    9  A    between atoms: C_13  and  C_17
REMARK   10  A    between atoms: C_13  and  C_18
REMARK                            x       y       z     vdW  Elec       q    Type
REMARK                         _______ _______ _______ _____ _____    ______ ____
ROOT
ATOM      1  N   UNL     1       2.091   0.960  -0.137  0.00  0.00    +0.000 NA
ATOM      2  C   UNL     1      -0.314   0.814   0.061  0.00  0.00    +0.000 A 
ATOM      3  C   UNL     1      -0.197  -0.444   0.642  0.00  0.00    +0.000 A 
ATOM      4  C   UNL     1       0.850   1.468  -0.307  0.00  0.00    +0.000 A 
ATOM      5  C   UNL     1       1.063  -1.001   0.835  0.00  0.00    +0.000 A 
ATOM      6  C   UNL     1       2.166  -0.265   0.431  0.00  0.00    +0.000 A 
ENDROOT
BRANCH   2   9
ATOM      7  O   UNL     1      -1.790   2.234  -1.080  0.00  0.00    +0.000 OA
ATOM      8  N   UNL     1      -2.656   1.038   0.709  0.00  0.00    +0.000 N 
ATOM      9  C   UNL     1      -1.645   1.436  -0.157  0.00  0.00    +0.000 C 
ATOM     10  H   UNL     1      -2.454   0.408   1.478  0.00  0.00    +0.000 HD
BRANCH   8  11
ATOM     11  C   UNL     1      -4.002   1.532   0.610  0.00  0.00    +0.000 C 
BRANCH  11  12
ATOM     12  C   UNL     1      -4.854   0.656  -0.301  0.00  0.00    +0.000 C 
BRANCH  12  13
ATOM     13  C   UNL     1      -4.925  -0.781   0.215  0.00  0.00    +0.000 C 
BRANCH  13  14
ATOM     14  C   UNL     1      -5.748  -1.668  -0.719  0.00  0.00    +0.000 C 
ATOM     15  C   UNL     1      -5.848  -3.091  -0.192  0.00  0.00    +0.000 C 
ENDBRANCH  13  14
ENDBRANCH  12  13
ENDBRANCH  11  12
ENDBRANCH   8  11
ENDBRANCH   2   9
BRANCH   6  17
ATOM     16  N   UNL     1       4.212  -0.346  -0.290  0.00  0.00    +0.000 NA
ATOM     17  N   UNL     1       3.453  -0.781   0.605  0.00  0.00    +0.000 NA
BRANCH  16  18
ATOM     18  C   UNL     1       5.574  -0.860  -0.149  0.00  0.00    +0.000 C 
ATOM     19  C   UNL     1       6.364   0.076   0.754  0.00  0.00    +0.000 C 
ATOM     20  C   UNL     1       6.204  -0.976  -1.529  0.00  0.00    +0.000 C 
ENDBRANCH  16  18
ENDBRANCH   6  17
TORSDOF 7
