REMARK  Name = 90954548
REMARK  6 active torsions:
REMARK  status: ('A' for Active; 'I' for Inactive)
REMARK    1  A    between atoms: N_2  and  C_6
REMARK    2  A    between atoms: N_3  and  C_10
REMARK    3  A    between atoms: N_5  and  C_15
REMARK    4  A    between atoms: C_6  and  C_7
REMARK    5  A    between atoms: C_6  and  C_8
REMARK    6  A    between atoms: C_9  and  C_14
REMARK                            x       y       z     vdW  Elec       q    Type
REMARK                         _______ _______ _______ _____ _____    ______ ____
ROOT
ATOM      1  N   UNL     1      -0.478  -0.883   0.167  0.00  0.00    +0.000 NA
ATOM      2  C   UNL     1       1.814  -0.114   0.137  0.00  0.00    +0.000 A 
ATOM      3  C   UNL     1      -0.851   0.387   0.440  0.00  0.00    +0.000 A 
ATOM      4  C   UNL     1       1.391   1.180   0.418  0.00  0.00    +0.000 A 
ATOM      5  C   UNL     1       0.035   1.444   0.574  0.00  0.00    +0.000 A 
ATOM      6  C   UNL     1       0.849  -1.101   0.022  0.00  0.00    +0.000 A 
ENDROOT
BRANCH   2   9
ATOM      7  O   UNL     1       3.653  -1.569   0.193  0.00  0.00    +0.000 OA
ATOM      8  N   UNL     1       4.054   0.615  -0.475  0.00  0.00    +0.000 N 
ATOM      9  C   UNL     1       3.224  -0.422  -0.032  0.00  0.00    +0.000 C 
ATOM     10  C   UNL     1       5.471   0.461  -0.712  0.00  0.00    +0.000 C 
ATOM     11  H   UNL     1       3.652   1.513  -0.725  0.00  0.00    +0.000 HD
ENDBRANCH   2   9
BRANCH   3  13
ATOM     12  N   UNL     1      -2.859  -0.209  -0.119  0.00  0.00    +0.000 NA
ATOM     13  N   UNL     1      -2.231   0.603   0.590  0.00  0.00    +0.000 NA
BRANCH  12  14
ATOM     14  C   UNL     1      -4.308  -0.022   0.006  0.00  0.00    +0.000 C 
ATOM     15  C   UNL     1      -4.766   0.995  -1.029  0.00  0.00    +0.000 C 
ATOM     16  C   UNL     1      -4.998  -1.366  -0.180  0.00  0.00    +0.000 C 
ENDBRANCH  12  14
ENDBRANCH   3  13
TORSDOF 3
