REMARK  Name = 91205842
REMARK  3 active torsions:
REMARK  status: ('A' for Active; 'I' for Inactive)
REMARK    1  A    between atoms: N_2  and  C_6
REMARK    2  A    between atoms: C_6  and  C_7
REMARK    3  A    between atoms: C_10  and  C_11
REMARK                            x       y       z     vdW  Elec       q    Type
REMARK                         _______ _______ _______ _____ _____    ______ ____
ROOT
ATOM      1  O   UNL     1      -0.724   1.870   0.366  0.00  0.00    +0.000 OA
ATOM      2  N   UNL     1      -0.328  -0.233   1.259  0.00  0.00    +0.000 N 
ATOM      3  C   UNL     1      -1.104   0.701   0.561  0.00  0.00    +0.000 C 
ATOM      4  H   UNL     1      -0.691  -1.164   1.435  0.00  0.00    +0.000 HD
ENDROOT
BRANCH   3   6
ATOM      5  N   UNL     1      -3.825  -1.556  -0.644  0.00  0.00    +0.000 NA
ATOM      6  C   UNL     1      -2.402   0.257   0.084  0.00  0.00    +0.000 A 
ATOM      7  C   UNL     1      -3.444   1.159  -0.101  0.00  0.00    +0.000 A 
ATOM      8  C   UNL     1      -2.642  -1.078  -0.199  0.00  0.00    +0.000 A 
ATOM      9  C   UNL     1      -4.677   0.705  -0.557  0.00  0.00    +0.000 A 
ATOM     10  C   UNL     1      -4.815  -0.650  -0.812  0.00  0.00    +0.000 A 
ENDBRANCH   3   6
BRANCH   2  11
ATOM     11  C   UNL     1       0.973   0.063   1.815  0.00  0.00    +0.000 C 
BRANCH  11  14
ATOM     12  N   UNL     1       4.135  -0.735  -0.983  0.00  0.00    +0.000 NA
ATOM     13  N   UNL     1       4.372   1.606  -1.358  0.00  0.00    +0.000 N 
ATOM     14  C   UNL     1       2.078  -0.215   0.838  0.00  0.00    +0.000 A 
ATOM     15  C   UNL     1       2.718   0.835   0.189  0.00  0.00    +0.000 A 
ATOM     16  C   UNL     1       2.466  -1.525   0.578  0.00  0.00    +0.000 A 
ATOM     17  C   UNL     1       3.731   0.525  -0.704  0.00  0.00    +0.000 A 
ATOM     18  C   UNL     1       3.490  -1.730  -0.333  0.00  0.00    +0.000 A 
ATOM     19  H   UNL     1       3.847   2.459  -1.508  0.00  0.00    +0.000 HD
ATOM     20  H   UNL     1       5.108   1.374  -2.015  0.00  0.00    +0.000 HD
ENDBRANCH  11  14
ENDBRANCH   2  11
TORSDOF 3
