REMARK  Name = 91311755
REMARK  1 active torsions:
REMARK  status: ('A' for Active; 'I' for Inactive)
REMARK    1  A    between atoms: C_5  and  C_12
REMARK                            x       y       z     vdW  Elec       q    Type
REMARK                         _______ _______ _______ _____ _____    ______ ____
ROOT
ATOM      1  N   UNL     1      -0.686  -1.853  -0.498  0.00  0.00    +0.000 NA
ATOM      2  N   UNL     1      -2.727  -0.880  -0.061  0.00  0.00    +0.000 NA
ATOM      3  C   UNL     1       1.556   0.068   0.197  0.00  0.00    +0.000 C 
ATOM      4  C   UNL     1       1.275  -1.210   0.915  0.00  0.00    +0.000 C 
ATOM      5  C   UNL     1      -0.823   0.610  -0.129  0.00  0.00    +0.000 A 
ATOM      6  C   UNL     1       0.611   0.890  -0.282  0.00  0.00    +0.000 C 
ATOM      7  C   UNL     1      -1.391  -0.671  -0.196  0.00  0.00    +0.000 A 
ATOM      8  C   UNL     1       0.489  -2.095  -0.010  0.00  0.00    +0.000 C 
ATOM      9  C   UNL     1      -1.687   1.695   0.073  0.00  0.00    +0.000 A 
ATOM     10  C   UNL     1      -3.053   1.491   0.221  0.00  0.00    +0.000 A 
ATOM     11  C   UNL     1      -3.518   0.194   0.150  0.00  0.00    +0.000 A 
ENDROOT
BRANCH   3  14
ATOM     12  O   UNL     1       3.709   0.665   0.947  0.00  0.00    +0.000 OA
ATOM     13  N   UNL     1       3.295   0.619  -1.325  0.00  0.00    +0.000 N 
ATOM     14  C   UNL     1       2.950   0.477  -0.001  0.00  0.00    +0.000 C 
ATOM     15  H   UNL     1       2.647   0.442  -2.087  0.00  0.00    +0.000 HD
ATOM     16  H   UNL     1       4.234   0.900  -1.588  0.00  0.00    +0.000 HD
ENDBRANCH   3  14
TORSDOF 1
