REMARK  Name = 91355552
REMARK  3 active torsions:
REMARK  status: ('A' for Active; 'I' for Inactive)
REMARK    1  A    between atoms: N_4  and  C_9
REMARK    2  A    between atoms: C_6  and  C_12
REMARK    3  A    between atoms: C_7  and  C_11
REMARK                            x       y       z     vdW  Elec       q    Type
REMARK                         _______ _______ _______ _____ _____    ______ ____
ROOT
ATOM      1  N   UNL     1      -0.261   2.032   0.165  0.00  0.00    +0.000 NA
ATOM      2  C   UNL     1       0.745  -0.151  -0.092  0.00  0.00    +0.000 A 
ATOM      3  C   UNL     1      -1.630   0.111  -0.363  0.00  0.00    +0.000 A 
ATOM      4  C   UNL     1      -0.503  -0.703  -0.359  0.00  0.00    +0.000 A 
ATOM      5  C   UNL     1       0.812   1.209   0.161  0.00  0.00    +0.000 A 
ATOM      6  C   UNL     1      -1.457   1.459  -0.098  0.00  0.00    +0.000 A 
ENDROOT
BRANCH   2   9
ATOM      7  O   UNL     1       2.590  -1.195  -1.121  0.00  0.00    +0.000 OA
ATOM      8  N   UNL     1       2.280  -1.610   1.113  0.00  0.00    +0.000 N 
ATOM      9  C   UNL     1       1.920  -1.012  -0.090  0.00  0.00    +0.000 C 
ATOM     10  H   UNL     1       1.750  -1.466   1.967  0.00  0.00    +0.000 HD
ATOM     11  H   UNL     1       3.093  -2.214   1.173  0.00  0.00    +0.000 HD
ENDBRANCH   2   9
BRANCH   5  12
ATOM     12  N   UNL     1       2.081   1.779   0.433  0.00  0.00    +0.000 N 
ATOM     13  H   UNL     1       2.781   1.208   0.892  0.00  0.00    +0.000 HD
ATOM     14  H   UNL     1       2.100   2.776   0.611  0.00  0.00    +0.000 HD
ENDBRANCH   5  12
BRANCH   3  16
ATOM     15 BR   UNL     1      -3.599  -1.468   0.894  0.00  0.00    +0.000 Br
ATOM     16  C   UNL     1      -2.979  -0.449  -0.644  0.00  0.00    +0.000 C 
ENDBRANCH   3  16
TORSDOF 3
