REMARK  Name = 91381381
REMARK  4 active torsions:
REMARK  status: ('A' for Active; 'I' for Inactive)
REMARK    1  A    between atoms: C_8  and  C_9
REMARK    2  A    between atoms: C_8  and  C_10
REMARK    3  A    between atoms: C_8  and  C_11
REMARK    4  A    between atoms: C_14  and  C_17
REMARK                            x       y       z     vdW  Elec       q    Type
REMARK                         _______ _______ _______ _____ _____    ______ ____
ROOT
ATOM      1  O   UNL     1      -1.782   1.752  -0.051  0.00  0.00    +0.000 OA
ATOM      2  N   UNL     1      -1.010  -0.392   0.516  0.00  0.00    +0.000 N 
ATOM      3  N   UNL     1       1.158  -1.369   0.581  0.00  0.00    +0.000 NA
ATOM      4  C   UNL     1      -1.970   0.597   0.319  0.00  0.00    +0.000 C 
ATOM      5  C   UNL     1       0.390  -0.284   0.334  0.00  0.00    +0.000 A 
ATOM      6  C   UNL     1       0.886   0.938  -0.091  0.00  0.00    +0.000 A 
ATOM      7  C   UNL     1       3.083  -0.040  -0.031  0.00  0.00    +0.000 A 
ATOM      8  C   UNL     1       2.260   1.054  -0.275  0.00  0.00    +0.000 A 
ATOM      9  C   UNL     1       2.488  -1.218   0.391  0.00  0.00    +0.000 A 
ATOM     10  H   UNL     1      -1.317  -1.312   0.820  0.00  0.00    +0.000 HD
ENDROOT
BRANCH   7  13
ATOM     11  O   UNL     1       5.066   1.104  -0.582  0.00  0.00    +0.000 OA
ATOM     12  N   UNL     1       5.280  -1.091   0.048  0.00  0.00    +0.000 N 
ATOM     13  C   UNL     1       4.521   0.047  -0.216  0.00  0.00    +0.000 C 
ATOM     14  H   UNL     1       4.915  -1.984   0.353  0.00  0.00    +0.000 HD
ATOM     15  H   UNL     1       6.288  -1.055  -0.067  0.00  0.00    +0.000 HD
ENDBRANCH   7  13
BRANCH   4  16
ATOM     16  C   UNL     1      -3.375   0.063   0.610  0.00  0.00    +0.000 C 
ATOM     17  C   UNL     1      -4.283   1.169   1.147  0.00  0.00    +0.000 C 
BRANCH  16  20
ATOM     18  O   UNL     1      -3.795  -0.180  -1.765  0.00  0.00    +0.000 OA
ATOM     19  N   UNL     1      -4.892  -1.587  -0.315  0.00  0.00    +0.000 N 
ATOM     20  C   UNL     1      -4.024  -0.562  -0.619  0.00  0.00    +0.000 C 
ATOM     21  H   UNL     1      -5.075  -1.882   0.639  0.00  0.00    +0.000 HD
ATOM     22  H   UNL     1      -5.389  -2.083  -1.048  0.00  0.00    +0.000 HD
ENDBRANCH  16  20
ENDBRANCH   4  16
TORSDOF 3
