REMARK  Name = 91664313
REMARK  2 active torsions:
REMARK  status: ('A' for Active; 'I' for Inactive)
REMARK    1  A    between atoms: N_4  and  C_18
REMARK    2  A    between atoms: C_17  and  C_18
REMARK                            x       y       z     vdW  Elec       q    Type
REMARK                         _______ _______ _______ _____ _____    ______ ____
ROOT
ATOM      1  N   UNL     1      -2.609  -0.254  -0.805  0.00  0.00    +0.000 N 
ATOM      2  N   UNL     1      -0.440   0.664  -0.993  0.00  0.00    +0.000 NA
ATOM      3  C   UNL     1      -3.720   0.378   1.808  0.00  0.00    +0.000 C 
ATOM      4  C   UNL     1      -4.420   1.412   0.923  0.00  0.00    +0.000 C 
ATOM      5  C   UNL     1      -3.702  -1.059   1.275  0.00  0.00    +0.000 C 
ATOM      6  C   UNL     1      -3.526   1.965  -0.195  0.00  0.00    +0.000 C 
ATOM      7  C   UNL     1      -3.543  -1.228  -0.235  0.00  0.00    +0.000 C 
ATOM      8  C   UNL     1      -3.235   0.970  -1.317  0.00  0.00    +0.000 C 
ATOM      9  C   UNL     1      -1.228  -0.380  -0.655  0.00  0.00    +0.000 A 
ATOM     10  C   UNL     1      -0.752  -1.584  -0.162  0.00  0.00    +0.000 A 
ATOM     11  C   UNL     1       0.623  -1.725  -0.006  0.00  0.00    +0.000 A 
ATOM     12  C   UNL     1       0.891   0.490  -0.828  0.00  0.00    +0.000 A 
ATOM     13  C   UNL     1       1.467  -0.673  -0.344  0.00  0.00    +0.000 A 
ENDROOT
BRANCH  13  15
ATOM     14  O   UNL     1       3.420  -1.851   0.211  0.00  0.00    +0.000 OA
ATOM     15  C   UNL     1       2.907  -0.789  -0.192  0.00  0.00    +0.000 C 
BRANCH  15  16
ATOM     16  N   UNL     1       3.673   0.317  -0.556  0.00  0.00    +0.000 NA
ATOM     17  N   UNL     1       5.250   2.002   0.131  0.00  0.00    +0.000 N 
ATOM     18  N   UNL     1       4.508   0.436   1.615  0.00  0.00    +0.000 N 
ATOM     19  C   UNL     1       4.437   0.907   0.325  0.00  0.00    +0.000 C 
ATOM     20  H   UNL     1       5.307   2.457  -0.773  0.00  0.00    +0.000 HD
ATOM     21  H   UNL     1       5.810   2.386   0.884  0.00  0.00    +0.000 HD
ATOM     22  H   UNL     1       5.101   0.888   2.302  0.00  0.00    +0.000 HD
ATOM     23  H   UNL     1       3.978  -0.367   1.934  0.00  0.00    +0.000 HD
ENDBRANCH  15  16
ENDBRANCH  13  15
TORSDOF 2
