REMARK  Name = 91735308
REMARK  3 active torsions:
REMARK  status: ('A' for Active; 'I' for Inactive)
REMARK    1  A    between atoms: C_13  and  C_18
REMARK    2  A    between atoms: C_19  and  C_21
REMARK    3  A    between atoms: C_20  and  C_22
REMARK                            x       y       z     vdW  Elec       q    Type
REMARK                         _______ _______ _______ _____ _____    ______ ____
ROOT
ATOM      1  O   UNL     1       3.585   1.774  -0.521  0.00  0.00    +0.000 OA
ATOM      2  N   UNL     1       3.312  -0.466   0.160  0.00  0.00    +0.000 N 
ATOM      3  N   UNL     1       1.436  -1.883   0.414  0.00  0.00    +0.000 NA
ATOM      4  C   UNL     1      -0.771  -1.030  -0.084  0.00  0.00    +0.000 A 
ATOM      5  C   UNL     1       1.929  -0.670   0.081  0.00  0.00    +0.000 A 
ATOM      6  C   UNL     1      -0.226   0.204  -0.418  0.00  0.00    +0.000 A 
ATOM      7  C   UNL     1       1.149   0.397  -0.337  0.00  0.00    +0.000 A 
ATOM      8  C   UNL     1       0.096  -2.033   0.323  0.00  0.00    +0.000 A 
ATOM      9  C   UNL     1       4.029   0.698  -0.134  0.00  0.00    +0.000 C 
ATOM     10  H   UNL     1       3.839  -1.278   0.471  0.00  0.00    +0.000 HD
ENDROOT
BRANCH   4  14
ATOM     11  O   UNL     1      -2.646  -2.404  -0.374  0.00  0.00    +0.000 OA
ATOM     12  O   UNL     1      -5.141  -1.127  -0.260  0.00  0.00    +0.000 OA
ATOM     13  N   UNL     1      -3.038  -0.141   0.006  0.00  0.00    +0.000 N 
ATOM     14  C   UNL     1      -2.203  -1.263  -0.154  0.00  0.00    +0.000 C 
ATOM     15  C   UNL     1      -4.430  -0.147  -0.057  0.00  0.00    +0.000 C 
ATOM     16  H   UNL     1      -2.606   0.754   0.218  0.00  0.00    +0.000 HD
BRANCH  15  20
ATOM     17  F   UNL     1      -5.827   1.267   1.236  0.00  0.00    +0.000 F 
ATOM     18  F   UNL     1      -5.732   1.640  -0.908  0.00  0.00    +0.000 F 
ATOM     19  F   UNL     1      -4.037   2.152   0.364  0.00  0.00    +0.000 F 
ATOM     20  C   UNL     1      -5.004   1.222   0.158  0.00  0.00    +0.000 C 
ENDBRANCH  15  20
ENDBRANCH   4  14
BRANCH   9  24
ATOM     21  F   UNL     1       6.007   1.355   1.003  0.00  0.00    +0.000 F 
ATOM     22  F   UNL     1       5.797  -0.754   0.497  0.00  0.00    +0.000 F 
ATOM     23  F   UNL     1       6.208   0.708  -1.068  0.00  0.00    +0.000 F 
ATOM     24  C   UNL     1       5.505   0.502   0.074  0.00  0.00    +0.000 C 
ENDBRANCH   9  24
TORSDOF 3
