REMARK  Name = 91731899
REMARK  5 active torsions:
REMARK  status: ('A' for Active; 'I' for Inactive)
REMARK    1  A    between atoms: SI_1  and  N_3
REMARK    2  A    between atoms: SI_1  and  C_6
REMARK    3  A    between atoms: SI_1  and  C_7
REMARK    4  A    between atoms: SI_1  and  C_8
REMARK    5  A    between atoms: C_12  and  C_14
REMARK                            x       y       z     vdW  Elec       q    Type
REMARK                         _______ _______ _______ _____ _____    ______ ____
ROOT
ATOM      1  N   UNL     1      -1.918  -0.785   0.001  0.00  0.00    +0.000 N 
ATOM      2  N   UNL     1       0.330  -1.576   0.003  0.00  0.00    +0.000 NA
ATOM      3  C   UNL     1      -0.524  -0.528   0.000  0.00  0.00    +0.000 A 
ATOM      4  C   UNL     1      -0.124   0.799  -0.004  0.00  0.00    +0.000 A 
ATOM      5  C   UNL     1       1.240   1.067  -0.005  0.00  0.00    +0.000 A 
ATOM      6  C   UNL     1       2.150   0.015  -0.003  0.00  0.00    +0.000 A 
ATOM      7  C   UNL     1       1.648  -1.276   0.001  0.00  0.00    +0.000 A 
ATOM      8  H   UNL     1      -2.070  -1.792   0.004  0.00  0.00    +0.000 HD
ENDROOT
BRANCH   6  11
ATOM      9  O   UNL     1       4.041   1.420   0.009  0.00  0.00    +0.000 OA
ATOM     10  N   UNL     1       4.431  -0.840  -0.001  0.00  0.00    +0.000 N 
ATOM     11  C   UNL     1       3.581   0.263  -0.004  0.00  0.00    +0.000 C 
ATOM     12  H   UNL     1       4.138  -1.809  -0.006  0.00  0.00    +0.000 HD
ATOM     13  H   UNL     1       5.436  -0.696   0.005  0.00  0.00    +0.000 HD
ENDBRANCH   6  11
BRANCH   1  14
ATOM     14 SI   UNL     1      -3.336   0.136   0.001  0.00  0.00    +0.000 Si
ATOM     15  C   UNL     1      -3.374   1.178  -1.539  0.00  0.00    +0.000 C 
ATOM     16  C   UNL     1      -3.372   1.183   1.537  0.00  0.00    +0.000 C 
ATOM     17  C   UNL     1      -4.771  -1.058   0.004  0.00  0.00    +0.000 C 
ENDBRANCH   1  14
TORSDOF 2
