REMARK  Name = 9399926
REMARK  4 active torsions:
REMARK  status: ('A' for Active; 'I' for Inactive)
REMARK    1  A    between atoms: N_2  and  C_9
REMARK    2  A    between atoms: N_4  and  C_15
REMARK    3  A    between atoms: C_10  and  C_12
REMARK    4  A    between atoms: C_15  and  C_16
REMARK                            x       y       z     vdW  Elec       q    Type
REMARK                         _______ _______ _______ _____ _____    ______ ____
ROOT
ATOM      1  N   UNL     1      -2.689  -0.891   0.240  0.00  0.00    +0.000 NA
ATOM      2  C   UNL     1      -1.387  -0.482   0.022  0.00  0.00    +0.000 A 
ATOM      3  C   UNL     1      -1.111   0.896  -0.158  0.00  0.00    +0.000 A 
ATOM      4  C   UNL     1      -2.142   1.827  -0.115  0.00  0.00    +0.000 A 
ATOM      5  C   UNL     1      -3.666   0.043   0.275  0.00  0.00    +0.000 A 
ATOM      6  C   UNL     1      -3.447   1.401   0.105  0.00  0.00    +0.000 A 
ENDROOT
BRANCH   2   7
ATOM      7  N   UNL     1      -0.370  -1.411  -0.020  0.00  0.00    +0.000 N 
ATOM      8  C   UNL     1       1.226  -2.928  -0.846  0.00  0.00    +0.000 C 
ATOM      9  C   UNL     1       1.317  -2.897   0.670  0.00  0.00    +0.000 C 
ATOM     10  C   UNL     1       0.496  -1.628  -1.176  0.00  0.00    +0.000 C 
ATOM     11  C   UNL     1      -0.026  -2.301   1.086  0.00  0.00    +0.000 C 
ENDBRANCH   2   7
BRANCH   3  14
ATOM     12  O   UNL     1       0.693   1.460  -1.546  0.00  0.00    +0.000 OA
ATOM     13  N   UNL     1       1.012   1.678   0.740  0.00  0.00    +0.000 N 
ATOM     14  C   UNL     1       0.253   1.352  -0.389  0.00  0.00    +0.000 C 
ATOM     15  H   UNL     1       0.595   1.560   1.659  0.00  0.00    +0.000 HD
BRANCH  13  16
ATOM     16  C   UNL     1       2.370   2.167   0.674  0.00  0.00    +0.000 C 
BRANCH  16  17
ATOM     17  C   UNL     1       3.309   1.007   0.711  0.00  0.00    +0.000 C 
ATOM     18  C   UNL     1       4.162   0.706  -0.275  0.00  0.00    +0.000 C 
ENDBRANCH  16  17
ENDBRANCH  13  16
ENDBRANCH   3  14
TORSDOF 4
