REMARK  Name = 9500
REMARK  1 active torsions:
REMARK  status: ('A' for Active; 'I' for Inactive)
REMARK    1  A    between atoms: C_5  and  C_10
REMARK                            x       y       z     vdW  Elec       q    Type
REMARK                         _______ _______ _______ _____ _____    ______ ____
ROOT
ATOM      1  N   UNL     1      -1.387   1.209  -0.003  0.00  0.00    +0.000 NA
ATOM      2  N   UNL     1      -3.463   0.041  -0.002  0.00  0.00    +0.000 N 
ATOM      3  C   UNL     1       0.682  -0.042   0.002  0.00  0.00    +0.000 A 
ATOM      4  C   UNL     1      -0.031  -1.236   0.004  0.00  0.00    +0.000 A 
ATOM      5  C   UNL     1      -1.422  -1.208   0.003  0.00  0.00    +0.000 A 
ATOM      6  C   UNL     1      -2.046   0.029  -0.001  0.00  0.00    +0.000 A 
ATOM      7  C   UNL     1      -0.036   1.143  -0.001  0.00  0.00    +0.000 A 
ATOM      8  H   UNL     1      -3.914   0.947   0.002  0.00  0.00    +0.000 HD
ATOM      9  H   UNL     1      -3.951  -0.741   0.418  0.00  0.00    +0.000 HD
ENDROOT
BRANCH   3  12
ATOM     10  O   UNL     1       2.788  -1.096  -0.009  0.00  0.00    +0.000 OA
ATOM     11  N   UNL     1       2.780   1.197   0.002  0.00  0.00    +0.000 N 
ATOM     12  C   UNL     1       2.134  -0.037   0.004  0.00  0.00    +0.000 C 
ATOM     13  H   UNL     1       2.323   2.100   0.008  0.00  0.00    +0.000 HD
ATOM     14  H   UNL     1       3.795   1.229  -0.003  0.00  0.00    +0.000 HD
ENDBRANCH   3  12
TORSDOF 1
