REMARK  Name = 96420
REMARK  3 active torsions:
REMARK  status: ('A' for Active; 'I' for Inactive)
REMARK    1  A    between atoms: N_2  and  C_9
REMARK    2  A    between atoms: N_2  and  C_10
REMARK    3  A    between atoms: C_7  and  C_12
REMARK                            x       y       z     vdW  Elec       q    Type
REMARK                         _______ _______ _______ _____ _____    ______ ____
ROOT
ATOM      1  N   UNL     1      -2.764   0.020  -0.006  0.00  0.00    +0.000 N 
ATOM      2  N   UNL     1      -0.694   1.188  -0.163  0.00  0.00    +0.000 NA
ATOM      3  C   UNL     1      -1.347   0.015  -0.004  0.00  0.00    +0.000 A 
ATOM      4  C   UNL     1      -0.718  -1.208   0.164  0.00  0.00    +0.000 A 
ATOM      5  C   UNL     1       1.381  -0.042   0.008  0.00  0.00    +0.000 A 
ATOM      6  C   UNL     1       0.673  -1.228   0.168  0.00  0.00    +0.000 A 
ATOM      7  C   UNL     1      -3.495  -1.135  -0.480  0.00  0.00    +0.000 C 
ATOM      8  C   UNL     1      -3.489   1.174   0.479  0.00  0.00    +0.000 C 
ATOM      9  C   UNL     1       0.657   1.129  -0.153  0.00  0.00    +0.000 A 
ENDROOT
BRANCH   5  12
ATOM     10  O   UNL     1       3.492  -1.078   0.136  0.00  0.00    +0.000 OA
ATOM     11  N   UNL     1       3.473   1.196  -0.158  0.00  0.00    +0.000 N 
ATOM     12  C   UNL     1       2.833  -0.030   0.009  0.00  0.00    +0.000 C 
ATOM     13  H   UNL     1       3.012   2.090  -0.272  0.00  0.00    +0.000 HD
ATOM     14  H   UNL     1       4.487   1.232  -0.168  0.00  0.00    +0.000 HD
ENDBRANCH   5  12
TORSDOF 1
