REMARK  Name = 96892
REMARK  5 active torsions:
REMARK  status: ('A' for Active; 'I' for Inactive)
REMARK    1  A    between atoms: N_2  and  C_5
REMARK    2  A    between atoms: N_2  and  C_6
REMARK    3  A    between atoms: C_5  and  C_8
REMARK    4  A    between atoms: C_6  and  C_9
REMARK    5  A    between atoms: C_12  and  C_14
REMARK                            x       y       z     vdW  Elec       q    Type
REMARK                         _______ _______ _______ _____ _____    ______ ____
ROOT
ATOM      1  N   UNL     1      -2.256   0.012  -0.010  0.00  0.00    +0.000 N 
ATOM      2  N   UNL     1      -0.187   1.136  -0.374  0.00  0.00    +0.000 NA
ATOM      3  C   UNL     1      -0.839   0.010  -0.006  0.00  0.00    +0.000 A 
ATOM      4  C   UNL     1      -0.208  -1.161   0.380  0.00  0.00    +0.000 A 
ATOM      5  C   UNL     1       1.183  -1.178   0.389  0.00  0.00    +0.000 A 
ATOM      6  C   UNL     1       1.889  -0.040   0.016  0.00  0.00    +0.000 A 
ATOM      7  C   UNL     1       1.164   1.081  -0.354  0.00  0.00    +0.000 A 
ENDROOT
BRANCH   6  10
ATOM      8  O   UNL     1       4.002  -1.033   0.328  0.00  0.00    +0.000 OA
ATOM      9  N   UNL     1       3.979   1.151  -0.372  0.00  0.00    +0.000 N 
ATOM     10  C   UNL     1       3.341  -0.026   0.013  0.00  0.00    +0.000 C 
ATOM     11  H   UNL     1       3.517   2.008  -0.646  0.00  0.00    +0.000 HD
ATOM     12  H   UNL     1       4.993   1.186  -0.389  0.00  0.00    +0.000 HD
ENDBRANCH   6  10
BRANCH   1  13
ATOM     13  C   UNL     1      -2.986  -1.174   0.378  0.00  0.00    +0.000 C 
ATOM     14  C   UNL     1      -3.050  -2.140  -0.788  0.00  0.00    +0.000 C 
ENDBRANCH   1  13
BRANCH   1  15
ATOM     15  C   UNL     1      -2.981   1.205  -0.388  0.00  0.00    +0.000 C 
ATOM     16  C   UNL     1      -3.049   2.158   0.788  0.00  0.00    +0.000 C 
ENDBRANCH   1  15
TORSDOF 3
