REMARK  Name = 96933
REMARK  3 active torsions:
REMARK  status: ('A' for Active; 'I' for Inactive)
REMARK    1  A    between atoms: N_2  and  C_11
REMARK    2  A    between atoms: N_4  and  C_12
REMARK    3  A    between atoms: C_5  and  C_10
REMARK                            x       y       z     vdW  Elec       q    Type
REMARK                         _______ _______ _______ _____ _____    ______ ____
ROOT
ATOM      1  N   UNL     1      -3.420  -0.529   0.001  0.00  0.00    +0.000 N 
ATOM      2  N   UNL     1      -1.576   0.971   0.159  0.00  0.00    +0.000 NA
ATOM      3  C   UNL     1       0.674   0.117  -0.074  0.00  0.00    +0.000 A 
ATOM      4  C   UNL     1      -2.023  -0.291  -0.022  0.00  0.00    +0.000 A 
ATOM      5  C   UNL     1       0.175  -1.167  -0.257  0.00  0.00    +0.000 A 
ATOM      6  C   UNL     1      -1.198  -1.384  -0.232  0.00  0.00    +0.000 A 
ATOM      7  C   UNL     1      -0.235   1.143   0.128  0.00  0.00    +0.000 A 
ATOM      8  C   UNL     1      -4.375   0.511   0.210  0.00  0.00    +0.000 C 
ATOM      9  H   UNL     1      -3.724  -1.492   0.093  0.00  0.00    +0.000 HD
ENDROOT
BRANCH   3  12
ATOM     10  O   UNL     1       2.538   1.499  -0.413  0.00  0.00    +0.000 OA
ATOM     11  N   UNL     1       2.948  -0.677   0.273  0.00  0.00    +0.000 N 
ATOM     12  C   UNL     1       2.103   0.377  -0.097  0.00  0.00    +0.000 C 
ATOM     13  C   UNL     1       4.388  -0.569   0.324  0.00  0.00    +0.000 C 
ATOM     14  H   UNL     1       2.552  -1.551   0.603  0.00  0.00    +0.000 HD
ENDBRANCH   3  12
TORSDOF 1
