REMARK  Name = 9942190
REMARK  3 active torsions:
REMARK  status: ('A' for Active; 'I' for Inactive)
REMARK    1  A    between atoms: N_3  and  C_7
REMARK    2  A    between atoms: N_4  and  C_9
REMARK    3  A    between atoms: C_6  and  C_11
REMARK                            x       y       z     vdW  Elec       q    Type
REMARK                         _______ _______ _______ _____ _____    ______ ____
ROOT
ATOM      1  N   UNL     1       0.973  -1.583  -0.002  0.00  0.00    +0.000 NA
ATOM      2  C   UNL     1      -0.893  -0.047   0.002  0.00  0.00    +0.000 A 
ATOM      3  C   UNL     1       1.357   0.804   0.002  0.00  0.00    +0.000 A 
ATOM      4  C   UNL     1      -0.015   1.032   0.003  0.00  0.00    +0.000 A 
ATOM      5  C   UNL     1       1.796  -0.510  -0.001  0.00  0.00    +0.000 A 
ATOM      6  C   UNL     1      -0.353  -1.323  -0.001  0.00  0.00    +0.000 A 
ENDROOT
BRANCH   2   9
ATOM      7  O   UNL     1      -2.826   1.299  -0.010  0.00  0.00    +0.000 OA
ATOM      8  N   UNL     1      -3.147  -0.971   0.003  0.00  0.00    +0.000 N 
ATOM      9  C   UNL     1      -2.331   0.157   0.004  0.00  0.00    +0.000 C 
ATOM     10  H   UNL     1      -2.825  -1.931   0.009  0.00  0.00    +0.000 HD
ATOM     11  H   UNL     1      -4.156  -0.857  -0.003  0.00  0.00    +0.000 HD
ENDBRANCH   2   9
BRANCH   3  12
ATOM     12  N   UNL     1       2.247   1.894   0.002  0.00  0.00    +0.000 N 
ATOM     13  H   UNL     1       3.245   1.742   0.058  0.00  0.00    +0.000 HD
ATOM     14  H   UNL     1       1.887   2.839   0.013  0.00  0.00    +0.000 HD
ENDBRANCH   3  12
BRANCH   5  15
ATOM     15  N   UNL     1       3.193  -0.752  -0.003  0.00  0.00    +0.000 N 
ATOM     16  H   UNL     1       3.791  -0.096  -0.489  0.00  0.00    +0.000 HD
ATOM     17  H   UNL     1       3.479  -1.723   0.005  0.00  0.00    +0.000 HD
ENDBRANCH   5  15
TORSDOF 3
