MODEL 1
REMARK VINA RESULT:    -6.491      0.000      0.000
REMARK INTER + INTRA:          -8.460
REMARK INTER:                  -7.819
REMARK INTRA:                  -0.642
REMARK UNBOUND:                -0.642
REMARK  Name = 
REMARK  5 active torsions:
REMARK  status: ('A' for Active; 'I' for Inactive)
REMARK    1  A    between atoms: C_1  and  C_2
REMARK    2  A    between atoms: C_6  and  C_7
REMARK    3  A    between atoms: C_7  and  O_8
REMARK    4  A    between atoms: N_9  and  C_10
REMARK    5  A    between atoms: C_10  and  C_11
REMARK                            x       y       z     vdW  Elec       q    Type
REMARK                         _______ _______ _______ _____ _____    ______ ____
ROOT
ATOM      1  C   UNL     1     -18.146  39.692 -11.588  0.00  0.00    +0.199 C 
ATOM      2  C   UNL     1     -18.659  40.962 -12.219  0.00  0.00    +0.563 C 
ATOM      3  O   UNL     1     -19.756  40.971 -12.786  0.00  0.00    -0.498 OA
ATOM      4  N   UNL     1     -17.862  42.108 -12.137  0.00  0.00    -0.570 N 
ATOM      5  C   UNL     1     -18.290  43.366 -12.573  0.00  0.00    +0.263 C 
ATOM      6  C   UNL     1     -17.760  44.560 -12.705  0.00  0.00    -0.177 C 
ATOM      7  C   UNL     1     -16.408  44.423 -12.230  0.00  0.00    +0.060 C 
ATOM      8  C   UNL     1     -15.878  43.430 -11.808  0.00  0.00    -0.103 C 
ATOM      9  C   UNL     1     -16.495  42.115 -11.695  0.00  0.00    +0.448 C 
ATOM     10  N   UNL     1     -15.758  41.168 -11.250  0.00  0.00    -0.608 NA
ATOM     11  H   UNL     1     -14.814  41.507 -11.033  0.00  0.00    +0.292 HD
ENDROOT
BRANCH   6  12
ATOM     12  C   UNL     1     -18.442  45.820 -13.042  0.00  0.00    +0.454 C 
ATOM     13  N   UNL     1     -18.681  46.351 -14.181  0.00  0.00    -0.371 NA
BRANCH  12  14
ATOM     14  O   UNL     1     -18.849  46.516 -11.958  0.00  0.00    -0.576 OA
ATOM     15  H   UNL     1     -18.221  46.541 -11.220  0.00  0.00    +0.321 HD
ENDBRANCH  12  14
BRANCH  13  16
ATOM     16  C   UNL     1     -18.322  45.613 -15.387  0.00  0.00    +0.238 C 
BRANCH  16  17
ATOM     17  C   UNL     1     -19.528  45.040 -16.074  0.00  0.00    +0.027 C 
ATOM     18  C   UNL     1     -20.340  45.859 -16.865  0.00  0.00    +0.001 C 
ATOM     19  C   UNL     1     -21.454  45.334 -17.515  0.00  0.00    +0.011 C 
ATOM     20  C   UNL     1     -21.770  43.986 -17.369  0.00  0.00    +0.008 C 
ATOM     21  C   UNL     1     -20.977  43.167 -16.570  0.00  0.00    +0.011 C 
ATOM     22  C   UNL     1     -19.862  43.693 -15.921  0.00  0.00    +0.007 C 
ENDBRANCH  16  17
ENDBRANCH  13  16
ENDBRANCH   6  12
TORSDOF 4
ENDMDL
MODEL 2
REMARK VINA RESULT:    -6.071      3.324      7.677
REMARK INTER + INTRA:          -7.956
REMARK INTER:                  -7.580
REMARK INTRA:                  -0.376
REMARK UNBOUND:                -0.642
REMARK  Name = 
REMARK  5 active torsions:
REMARK  status: ('A' for Active; 'I' for Inactive)
REMARK    1  A    between atoms: C_1  and  C_2
REMARK    2  A    between atoms: C_6  and  C_7
REMARK    3  A    between atoms: C_7  and  O_8
REMARK    4  A    between atoms: N_9  and  C_10
REMARK    5  A    between atoms: C_10  and  C_11
REMARK                            x       y       z     vdW  Elec       q    Type
REMARK                         _______ _______ _______ _____ _____    ______ ____
ROOT
ATOM      1  C   UNL     1     -21.844  48.380 -19.550  0.00  0.00    +0.199 C 
ATOM      2  C   UNL     1     -21.195  47.034 -19.346  0.00  0.00    +0.563 C 
ATOM      3  O   UNL     1     -20.178  46.736 -19.980  0.00  0.00    -0.498 OA
ATOM      4  N   UNL     1     -21.776  46.155 -18.427  0.00  0.00    -0.570 N 
ATOM      5  C   UNL     1     -21.191  44.937 -18.065  0.00  0.00    +0.263 C 
ATOM      6  C   UNL     1     -21.525  43.902 -17.329  0.00  0.00    -0.177 C 
ATOM      7  C   UNL     1     -22.822  44.223 -16.796  0.00  0.00    +0.060 C 
ATOM      8  C   UNL     1     -23.464  45.222 -16.986  0.00  0.00    -0.103 C 
ATOM      9  C   UNL     1     -23.068  46.345 -17.827  0.00  0.00    +0.448 C 
ATOM     10  N   UNL     1     -23.901  47.310 -17.933  0.00  0.00    -0.608 NA
ATOM     11  H   UNL     1     -24.747  47.128 -17.380  0.00  0.00    +0.292 HD
ENDROOT
BRANCH   6  12
ATOM     12  C   UNL     1     -20.681  42.761 -16.937  0.00  0.00    +0.454 C 
ATOM     13  N   UNL     1     -19.850  42.641 -15.971  0.00  0.00    -0.371 NA
BRANCH  12  14
ATOM     14  O   UNL     1     -20.806  41.695 -17.757  0.00  0.00    -0.576 OA
ATOM     15  H   UNL     1     -21.646  41.636 -18.237  0.00  0.00    +0.321 HD
ENDBRANCH  12  14
BRANCH  13  16
ATOM     16  C   UNL     1     -19.722  43.737 -15.017  0.00  0.00    +0.238 C 
BRANCH  16  17
ATOM     17  C   UNL     1     -19.102  43.286 -13.726  0.00  0.00    +0.027 C 
ATOM     18  C   UNL     1     -19.409  42.026 -13.202  0.00  0.00    +0.001 C 
ATOM     19  C   UNL     1     -18.830  41.595 -12.011  0.00  0.00    +0.011 C 
ATOM     20  C   UNL     1     -17.945  42.426 -11.331  0.00  0.00    +0.008 C 
ATOM     21  C   UNL     1     -17.647  43.689 -11.835  0.00  0.00    +0.011 C 
ATOM     22  C   UNL     1     -18.226  44.119 -13.027  0.00  0.00    +0.007 C 
ENDBRANCH  16  17
ENDBRANCH  13  16
ENDBRANCH   6  12
TORSDOF 4
ENDMDL
MODEL 3
REMARK VINA RESULT:    -5.711      3.218      4.837
REMARK INTER + INTRA:          -7.522
REMARK INTER:                  -7.144
REMARK INTRA:                  -0.377
REMARK UNBOUND:                -0.642
REMARK  Name = 
REMARK  5 active torsions:
REMARK  status: ('A' for Active; 'I' for Inactive)
REMARK    1  A    between atoms: C_1  and  C_2
REMARK    2  A    between atoms: C_6  and  C_7
REMARK    3  A    between atoms: C_7  and  O_8
REMARK    4  A    between atoms: N_9  and  C_10
REMARK    5  A    between atoms: C_10  and  C_11
REMARK                            x       y       z     vdW  Elec       q    Type
REMARK                         _______ _______ _______ _____ _____    ______ ____
ROOT
ATOM      1  C   UNL     1     -19.181  39.922 -11.692  0.00  0.00    +0.199 C 
ATOM      2  C   UNL     1     -18.861  41.098 -12.580  0.00  0.00    +0.563 C 
ATOM      3  O   UNL     1     -19.610  41.387 -13.519  0.00  0.00    -0.498 OA
ATOM      4  N   UNL     1     -17.707  41.839 -12.304  0.00  0.00    -0.570 N 
ATOM      5  C   UNL     1     -17.380  43.019 -12.978  0.00  0.00    +0.263 C 
ATOM      6  C   UNL     1     -16.365  43.852 -13.003  0.00  0.00    -0.177 C 
ATOM      7  C   UNL     1     -15.429  43.331 -12.042  0.00  0.00    +0.060 C 
ATOM      8  C   UNL     1     -15.549  42.344 -11.365  0.00  0.00    -0.103 C 
ATOM      9  C   UNL     1     -16.685  41.432 -11.379  0.00  0.00    +0.448 C 
ATOM     10  N   UNL     1     -16.618  40.413 -10.607  0.00  0.00    -0.608 NA
ATOM     11  H   UNL     1     -15.737  40.410 -10.079  0.00  0.00    +0.292 HD
ENDROOT
BRANCH   6  12
ATOM     12  C   UNL     1     -16.281  45.155 -13.683  0.00  0.00    +0.454 C 
ATOM     13  N   UNL     1     -16.895  46.252 -13.446  0.00  0.00    -0.371 NA
BRANCH  12  14
ATOM     14  O   UNL     1     -15.430  45.159 -14.732  0.00  0.00    -0.576 OA
ATOM     15  H   UNL     1     -14.626  45.686 -14.613  0.00  0.00    +0.321 HD
ENDBRANCH  12  14
BRANCH  13  16
ATOM     16  C   UNL     1     -17.777  46.324 -12.285  0.00  0.00    +0.238 C 
BRANCH  16  17
ATOM     17  C   UNL     1     -17.594  47.603 -11.521  0.00  0.00    +0.027 C 
ATOM     18  C   UNL     1     -16.325  48.181 -11.415  0.00  0.00    +0.001 C 
ATOM     19  C   UNL     1     -16.147  49.373 -10.717  0.00  0.00    +0.011 C 
ATOM     20  C   UNL     1     -17.238  49.991 -10.113  0.00  0.00    +0.008 C 
ATOM     21  C   UNL     1     -18.502  49.415 -10.199  0.00  0.00    +0.011 C 
ATOM     22  C   UNL     1     -18.679  48.222 -10.897  0.00  0.00    +0.007 C 
ENDBRANCH  16  17
ENDBRANCH  13  16
ENDBRANCH   6  12
TORSDOF 4
ENDMDL
MODEL 4
REMARK VINA RESULT:    -5.659      2.545      3.495
REMARK INTER + INTRA:          -7.459
REMARK INTER:                  -6.881
REMARK INTRA:                  -0.577
REMARK UNBOUND:                -0.642
REMARK  Name = 
REMARK  5 active torsions:
REMARK  status: ('A' for Active; 'I' for Inactive)
REMARK    1  A    between atoms: C_1  and  C_2
REMARK    2  A    between atoms: C_6  and  C_7
REMARK    3  A    between atoms: C_7  and  O_8
REMARK    4  A    between atoms: N_9  and  C_10
REMARK    5  A    between atoms: C_10  and  C_11
REMARK                            x       y       z     vdW  Elec       q    Type
REMARK                         _______ _______ _______ _____ _____    ______ ____
ROOT
ATOM      1  C   UNL     1     -18.224  40.856 -11.022  0.00  0.00    +0.199 C 
ATOM      2  C   UNL     1     -19.021  40.926 -12.301  0.00  0.00    +0.563 C 
ATOM      3  O   UNL     1     -19.623  39.928 -12.709  0.00  0.00    -0.498 OA
ATOM      4  N   UNL     1     -19.055  42.142 -12.991  0.00  0.00    -0.570 N 
ATOM      5  C   UNL     1     -19.860  42.357 -14.114  0.00  0.00    +0.263 C 
ATOM      6  C   UNL     1     -20.034  43.319 -14.992  0.00  0.00    -0.177 C 
ATOM      7  C   UNL     1     -19.138  44.367 -14.581  0.00  0.00    +0.060 C 
ATOM      8  C   UNL     1     -18.389  44.362 -13.640  0.00  0.00    -0.103 C 
ATOM      9  C   UNL     1     -18.209  43.265 -12.697  0.00  0.00    +0.448 C 
ATOM     10  N   UNL     1     -17.339  43.434 -11.774  0.00  0.00    -0.608 NA
ATOM     11  H   UNL     1     -16.894  44.356 -11.851  0.00  0.00    +0.292 HD
ENDROOT
BRANCH   6  12
ATOM     12  C   UNL     1     -21.070  43.417 -16.032  0.00  0.00    +0.454 C 
ATOM     13  N   UNL     1     -20.967  43.385 -17.307  0.00  0.00    -0.371 NA
BRANCH  12  14
ATOM     14  O   UNL     1     -22.315  43.589 -15.535  0.00  0.00    -0.576 OA
ATOM     15  H   UNL     1     -22.389  43.531 -14.570  0.00  0.00    +0.321 HD
ENDBRANCH  12  14
BRANCH  13  16
ATOM     16  C   UNL     1     -19.657  43.136 -17.898  0.00  0.00    +0.238 C 
BRANCH  16  17
ATOM     17  C   UNL     1     -19.108  44.357 -18.579  0.00  0.00    +0.027 C 
ATOM     18  C   UNL     1     -19.518  45.630 -18.173  0.00  0.00    +0.001 C 
ATOM     19  C   UNL     1     -19.006  46.769 -18.792  0.00  0.00    +0.011 C 
ATOM     20  C   UNL     1     -18.087  46.639 -19.829  0.00  0.00    +0.008 C 
ATOM     21  C   UNL     1     -17.686  45.375 -20.251  0.00  0.00    +0.011 C 
ATOM     22  C   UNL     1     -18.198  44.237 -19.632  0.00  0.00    +0.007 C 
ENDBRANCH  16  17
ENDBRANCH  13  16
ENDBRANCH   6  12
TORSDOF 4
ENDMDL
MODEL 5
REMARK VINA RESULT:    -5.394     19.895     23.968
REMARK INTER + INTRA:          -7.140
REMARK INTER:                  -6.518
REMARK INTRA:                  -0.622
REMARK UNBOUND:                -0.642
REMARK  Name = 
REMARK  5 active torsions:
REMARK  status: ('A' for Active; 'I' for Inactive)
REMARK    1  A    between atoms: C_1  and  C_2
REMARK    2  A    between atoms: C_6  and  C_7
REMARK    3  A    between atoms: C_7  and  O_8
REMARK    4  A    between atoms: N_9  and  C_10
REMARK    5  A    between atoms: C_10  and  C_11
REMARK                            x       y       z     vdW  Elec       q    Type
REMARK                         _______ _______ _______ _____ _____    ______ ____
ROOT
ATOM      1  C   UNL     1     -23.258  34.173   2.575  0.00  0.00    +0.199 C 
ATOM      2  C   UNL     1     -23.274  32.959   3.469  0.00  0.00    +0.563 C 
ATOM      3  O   UNL     1     -24.071  32.895   4.411  0.00  0.00    -0.498 OA
ATOM      4  N   UNL     1     -22.372  31.926   3.196  0.00  0.00    -0.570 N 
ATOM      5  C   UNL     1     -22.383  30.705   3.877  0.00  0.00    +0.263 C 
ATOM      6  C   UNL     1     -21.638  29.623   3.905  0.00  0.00    -0.177 C 
ATOM      7  C   UNL     1     -20.598  29.859   2.939  0.00  0.00    +0.060 C 
ATOM      8  C   UNL     1     -20.442  30.836   2.256  0.00  0.00    -0.103 C 
ATOM      9  C   UNL     1     -21.280  32.028   2.266  0.00  0.00    +0.448 C 
ATOM     10  N   UNL     1     -20.935  32.983   1.488  0.00  0.00    -0.608 NA
ATOM     11  H   UNL     1     -20.090  32.739   0.958  0.00  0.00    +0.292 HD
ENDROOT
BRANCH   6  12
ATOM     12  C   UNL     1     -21.917  28.352   4.593  0.00  0.00    +0.454 C 
ATOM     13  N   UNL     1     -21.298  27.780   5.555  0.00  0.00    -0.371 NA
BRANCH  12  14
ATOM     14  O   UNL     1     -22.988  27.696   4.095  0.00  0.00    -0.576 OA
ATOM     15  H   UNL     1     -22.910  26.731   4.071  0.00  0.00    +0.321 HD
ENDBRANCH  12  14
BRANCH  13  16
ATOM     16  C   UNL     1     -20.173  28.473   6.176  0.00  0.00    +0.238 C 
BRANCH  16  17
ATOM     17  C   UNL     1     -18.899  27.687   6.063  0.00  0.00    +0.027 C 
ATOM     18  C   UNL     1     -18.441  26.934   7.149  0.00  0.00    +0.001 C 
ATOM     19  C   UNL     1     -17.266  26.193   7.050  0.00  0.00    +0.011 C 
ATOM     20  C   UNL     1     -16.536  26.208   5.866  0.00  0.00    +0.008 C 
ATOM     21  C   UNL     1     -16.975  26.968   4.785  0.00  0.00    +0.011 C 
ATOM     22  C   UNL     1     -18.150  27.708   4.885  0.00  0.00    +0.007 C 
ENDBRANCH  16  17
ENDBRANCH  13  16
ENDBRANCH   6  12
TORSDOF 4
ENDMDL
