MODEL 1
REMARK VINA RESULT:    -7.244      0.000      0.000
REMARK INTER + INTRA:          -9.752
REMARK INTER:                  -8.938
REMARK INTRA:                  -0.813
REMARK UNBOUND:                -0.813
REMARK  Name = 
REMARK  4 active torsions:
REMARK  status: ('A' for Active; 'I' for Inactive)
REMARK    1  A    between atoms: C_5  and  C_6
REMARK    2  A    between atoms: C_6  and  N_8
REMARK    3  A    between atoms: N_12  and  C_13
REMARK    4  A    between atoms: C_13  and  C_14
REMARK                            x       y       z     vdW  Elec       q    Type
REMARK                         _______ _______ _______ _____ _____    ______ ____
ROOT
ATOM      1  N   UNL     1     -14.945  41.940 -10.994  0.00  0.00    -0.869 N 
ATOM      2  C   UNL     1     -16.085  41.430 -11.410  0.00  0.00    +0.668 C 
ATOM      3  C   UNL     1     -16.159  39.984 -11.743  0.00  0.00    +0.122 C 
ATOM      4  C   UNL     1     -17.100  39.716 -12.929  0.00  0.00    +0.254 C 
ATOM      5  C   UNL     1     -18.463  40.413 -12.779  0.00  0.00    -0.034 C 
ATOM      6  C   UNL     1     -18.193  41.865 -12.508  0.00  0.00    +0.507 C 
ATOM      7  N   UNL     1     -18.608  42.937 -13.073  0.00  0.00    -0.441 NA
ATOM      8  N   UNL     1     -17.123  42.194 -11.628  0.00  0.00    -0.717 N 
ATOM      9  H   UNL     1     -14.106  41.376 -10.909  0.00  0.00    +0.365 HD
ATOM     10  H   UNL     1     -14.838  42.936 -10.828  0.00  0.00    +0.377 HD
ATOM     11  H   UNL     1     -17.088  43.174 -11.377  0.00  0.00    +0.366 HD
ENDROOT
BRANCH   5  12
ATOM     12  C   UNL     1     -19.249  39.806 -11.622  0.00  0.00    +0.583 C 
ATOM     13  O   UNL     1     -19.551  38.612 -11.655  0.00  0.00    -0.459 OA
BRANCH  12  14
ATOM     14  N   UNL     1     -19.634  40.696 -10.652  0.00  0.00    -0.650 NA
ATOM     15  C   UNL     1     -20.001  40.213  -9.643  0.00  0.00    +0.815 C 
ATOM     16  O   UNL     1     -20.393  39.735  -8.648  0.00  0.00    -0.476 OA
ENDBRANCH  12  14
ENDBRANCH   5  12
BRANCH   7  17
ATOM     17  C   UNL     1     -19.251  43.023 -14.234  0.00  0.00    +0.255 C 
BRANCH  17  18
ATOM     18  C   UNL     1     -19.805  43.633 -15.398  0.00  0.00    -0.046 C 
ATOM     19  C   UNL     1     -19.245  44.852 -15.802  0.00  0.00    +0.080 C 
ATOM     20  C   UNL     1     -19.885  45.645 -16.750  0.00  0.00    +0.071 C 
ATOM     21  C   UNL     1     -21.090  45.216 -17.293  0.00  0.00    +0.080 C 
ATOM     22  C   UNL     1     -21.630  43.985 -16.916  0.00  0.00    +0.073 C 
ATOM     23  C   UNL     1     -20.994  43.193 -15.959  0.00  0.00    +0.075 C 
ENDBRANCH  17  18
ENDBRANCH   7  17
TORSDOF 4
ENDMDL
MODEL 2
REMARK VINA RESULT:    -6.726      2.140      3.679
REMARK INTER + INTRA:          -9.112
REMARK INTER:                  -8.226
REMARK INTRA:                  -0.886
REMARK UNBOUND:                -0.813
REMARK  Name = 
REMARK  4 active torsions:
REMARK  status: ('A' for Active; 'I' for Inactive)
REMARK    1  A    between atoms: C_5  and  C_6
REMARK    2  A    between atoms: C_6  and  N_8
REMARK    3  A    between atoms: N_12  and  C_13
REMARK    4  A    between atoms: C_13  and  C_14
REMARK                            x       y       z     vdW  Elec       q    Type
REMARK                         _______ _______ _______ _____ _____    ______ ____
ROOT
ATOM      1  N   UNL     1     -20.520  39.695  -9.042  0.00  0.00    -0.869 N 
ATOM      2  C   UNL     1     -19.587  40.291  -9.755  0.00  0.00    +0.668 C 
ATOM      3  C   UNL     1     -18.549  41.102  -9.068  0.00  0.00    +0.122 C 
ATOM      4  C   UNL     1     -18.142  42.333  -9.894  0.00  0.00    +0.254 C 
ATOM      5  C   UNL     1     -17.825  41.990 -11.359  0.00  0.00    -0.034 C 
ATOM      6  C   UNL     1     -19.000  41.230 -11.902  0.00  0.00    +0.507 C 
ATOM      7  N   UNL     1     -19.732  41.405 -12.940  0.00  0.00    -0.441 NA
ATOM      8  N   UNL     1     -19.619  40.262 -11.062  0.00  0.00    -0.717 N 
ATOM      9  H   UNL     1     -20.561  39.786  -8.032  0.00  0.00    +0.365 HD
ATOM     10  H   UNL     1     -21.286  39.195  -9.482  0.00  0.00    +0.377 HD
ATOM     11  H   UNL     1     -20.307  39.690 -11.536  0.00  0.00    +0.366 HD
ENDROOT
BRANCH   5  12
ATOM     12  C   UNL     1     -16.567  41.133 -11.447  0.00  0.00    +0.583 C 
ATOM     13  O   UNL     1     -16.673  39.912 -11.572  0.00  0.00    -0.459 OA
BRANCH  12  14
ATOM     14  N   UNL     1     -15.388  41.816 -11.290  0.00  0.00    -0.650 NA
ATOM     15  C   UNL     1     -15.286  42.799 -11.931  0.00  0.00    +0.815 C 
ATOM     16  O   UNL     1     -15.172  43.762 -12.587  0.00  0.00    -0.476 OA
ENDBRANCH  12  14
ENDBRANCH   5  12
BRANCH   7  17
ATOM     17  C   UNL     1     -19.759  42.483 -13.718  0.00  0.00    +0.255 C 
BRANCH  17  18
ATOM     18  C   UNL     1     -19.255  43.548 -14.522  0.00  0.00    -0.046 C 
ATOM     19  C   UNL     1     -18.483  44.521 -13.874  0.00  0.00    +0.080 C 
ATOM     20  C   UNL     1     -18.180  45.721 -14.508  0.00  0.00    +0.071 C 
ATOM     21  C   UNL     1     -18.653  45.949 -15.795  0.00  0.00    +0.080 C 
ATOM     22  C   UNL     1     -19.393  44.965 -16.453  0.00  0.00    +0.073 C 
ATOM     23  C   UNL     1     -19.705  43.764 -15.815  0.00  0.00    +0.075 C 
ENDBRANCH  17  18
ENDBRANCH   7  17
TORSDOF 4
ENDMDL
MODEL 3
REMARK VINA RESULT:    -6.562      2.272      3.051
REMARK INTER + INTRA:          -8.910
REMARK INTER:                  -8.037
REMARK INTRA:                  -0.872
REMARK UNBOUND:                -0.813
REMARK  Name = 
REMARK  4 active torsions:
REMARK  status: ('A' for Active; 'I' for Inactive)
REMARK    1  A    between atoms: C_5  and  C_6
REMARK    2  A    between atoms: C_6  and  N_8
REMARK    3  A    between atoms: N_12  and  C_13
REMARK    4  A    between atoms: C_13  and  C_14
REMARK                            x       y       z     vdW  Elec       q    Type
REMARK                         _______ _______ _______ _____ _____    ______ ____
ROOT
ATOM      1  N   UNL     1     -15.057  39.711 -11.605  0.00  0.00    -0.869 N 
ATOM      2  C   UNL     1     -16.218  40.257 -11.311  0.00  0.00    +0.668 C 
ATOM      3  C   UNL     1     -17.471  39.534 -11.648  0.00  0.00    +0.122 C 
ATOM      4  C   UNL     1     -18.592  40.497 -12.073  0.00  0.00    +0.254 C 
ATOM      5  C   UNL     1     -18.770  41.672 -11.098  0.00  0.00    -0.034 C 
ATOM      6  C   UNL     1     -17.424  42.315 -10.925  0.00  0.00    +0.507 C 
ATOM      7  N   UNL     1     -17.026  43.526 -11.054  0.00  0.00    -0.441 NA
ATOM      8  N   UNL     1     -16.286  41.467 -10.818  0.00  0.00    -0.717 N 
ATOM      9  H   UNL     1     -14.991  38.813 -12.072  0.00  0.00    +0.365 HD
ATOM     10  H   UNL     1     -14.183  40.208 -11.455  0.00  0.00    +0.377 HD
ATOM     11  H   UNL     1     -15.437  41.954 -10.560  0.00  0.00    +0.366 HD
ENDROOT
BRANCH   5  12
ATOM     12  C   UNL     1     -19.286  41.177  -9.752  0.00  0.00    +0.583 C 
ATOM     13  O   UNL     1     -20.217  40.371  -9.719  0.00  0.00    -0.459 OA
BRANCH  12  14
ATOM     14  N   UNL     1     -18.701  41.759  -8.657  0.00  0.00    -0.650 NA
ATOM     15  C   UNL     1     -19.388  41.846  -7.704  0.00  0.00    +0.815 C 
ATOM     16  O   UNL     1     -20.079  41.958  -6.765  0.00  0.00    -0.476 OA
ENDBRANCH  12  14
ENDBRANCH   5  12
BRANCH   7  17
ATOM     17  C   UNL     1     -17.704  44.528 -11.606  0.00  0.00    +0.255 C 
BRANCH  17  18
ATOM     18  C   UNL     1     -18.114  45.452 -12.612  0.00  0.00    -0.046 C 
ATOM     19  C   UNL     1     -18.479  44.917 -13.854  0.00  0.00    +0.080 C 
ATOM     20  C   UNL     1     -18.630  45.743 -14.963  0.00  0.00    +0.071 C 
ATOM     21  C   UNL     1     -18.413  47.109 -14.829  0.00  0.00    +0.080 C 
ATOM     22  C   UNL     1     -18.084  47.646 -13.583  0.00  0.00    +0.073 C 
ATOM     23  C   UNL     1     -17.924  46.818 -12.472  0.00  0.00    +0.075 C 
ENDBRANCH  17  18
ENDBRANCH   7  17
TORSDOF 4
ENDMDL
MODEL 4
REMARK VINA RESULT:    -6.104      4.330      7.216
REMARK INTER + INTRA:          -8.344
REMARK INTER:                  -7.468
REMARK INTRA:                  -0.876
REMARK UNBOUND:                -0.813
REMARK  Name = 
REMARK  4 active torsions:
REMARK  status: ('A' for Active; 'I' for Inactive)
REMARK    1  A    between atoms: C_5  and  C_6
REMARK    2  A    between atoms: C_6  and  N_8
REMARK    3  A    between atoms: N_12  and  C_13
REMARK    4  A    between atoms: C_13  and  C_14
REMARK                            x       y       z     vdW  Elec       q    Type
REMARK                         _______ _______ _______ _____ _____    ______ ____
ROOT
ATOM      1  N   UNL     1     -18.119  43.096 -19.666  0.00  0.00    -0.869 N 
ATOM      2  C   UNL     1     -18.832  43.745 -18.770  0.00  0.00    +0.668 C 
ATOM      3  C   UNL     1     -18.744  45.227 -18.699  0.00  0.00    +0.122 C 
ATOM      4  C   UNL     1     -18.847  45.739 -17.253  0.00  0.00    +0.254 C 
ATOM      5  C   UNL     1     -20.032  45.129 -16.486  0.00  0.00    -0.034 C 
ATOM      6  C   UNL     1     -19.924  43.637 -16.617  0.00  0.00    +0.507 C 
ATOM      7  N   UNL     1     -19.912  42.696 -15.746  0.00  0.00    -0.441 NA
ATOM      8  N   UNL     1     -19.539  43.100 -17.877  0.00  0.00    -0.717 N 
ATOM      9  H   UNL     1     -17.495  43.579 -20.304  0.00  0.00    +0.365 HD
ATOM     10  H   UNL     1     -18.099  42.082 -19.694  0.00  0.00    +0.377 HD
ATOM     11  H   UNL     1     -19.626  42.093 -17.937  0.00  0.00    +0.366 HD
ENDROOT
BRANCH   5  12
ATOM     12  C   UNL     1     -21.354  45.607 -17.076  0.00  0.00    +0.583 C 
ATOM     13  O   UNL     1     -21.530  46.811 -17.270  0.00  0.00    -0.459 OA
BRANCH  12  14
ATOM     14  N   UNL     1     -22.293  44.626 -17.266  0.00  0.00    -0.650 NA
ATOM     15  C   UNL     1     -23.413  44.990 -17.243  0.00  0.00    +0.815 C 
ATOM     16  O   UNL     1     -24.528  45.345 -17.194  0.00  0.00    -0.476 OA
ENDBRANCH  12  14
ENDBRANCH   5  12
BRANCH   7  17
ATOM     17  C   UNL     1     -19.775  42.835 -14.431  0.00  0.00    +0.255 C 
BRANCH  17  18
ATOM     18  C   UNL     1     -19.148  42.770 -13.152  0.00  0.00    -0.046 C 
ATOM     19  C   UNL     1     -18.234  43.785 -12.841  0.00  0.00    +0.080 C 
ATOM     20  C   UNL     1     -17.384  43.661 -11.747  0.00  0.00    +0.071 C 
ATOM     21  C   UNL     1     -17.447  42.515 -10.963  0.00  0.00    +0.080 C 
ATOM     22  C   UNL     1     -18.382  41.519 -11.253  0.00  0.00    +0.073 C 
ATOM     23  C   UNL     1     -19.229  41.639 -12.354  0.00  0.00    +0.075 C 
ENDBRANCH  17  18
ENDBRANCH   7  17
TORSDOF 4
ENDMDL
MODEL 5
REMARK VINA RESULT:    -5.982      3.030      6.365
REMARK INTER + INTRA:          -8.194
REMARK INTER:                  -7.396
REMARK INTRA:                  -0.797
REMARK UNBOUND:                -0.813
REMARK  Name = 
REMARK  4 active torsions:
REMARK  status: ('A' for Active; 'I' for Inactive)
REMARK    1  A    between atoms: C_5  and  C_6
REMARK    2  A    between atoms: C_6  and  N_8
REMARK    3  A    between atoms: N_12  and  C_13
REMARK    4  A    between atoms: C_13  and  C_14
REMARK                            x       y       z     vdW  Elec       q    Type
REMARK                         _______ _______ _______ _____ _____    ______ ____
ROOT
ATOM      1  N   UNL     1     -19.220  41.634  -8.154  0.00  0.00    -0.869 N 
ATOM      2  C   UNL     1     -18.757  41.468  -9.375  0.00  0.00    +0.668 C 
ATOM      3  C   UNL     1     -18.882  40.141 -10.030  0.00  0.00    +0.122 C 
ATOM      4  C   UNL     1     -17.670  39.824 -10.922  0.00  0.00    +0.254 C 
ATOM      5  C   UNL     1     -17.310  40.978 -11.872  0.00  0.00    -0.034 C 
ATOM      6  C   UNL     1     -17.166  42.216 -11.034  0.00  0.00    +0.507 C 
ATOM      7  N   UNL     1     -16.222  43.075 -10.924  0.00  0.00    -0.441 NA
ATOM      8  N   UNL     1     -18.101  42.425  -9.981  0.00  0.00    -0.717 N 
ATOM      9  H   UNL     1     -19.649  40.874  -7.638  0.00  0.00    +0.365 HD
ATOM     10  H   UNL     1     -19.087  42.505  -7.650  0.00  0.00    +0.377 HD
ATOM     11  H   UNL     1     -18.036  43.340  -9.553  0.00  0.00    +0.366 HD
ENDROOT
BRANCH   5  12
ATOM     12  C   UNL     1     -18.409  41.179 -12.909  0.00  0.00    +0.583 C 
ATOM     13  O   UNL     1     -18.832  40.209 -13.539  0.00  0.00    -0.459 OA
BRANCH  12  14
ATOM     14  N   UNL     1     -18.783  42.483 -13.113  0.00  0.00    -0.650 NA
ATOM     15  C   UNL     1     -19.589  42.649 -13.956  0.00  0.00    +0.815 C 
ATOM     16  O   UNL     1     -20.370  42.820 -14.812  0.00  0.00    -0.476 OA
ENDBRANCH  12  14
ENDBRANCH   5  12
BRANCH   7  17
ATOM     17  C   UNL     1     -14.986  42.958 -11.399  0.00  0.00    +0.255 C 
BRANCH  17  18
ATOM     18  C   UNL     1     -13.560  43.023 -11.410  0.00  0.00    -0.046 C 
ATOM     19  C   UNL     1     -12.871  41.901 -10.933  0.00  0.00    +0.080 C 
ATOM     20  C   UNL     1     -11.510  41.972 -10.655  0.00  0.00    +0.071 C 
ATOM     21  C   UNL     1     -10.837  43.172 -10.853  0.00  0.00    +0.080 C 
ATOM     22  C   UNL     1     -11.517  44.280 -11.361  0.00  0.00    +0.073 C 
ATOM     23  C   UNL     1     -12.884  44.213 -11.632  0.00  0.00    +0.075 C 
ENDBRANCH  17  18
ENDBRANCH   7  17
TORSDOF 4
ENDMDL
