MODEL 1
REMARK VINA RESULT:    -9.154      0.000      0.000
REMARK INTER + INTRA:         -11.760
REMARK INTER:                 -11.562
REMARK INTRA:                  -0.197
REMARK UNBOUND:                -0.197
REMARK  Name = 
REMARK  5 active torsions:
REMARK  status: ('A' for Active; 'I' for Inactive)
REMARK    1  A    between atoms: C_4  and  C_5
REMARK    2  A    between atoms: C_5  and  N_6
REMARK    3  A    between atoms: C_7  and  O_8
REMARK    4  A    between atoms: C_7  and  C_9
REMARK    5  A    between atoms: N_13  and  C_14
REMARK                            x       y       z     vdW  Elec       q    Type
REMARK                         _______ _______ _______ _____ _____    ______ ____
ROOT
ATOM      1  C   UNL     1     -18.748  42.676 -12.861  0.00  0.00    -0.074 A 
ATOM      2  C   UNL     1     -17.718  43.250 -12.119  0.00  0.00    +0.156 A 
ATOM      3  C   UNL     1     -17.474  42.799 -10.824  0.00  0.00    -0.047 A 
ATOM      4  C   UNL     1     -18.259  41.779 -10.279  0.00  0.00    +0.513 A 
ATOM      5  N   UNL     1     -18.061  41.367  -8.962  0.00  0.00    -0.690 N 
ATOM      6  N   UNL     1     -19.253  41.268 -11.026  0.00  0.00    -0.678 N 
ATOM      7  C   UNL     1     -19.518  41.677 -12.280  0.00  0.00    +0.309 A 
ATOM      8  H   UNL     1     -17.121  41.501  -8.594  0.00  0.00    +0.296 HD
ATOM      9  H   UNL     1     -19.830  40.539 -10.617  0.00  0.00    +0.307 HD
ENDROOT
BRANCH   5  10
ATOM     10  C   UNL     1     -18.978  40.925  -8.051  0.00  0.00    +0.245 C 
ATOM     11  C   UNL     1     -20.009  40.020  -8.491  0.00  0.00    -0.036 C 
ATOM     12  C   UNL     1     -21.537  40.084  -8.283  0.00  0.00    +0.014 C 
ATOM     13  C   UNL     1     -22.051  41.258  -7.428  0.00  0.00    +0.002 C 
ATOM     14  C   UNL     1     -21.010  42.229  -6.839  0.00  0.00    +0.013 C 
ATOM     15  C   UNL     1     -19.536  41.940  -7.193  0.00  0.00    -0.046 C 
ENDBRANCH   5  10
BRANCH   1  17
ATOM     16  N   UNL     1     -20.167  42.715 -14.817  0.00  0.00    -0.492 NA
ATOM     17  C   UNL     1     -19.115  43.140 -14.206  0.00  0.00    +0.448 C 
BRANCH  17  18
ATOM     18  O   UNL     1     -18.234  44.046 -14.666  0.00  0.00    -0.602 OA
ATOM     19  H   UNL     1     -17.679  44.425 -13.954  0.00  0.00    +0.314 HD
ENDBRANCH  17  18
BRANCH  16  20
ATOM     20  C   UNL     1     -20.503  43.318 -15.969  0.00  0.00    +0.208 C 
BRANCH  20  24
ATOM     21  N   UNL     1     -24.503  45.008 -17.188  0.00  0.00    -0.543 NA
ATOM     22  C   UNL     1     -23.256  45.297 -17.257  0.00  0.00    +0.434 C 
ATOM     23  C   UNL     1     -22.320  44.176 -17.126  0.00  0.00    -0.070 C 
ATOM     24  C   UNL     1     -21.011  44.074 -17.061  0.00  0.00    -0.012 C 
ATOM     25  C   UNL     1     -20.543  45.415 -17.326  0.00  0.00    -0.052 C 
ATOM     26  C   UNL     1     -21.252  46.376 -17.437  0.00  0.00    +0.169 C 
ATOM     27  N   UNL     1     -22.732  46.535 -17.412  0.00  0.00    -0.376 NA
ATOM     28  H   UNL     1     -24.622  44.000 -17.078  0.00  0.00    +0.291 HD
ENDBRANCH  20  24
ENDBRANCH  16  20
ENDBRANCH   1  17
TORSDOF 5
ENDMDL
MODEL 2
REMARK VINA RESULT:    -8.029      1.713      2.192
REMARK INTER + INTRA:         -10.339
REMARK INTER:                 -10.030
REMARK INTRA:                  -0.309
REMARK UNBOUND:                -0.197
REMARK  Name = 
REMARK  5 active torsions:
REMARK  status: ('A' for Active; 'I' for Inactive)
REMARK    1  A    between atoms: C_4  and  C_5
REMARK    2  A    between atoms: C_5  and  N_6
REMARK    3  A    between atoms: C_7  and  O_8
REMARK    4  A    between atoms: C_7  and  C_9
REMARK    5  A    between atoms: N_13  and  C_14
REMARK                            x       y       z     vdW  Elec       q    Type
REMARK                         _______ _______ _______ _____ _____    ______ ____
ROOT
ATOM      1  C   UNL     1     -18.492  43.099 -12.999  0.00  0.00    -0.074 A 
ATOM      2  C   UNL     1     -17.388  43.514 -12.257  0.00  0.00    +0.156 A 
ATOM      3  C   UNL     1     -17.131  42.923 -11.022  0.00  0.00    -0.047 A 
ATOM      4  C   UNL     1     -17.977  41.923 -10.537  0.00  0.00    +0.513 A 
ATOM      5  N   UNL     1     -17.762  41.372  -9.274  0.00  0.00    -0.690 N 
ATOM      6  N   UNL     1     -19.040  41.567 -11.279  0.00  0.00    -0.678 N 
ATOM      7  C   UNL     1     -19.320  42.114 -12.475  0.00  0.00    +0.309 A 
ATOM      8  H   UNL     1     -16.800  41.394  -8.941  0.00  0.00    +0.296 HD
ATOM      9  H   UNL     1     -19.660  40.851 -10.911  0.00  0.00    +0.307 HD
ENDROOT
BRANCH   5  10
ATOM     10  C   UNL     1     -18.676  40.920  -8.364  0.00  0.00    +0.245 C 
ATOM     11  C   UNL     1     -19.702  40.011  -8.808  0.00  0.00    -0.036 C 
ATOM     12  C   UNL     1     -21.230  40.066  -8.599  0.00  0.00    +0.014 C 
ATOM     13  C   UNL     1     -21.750  41.233  -7.737  0.00  0.00    +0.002 C 
ATOM     14  C   UNL     1     -20.714  42.207  -7.144  0.00  0.00    +0.013 C 
ATOM     15  C   UNL     1     -19.239  41.928  -7.501  0.00  0.00    -0.046 C 
ENDBRANCH   5  10
BRANCH   1  17
ATOM     16  N   UNL     1     -18.779  44.987 -14.480  0.00  0.00    -0.492 NA
ATOM     17  C   UNL     1     -18.872  43.717 -14.276  0.00  0.00    +0.448 C 
BRANCH  17  18
ATOM     18  O   UNL     1     -19.293  42.794 -15.158  0.00  0.00    -0.602 OA
ATOM     19  H   UNL     1     -18.615  42.584 -15.832  0.00  0.00    +0.314 HD
ENDBRANCH  17  18
BRANCH  16  20
ATOM     20  C   UNL     1     -18.995  45.433 -15.728  0.00  0.00    +0.208 C 
BRANCH  20  24
ATOM     21  N   UNL     1     -18.650  43.488 -19.784  0.00  0.00    -0.543 NA
ATOM     22  C   UNL     1     -19.466  44.215 -19.112  0.00  0.00    +0.434 C 
ATOM     23  C   UNL     1     -18.892  44.979 -17.999  0.00  0.00    -0.070 C 
ATOM     24  C   UNL     1     -19.393  45.746 -17.056  0.00  0.00    -0.012 C 
ATOM     25  C   UNL     1     -20.789  45.870 -17.412  0.00  0.00    -0.052 C 
ATOM     26  C   UNL     1     -21.322  45.269 -18.303  0.00  0.00    +0.169 C 
ATOM     27  N   UNL     1     -20.799  44.317 -19.320  0.00  0.00    -0.376 NA
ATOM     28  H   UNL     1     -17.702  43.603 -19.421  0.00  0.00    +0.291 HD
ENDBRANCH  20  24
ENDBRANCH  16  20
ENDBRANCH   1  17
TORSDOF 5
ENDMDL
MODEL 3
REMARK VINA RESULT:    -7.081      2.117      8.982
REMARK INTER + INTRA:          -9.141
REMARK INTER:                  -8.643
REMARK INTRA:                  -0.498
REMARK UNBOUND:                -0.197
REMARK  Name = 
REMARK  5 active torsions:
REMARK  status: ('A' for Active; 'I' for Inactive)
REMARK    1  A    between atoms: C_4  and  C_5
REMARK    2  A    between atoms: C_5  and  N_6
REMARK    3  A    between atoms: C_7  and  O_8
REMARK    4  A    between atoms: C_7  and  C_9
REMARK    5  A    between atoms: N_13  and  C_14
REMARK                            x       y       z     vdW  Elec       q    Type
REMARK                         _______ _______ _______ _____ _____    ______ ____
ROOT
ATOM      1  C   UNL     1     -19.536  43.370 -14.712  0.00  0.00    -0.074 A 
ATOM      2  C   UNL     1     -20.650  43.047 -15.484  0.00  0.00    +0.156 A 
ATOM      3  C   UNL     1     -20.997  43.860 -16.560  0.00  0.00    -0.047 A 
ATOM      4  C   UNL     1     -20.229  44.989 -16.859  0.00  0.00    +0.513 A 
ATOM      5  N   UNL     1     -20.607  45.841 -17.896  0.00  0.00    -0.690 N 
ATOM      6  N   UNL     1     -19.173  45.271 -16.077  0.00  0.00    -0.678 N 
ATOM      7  C   UNL     1     -18.808  44.510 -15.030  0.00  0.00    +0.309 A 
ATOM      8  H   UNL     1     -21.147  45.413 -18.645  0.00  0.00    +0.296 HD
ATOM      9  H   UNL     1     -18.630  46.103 -16.290  0.00  0.00    +0.307 HD
ENDROOT
BRANCH   5  10
ATOM     10  C   UNL     1     -20.466  47.197 -17.991  0.00  0.00    +0.245 C 
ATOM     11  C   UNL     1     -19.194  47.732 -18.405  0.00  0.00    -0.036 C 
ATOM     12  C   UNL     1     -18.330  48.840 -17.764  0.00  0.00    +0.014 C 
ATOM     13  C   UNL     1     -18.932  49.529 -16.524  0.00  0.00    +0.002 C 
ATOM     14  C   UNL     1     -20.331  49.082 -16.061  0.00  0.00    +0.013 C 
ATOM     15  C   UNL     1     -20.989  47.952 -16.881  0.00  0.00    -0.046 C 
ENDBRANCH   5  10
BRANCH   1  17
ATOM     16  N   UNL     1     -18.366  43.094 -12.616  0.00  0.00    -0.492 NA
ATOM     17  C   UNL     1     -19.143  42.606 -13.521  0.00  0.00    +0.448 C 
BRANCH  17  18
ATOM     18  O   UNL     1     -19.710  41.387 -13.516  0.00  0.00    -0.602 OA
ATOM     19  H   UNL     1     -19.747  40.986 -14.408  0.00  0.00    +0.314 HD
ENDBRANCH  17  18
BRANCH  16  20
ATOM     20  C   UNL     1     -18.198  42.380 -11.491  0.00  0.00    +0.208 C 
BRANCH  20  24
ATOM     21  N   UNL     1     -19.312  42.559  -7.123  0.00  0.00    -0.543 NA
ATOM     22  C   UNL     1     -19.320  41.732  -8.103  0.00  0.00    +0.434 C 
ATOM     23  C   UNL     1     -18.402  42.024  -9.209  0.00  0.00    -0.070 C 
ATOM     24  C   UNL     1     -18.182  41.484 -10.387  0.00  0.00    -0.012 C 
ATOM     25  C   UNL     1     -18.994  40.288 -10.381  0.00  0.00    -0.052 C 
ATOM     26  C   UNL     1     -19.769  39.994  -9.514  0.00  0.00    +0.169 C 
ATOM     27  N   UNL     1     -20.112  40.641  -8.218  0.00  0.00    -0.376 NA
ATOM     28  H   UNL     1     -18.614  43.287  -7.287  0.00  0.00    +0.291 HD
ENDBRANCH  20  24
ENDBRANCH  16  20
ENDBRANCH   1  17
TORSDOF 5
ENDMDL
MODEL 4
REMARK VINA RESULT:    -6.943      2.957      9.463
REMARK INTER + INTRA:          -8.966
REMARK INTER:                  -8.459
REMARK INTRA:                  -0.508
REMARK UNBOUND:                -0.197
REMARK  Name = 
REMARK  5 active torsions:
REMARK  status: ('A' for Active; 'I' for Inactive)
REMARK    1  A    between atoms: C_4  and  C_5
REMARK    2  A    between atoms: C_5  and  N_6
REMARK    3  A    between atoms: C_7  and  O_8
REMARK    4  A    between atoms: C_7  and  C_9
REMARK    5  A    between atoms: N_13  and  C_14
REMARK                            x       y       z     vdW  Elec       q    Type
REMARK                         _______ _______ _______ _____ _____    ______ ____
ROOT
ATOM      1  C   UNL     1     -18.572  44.045 -13.789  0.00  0.00    -0.074 A 
ATOM      2  C   UNL     1     -18.151  45.366 -13.649  0.00  0.00    +0.156 A 
ATOM      3  C   UNL     1     -18.129  46.199 -14.765  0.00  0.00    -0.047 A 
ATOM      4  C   UNL     1     -18.527  45.709 -16.011  0.00  0.00    +0.513 A 
ATOM      5  N   UNL     1     -18.447  46.520 -17.143  0.00  0.00    -0.690 N 
ATOM      6  N   UNL     1     -18.909  44.424 -16.102  0.00  0.00    -0.678 N 
ATOM      7  C   UNL     1     -18.945  43.590 -15.048  0.00  0.00    +0.309 A 
ATOM      8  H   UNL     1     -18.515  47.521 -16.974  0.00  0.00    +0.296 HD
ATOM      9  H   UNL     1     -19.181  44.070 -17.015  0.00  0.00    +0.307 HD
ENDROOT
BRANCH   5  10
ATOM     10  C   UNL     1     -18.165  46.172 -18.434  0.00  0.00    +0.245 C 
ATOM     11  C   UNL     1     -16.971  45.410 -18.699  0.00  0.00    -0.036 C 
ATOM     12  C   UNL     1     -15.849  45.656 -19.731  0.00  0.00    +0.014 C 
ATOM     13  C   UNL     1     -16.048  46.864 -20.667  0.00  0.00    +0.002 C 
ATOM     14  C   UNL     1     -17.342  47.686 -20.515  0.00  0.00    +0.013 C 
ATOM     15  C   UNL     1     -18.311  47.227 -19.405  0.00  0.00    -0.046 C 
ENDBRANCH   5  10
BRANCH   1  17
ATOM     16  N   UNL     1     -17.626  43.070 -11.791  0.00  0.00    -0.492 NA
ATOM     17  C   UNL     1     -18.560  43.083 -12.680  0.00  0.00    +0.448 C 
BRANCH  17  18
ATOM     18  O   UNL     1     -19.633  42.273 -12.724  0.00  0.00    -0.602 OA
ATOM     19  H   UNL     1     -20.477  42.769 -12.728  0.00  0.00    +0.314 HD
ENDBRANCH  17  18
BRANCH  16  20
ATOM     20  C   UNL     1     -17.789  42.263 -10.730  0.00  0.00    +0.208 C 
BRANCH  20  24
ATOM     21  N   UNL     1     -19.736  42.473  -6.666  0.00  0.00    -0.543 NA
ATOM     22  C   UNL     1     -19.682  41.700  -7.688  0.00  0.00    +0.434 C 
ATOM     23  C   UNL     1     -18.519  41.862  -8.566  0.00  0.00    -0.070 C 
ATOM     24  C   UNL     1     -18.155  41.337  -9.715  0.00  0.00    -0.012 C 
ATOM     25  C   UNL     1     -19.141  40.309  -9.958  0.00  0.00    -0.052 C 
ATOM     26  C   UNL     1     -20.117  40.127  -9.285  0.00  0.00    +0.169 C 
ATOM     27  N   UNL     1     -20.606  40.776  -8.037  0.00  0.00    -0.376 NA
ATOM     28  H   UNL     1     -18.907  43.068  -6.636  0.00  0.00    +0.291 HD
ENDBRANCH  20  24
ENDBRANCH  16  20
ENDBRANCH   1  17
TORSDOF 5
ENDMDL
MODEL 5
REMARK VINA RESULT:    -6.807      4.292      9.528
REMARK INTER + INTRA:          -8.795
REMARK INTER:                  -8.305
REMARK INTRA:                  -0.490
REMARK UNBOUND:                -0.197
REMARK  Name = 
REMARK  5 active torsions:
REMARK  status: ('A' for Active; 'I' for Inactive)
REMARK    1  A    between atoms: C_4  and  C_5
REMARK    2  A    between atoms: C_5  and  N_6
REMARK    3  A    between atoms: C_7  and  O_8
REMARK    4  A    between atoms: C_7  and  C_9
REMARK    5  A    between atoms: N_13  and  C_14
REMARK                            x       y       z     vdW  Elec       q    Type
REMARK                         _______ _______ _______ _____ _____    ______ ____
ROOT
ATOM      1  C   UNL     1     -16.769  42.748 -12.349  0.00  0.00    -0.074 A 
ATOM      2  C   UNL     1     -17.377  43.992 -12.186  0.00  0.00    +0.156 A 
ATOM      3  C   UNL     1     -18.564  44.267 -12.860  0.00  0.00    -0.047 A 
ATOM      4  C   UNL     1     -19.135  43.300 -13.692  0.00  0.00    +0.513 A 
ATOM      5  N   UNL     1     -20.289  43.592 -14.419  0.00  0.00    -0.690 N 
ATOM      6  N   UNL     1     -18.505  42.122 -13.833  0.00  0.00    -0.678 N 
ATOM      7  C   UNL     1     -17.358  41.820 -13.197  0.00  0.00    +0.309 A 
ATOM      8  H   UNL     1     -20.897  44.302 -14.016  0.00  0.00    +0.296 HD
ATOM      9  H   UNL     1     -18.917  41.430 -14.452  0.00  0.00    +0.307 HD
ENDROOT
BRANCH   5  10
ATOM     10  C   UNL     1     -20.660  43.153 -15.659  0.00  0.00    +0.245 C 
ATOM     11  C   UNL     1     -19.731  43.298 -16.750  0.00  0.00    -0.036 C 
ATOM     12  C   UNL     1     -19.942  43.894 -18.158  0.00  0.00    +0.014 C 
ATOM     13  C   UNL     1     -21.375  44.358 -18.484  0.00  0.00    +0.002 C 
ATOM     14  C   UNL     1     -22.458  44.161 -17.406  0.00  0.00    +0.013 C 
ATOM     15  C   UNL     1     -21.986  43.533 -16.078  0.00  0.00    -0.046 C 
ENDBRANCH   5  10
BRANCH   1  17
ATOM     16  N   UNL     1     -14.496  43.232 -11.685  0.00  0.00    -0.492 NA
ATOM     17  C   UNL     1     -15.483  42.404 -11.729  0.00  0.00    +0.448 C 
BRANCH  17  18
ATOM     18  O   UNL     1     -15.504  41.157 -11.224  0.00  0.00    -0.602 OA
ATOM     19  H   UNL     1     -15.841  41.130 -10.306  0.00  0.00    +0.314 HD
ENDBRANCH  17  18
BRANCH  16  20
ATOM     20  C   UNL     1     -13.423  42.882 -10.957  0.00  0.00    +0.208 C 
BRANCH  20  24
ATOM     21  N   UNL     1     -10.786  39.240 -10.604  0.00  0.00    -0.543 NA
ATOM     22  C   UNL     1     -10.687  40.512 -10.732  0.00  0.00    +0.434 C 
ATOM     23  C   UNL     1     -11.853  41.300 -10.319  0.00  0.00    -0.070 C 
ATOM     24  C   UNL     1     -12.164  42.577 -10.371  0.00  0.00    -0.012 C 
ATOM     25  C   UNL     1     -10.951  43.214 -10.828  0.00  0.00    -0.052 C 
ATOM     26  C   UNL     1      -9.966  42.630 -11.187  0.00  0.00    +0.169 C 
ATOM     27  N   UNL     1      -9.625  41.182 -11.235  0.00  0.00    -0.376 NA
ATOM     28  H   UNL     1     -11.689  39.000 -10.192  0.00  0.00    +0.291 HD
ENDBRANCH  20  24
ENDBRANCH  16  20
ENDBRANCH   1  17
TORSDOF 5
ENDMDL
