MODEL 1
REMARK VINA RESULT:    -8.311      0.000      0.000
REMARK INTER + INTRA:         -12.320
REMARK INTER:                 -11.226
REMARK INTRA:                  -1.094
REMARK UNBOUND:                -1.094
REMARK  Name = 
REMARK  6 active torsions:
REMARK  status: ('A' for Active; 'I' for Inactive)
REMARK    1  A    between atoms: C_2  and  C_3
REMARK    2  A    between atoms: C_2  and  O_7
REMARK    3  A    between atoms: O_7  and  C_8
REMARK    4  A    between atoms: C_8  and  C_17
REMARK    5  A    between atoms: N_9  and  C_10
REMARK    6  A    between atoms: C_10  and  C_11
REMARK                            x       y       z     vdW  Elec       q    Type
REMARK                         _______ _______ _______ _____ _____    ______ ____
ROOT
ATOM      1  C   UNL     1     -18.515  41.132 -10.768  0.00  0.00    +0.472 C 
ATOM      2  N   UNL     1     -18.643  40.443  -9.685  0.00  0.00    -0.398 NA
ENDROOT
BRANCH   1   3
ATOM      3  C   UNL     1     -17.183  41.565 -11.238  0.00  0.00    -0.112 C 
ATOM      4  C   UNL     1     -16.121  40.808 -11.157  0.00  0.00    +0.250 C 
ATOM      5  N   UNL     1     -14.672  40.929 -10.997  0.00  0.00    -0.590 N 
ATOM      6  C   UNL     1     -14.280  42.282 -11.117  0.00  0.00    +0.374 C 
ATOM      7  N   UNL     1     -12.987  42.701 -11.501  0.00  0.00    -0.456 NA
ATOM      8  C   UNL     1     -13.039  43.832 -11.819  0.00  0.00    +0.280 C 
ATOM      9  C   UNL     1     -13.944  45.055 -11.964  0.00  0.00    -0.041 C 
ATOM     10  C   UNL     1     -14.995  44.632 -11.573  0.00  0.00    +0.049 C 
ATOM     11  C   UNL     1     -15.423  43.367 -11.063  0.00  0.00    -0.065 C 
ATOM     12  C   UNL     1     -16.634  42.888 -11.167  0.00  0.00    +0.087 C 
ATOM     13  H   UNL     1     -14.046  40.338 -11.539  0.00  0.00    +0.316 HD
ENDBRANCH   1   3
BRANCH   1  14
ATOM     14  O   UNL     1     -19.565  41.387 -11.603  0.00  0.00    -0.542 OA
BRANCH  14  16
ATOM     15  O   UNL     1     -18.907  40.174 -13.441  0.00  0.00    -0.500 OA
ATOM     16  C   UNL     1     -19.361  41.189 -12.926  0.00  0.00    +0.590 C 
BRANCH  16  17
ATOM     17  C   UNL     1     -19.720  42.332 -13.775  0.00  0.00    -0.045 C 
ATOM     18  C   UNL     1     -18.927  43.300 -14.232  0.00  0.00    +0.438 C 
ATOM     19  F   UNL     1     -17.610  43.342 -13.956  0.00  0.00    -0.291 F 
ATOM     20  F   UNL     1     -19.477  44.279 -14.986  0.00  0.00    -0.299 F 
ENDBRANCH  16  17
ENDBRANCH  14  16
ENDBRANCH   1  14
BRANCH   2  21
ATOM     21  C   UNL     1     -19.970  40.009  -9.249  0.00  0.00    +0.302 C 
BRANCH  21  22
ATOM     22  C   UNL     1     -20.608  40.788  -8.129  0.00  0.00    +0.028 C 
ATOM     23  C   UNL     1     -21.990  40.824  -7.926  0.00  0.00    +0.060 C 
ATOM     24  C   UNL     1     -22.538  41.624  -6.927  0.00  0.00    +0.034 C 
ATOM     25  C   UNL     1     -21.707  42.373  -6.100  0.00  0.00    +0.030 C 
ATOM     26  C   UNL     1     -20.326  42.305  -6.257  0.00  0.00    +0.028 C 
ATOM     27  C   UNL     1     -19.783  41.516  -7.267  0.00  0.00    +0.000 C 
ENDBRANCH  21  22
ENDBRANCH   2  21
TORSDOF 6
ENDMDL
MODEL 2
REMARK VINA RESULT:    -8.224      1.998      2.484
REMARK INTER + INTRA:         -12.202
REMARK INTER:                 -11.658
REMARK INTRA:                  -0.545
REMARK UNBOUND:                -1.094
REMARK  Name = 
REMARK  6 active torsions:
REMARK  status: ('A' for Active; 'I' for Inactive)
REMARK    1  A    between atoms: C_2  and  C_3
REMARK    2  A    between atoms: C_2  and  O_7
REMARK    3  A    between atoms: O_7  and  C_8
REMARK    4  A    between atoms: C_8  and  C_17
REMARK    5  A    between atoms: N_9  and  C_10
REMARK    6  A    between atoms: C_10  and  C_11
REMARK                            x       y       z     vdW  Elec       q    Type
REMARK                         _______ _______ _______ _____ _____    ______ ____
ROOT
ATOM      1  C   UNL     1     -17.719  41.895 -10.349  0.00  0.00    +0.472 C 
ATOM      2  N   UNL     1     -18.089  42.144  -9.139  0.00  0.00    -0.398 NA
ENDROOT
BRANCH   1   3
ATOM      3  C   UNL     1     -17.181  42.966 -11.214  0.00  0.00    -0.112 C 
ATOM      4  C   UNL     1     -15.907  43.101 -11.468  0.00  0.00    +0.250 C 
ATOM      5  N   UNL     1     -14.932  44.149 -11.770  0.00  0.00    -0.590 N 
ATOM      6  C   UNL     1     -15.595  45.376 -12.008  0.00  0.00    +0.374 C 
ATOM      7  N   UNL     1     -15.056  46.430 -12.778  0.00  0.00    -0.456 NA
ATOM      8  C   UNL     1     -15.926  47.167 -13.066  0.00  0.00    +0.280 C 
ATOM      9  C   UNL     1     -17.418  47.463 -12.922  0.00  0.00    -0.041 C 
ATOM     10  C   UNL     1     -17.783  46.562 -12.222  0.00  0.00    +0.049 C 
ATOM     11  C   UNL     1     -17.116  45.460 -11.601  0.00  0.00    -0.065 C 
ATOM     12  C   UNL     1     -17.669  44.310 -11.320  0.00  0.00    +0.087 C 
ATOM     13  H   UNL     1     -14.220  43.997 -12.480  0.00  0.00    +0.316 HD
ENDBRANCH   1   3
BRANCH   1  14
ATOM     14  O   UNL     1     -17.673  40.627 -10.856  0.00  0.00    -0.542 OA
BRANCH  14  16
ATOM     15  O   UNL     1     -19.240  38.978 -11.182  0.00  0.00    -0.500 OA
ATOM     16  C   UNL     1     -18.827  40.120 -11.346  0.00  0.00    +0.590 C 
BRANCH  16  17
ATOM     17  C   UNL     1     -19.612  41.063 -12.155  0.00  0.00    -0.045 C 
ATOM     18  C   UNL     1     -19.277  41.633 -13.311  0.00  0.00    +0.438 C 
ATOM     19  F   UNL     1     -18.102  41.390 -13.920  0.00  0.00    -0.291 F 
ATOM     20  F   UNL     1     -20.149  42.498 -13.876  0.00  0.00    -0.299 F 
ENDBRANCH  16  17
ENDBRANCH  14  16
ENDBRANCH   1  14
BRANCH   2  21
ATOM     21  C   UNL     1     -18.600  41.065  -8.295  0.00  0.00    +0.302 C 
BRANCH  21  22
ATOM     22  C   UNL     1     -19.991  41.229  -7.744  0.00  0.00    +0.028 C 
ATOM     23  C   UNL     1     -21.108  40.617  -8.317  0.00  0.00    +0.060 C 
ATOM     24  C   UNL     1     -22.385  40.866  -7.821  0.00  0.00    +0.034 C 
ATOM     25  C   UNL     1     -22.554  41.705  -6.724  0.00  0.00    +0.030 C 
ATOM     26  C   UNL     1     -21.445  42.279  -6.110  0.00  0.00    +0.028 C 
ATOM     27  C   UNL     1     -20.172  42.041  -6.620  0.00  0.00    +0.000 C 
ENDBRANCH  21  22
ENDBRANCH   2  21
TORSDOF 6
ENDMDL
MODEL 3
REMARK VINA RESULT:    -7.665      2.987      4.899
REMARK INTER + INTRA:         -11.449
REMARK INTER:                 -10.881
REMARK INTRA:                  -0.568
REMARK UNBOUND:                -1.094
REMARK  Name = 
REMARK  6 active torsions:
REMARK  status: ('A' for Active; 'I' for Inactive)
REMARK    1  A    between atoms: C_2  and  C_3
REMARK    2  A    between atoms: C_2  and  O_7
REMARK    3  A    between atoms: O_7  and  C_8
REMARK    4  A    between atoms: C_8  and  C_17
REMARK    5  A    between atoms: N_9  and  C_10
REMARK    6  A    between atoms: C_10  and  C_11
REMARK                            x       y       z     vdW  Elec       q    Type
REMARK                         _______ _______ _______ _____ _____    ______ ____
ROOT
ATOM      1  C   UNL     1     -18.203  41.697 -11.655  0.00  0.00    +0.472 C 
ATOM      2  N   UNL     1     -19.089  40.862 -11.230  0.00  0.00    -0.398 NA
ENDROOT
BRANCH   1   3
ATOM      3  C   UNL     1     -18.344  42.349 -12.974  0.00  0.00    -0.112 C 
ATOM      4  C   UNL     1     -17.668  43.413 -13.314  0.00  0.00    +0.250 C 
ATOM      5  N   UNL     1     -17.803  44.599 -14.160  0.00  0.00    -0.590 N 
ATOM      6  C   UNL     1     -18.953  44.488 -14.975  0.00  0.00    +0.374 C 
ATOM      7  N   UNL     1     -19.122  45.164 -16.204  0.00  0.00    -0.456 NA
ATOM      8  C   UNL     1     -19.999  44.651 -16.796  0.00  0.00    +0.280 C 
ATOM      9  C   UNL     1     -21.060  43.552 -16.764  0.00  0.00    -0.041 C 
ATOM     10  C   UNL     1     -20.884  43.069 -15.682  0.00  0.00    +0.049 C 
ATOM     11  C   UNL     1     -19.986  43.355 -14.607  0.00  0.00    -0.065 C 
ATOM     12  C   UNL     1     -19.546  42.477 -13.744  0.00  0.00    +0.087 C 
ATOM     13  H   UNL     1     -17.015  44.924 -14.716  0.00  0.00    +0.316 HD
ENDBRANCH   1   3
BRANCH   1  14
ATOM     14  O   UNL     1     -17.167  42.126 -10.874  0.00  0.00    -0.542 OA
BRANCH  14  16
ATOM     15  O   UNL     1     -15.644  40.458 -11.293  0.00  0.00    -0.500 OA
ATOM     16  C   UNL     1     -15.938  41.639 -11.161  0.00  0.00    +0.590 C 
BRANCH  16  17
ATOM     17  C   UNL     1     -14.895  42.664 -11.303  0.00  0.00    -0.045 C 
ATOM     18  C   UNL     1     -13.591  42.552 -11.056  0.00  0.00    +0.438 C 
ATOM     19  F   UNL     1     -13.036  41.403 -10.624  0.00  0.00    -0.291 F 
ATOM     20  F   UNL     1     -12.807  43.639 -11.233  0.00  0.00    -0.299 F 
ENDBRANCH  16  17
ENDBRANCH  14  16
ENDBRANCH   1  14
BRANCH   2  21
ATOM     21  C   UNL     1     -18.939  40.243  -9.914  0.00  0.00    +0.302 C 
BRANCH  21  22
ATOM     22  C   UNL     1     -19.779  40.802  -8.797  0.00  0.00    +0.028 C 
ATOM     23  C   UNL     1     -21.121  40.456  -8.615  0.00  0.00    +0.060 C 
ATOM     24  C   UNL     1     -21.879  41.062  -7.617  0.00  0.00    +0.034 C 
ATOM     25  C   UNL     1     -21.294  41.997  -6.768  0.00  0.00    +0.030 C 
ATOM     26  C   UNL     1     -19.946  42.311  -6.905  0.00  0.00    +0.028 C 
ATOM     27  C   UNL     1     -19.195  41.715  -7.915  0.00  0.00    +0.000 C 
ENDBRANCH  21  22
ENDBRANCH   2  21
TORSDOF 6
ENDMDL
MODEL 4
REMARK VINA RESULT:    -7.281      3.591      5.981
REMARK INTER + INTRA:         -10.930
REMARK INTER:                  -9.500
REMARK INTRA:                  -1.430
REMARK UNBOUND:                -1.094
REMARK  Name = 
REMARK  6 active torsions:
REMARK  status: ('A' for Active; 'I' for Inactive)
REMARK    1  A    between atoms: C_2  and  C_3
REMARK    2  A    between atoms: C_2  and  O_7
REMARK    3  A    between atoms: O_7  and  C_8
REMARK    4  A    between atoms: C_8  and  C_17
REMARK    5  A    between atoms: N_9  and  C_10
REMARK    6  A    between atoms: C_10  and  C_11
REMARK                            x       y       z     vdW  Elec       q    Type
REMARK                         _______ _______ _______ _____ _____    ______ ____
ROOT
ATOM      1  C   UNL     1     -18.824  42.206 -13.708  0.00  0.00    +0.472 C 
ATOM      2  N   UNL     1     -19.408  41.251 -13.069  0.00  0.00    -0.398 NA
ENDROOT
BRANCH   1   3
ATOM      3  C   UNL     1     -19.561  43.022 -14.695  0.00  0.00    -0.112 C 
ATOM      4  C   UNL     1     -20.846  43.245 -14.613  0.00  0.00    +0.250 C 
ATOM      5  N   UNL     1     -21.995  43.490 -15.485  0.00  0.00    -0.590 N 
ATOM      6  C   UNL     1     -21.563  43.698 -16.815  0.00  0.00    +0.374 C 
ATOM      7  N   UNL     1     -22.297  44.418 -17.783  0.00  0.00    -0.456 NA
ATOM      8  C   UNL     1     -21.575  44.697 -18.669  0.00  0.00    +0.280 C 
ATOM      9  C   UNL     1     -20.154  44.572 -19.217  0.00  0.00    -0.041 C 
ATOM     10  C   UNL     1     -19.620  43.912 -18.371  0.00  0.00    +0.049 C 
ATOM     11  C   UNL     1     -20.070  43.318 -17.151  0.00  0.00    -0.065 C 
ATOM     12  C   UNL     1     -19.318  43.089 -16.107  0.00  0.00    +0.087 C 
ATOM     13  H   UNL     1     -22.688  44.190 -15.233  0.00  0.00    +0.316 HD
ENDBRANCH   1   3
BRANCH   1  14
ATOM     14  O   UNL     1     -17.549  42.607 -13.422  0.00  0.00    -0.542 OA
BRANCH  14  16
ATOM     15  O   UNL     1     -18.023  44.306 -11.950  0.00  0.00    -0.500 OA
ATOM     16  C   UNL     1     -17.397  43.843 -12.895  0.00  0.00    +0.590 C 
BRANCH  16  17
ATOM     17  C   UNL     1     -16.383  44.670 -13.565  0.00  0.00    -0.045 C 
ATOM     18  C   UNL     1     -16.563  45.579 -14.521  0.00  0.00    +0.438 C 
ATOM     19  F   UNL     1     -17.780  45.873 -15.016  0.00  0.00    -0.291 F 
ATOM     20  F   UNL     1     -15.476  46.212 -15.018  0.00  0.00    -0.299 F 
ENDBRANCH  16  17
ENDBRANCH  14  16
ENDBRANCH   1  14
BRANCH   2  21
ATOM     21  C   UNL     1     -18.664  40.469 -12.083  0.00  0.00    +0.302 C 
BRANCH  21  22
ATOM     22  C   UNL     1     -18.977  40.724 -10.632  0.00  0.00    +0.028 C 
ATOM     23  C   UNL     1     -18.295  41.675  -9.868  0.00  0.00    +0.060 C 
ATOM     24  C   UNL     1     -18.565  41.816  -8.509  0.00  0.00    +0.034 C 
ATOM     25  C   UNL     1     -19.543  41.030  -7.907  0.00  0.00    +0.030 C 
ATOM     26  C   UNL     1     -20.266  40.117  -8.669  0.00  0.00    +0.028 C 
ATOM     27  C   UNL     1     -19.982  39.967 -10.023  0.00  0.00    +0.000 C 
ENDBRANCH  21  22
ENDBRANCH   2  21
TORSDOF 6
ENDMDL
MODEL 5
REMARK VINA RESULT:    -6.845      2.008      3.061
REMARK INTER + INTRA:         -10.341
REMARK INTER:                  -9.526
REMARK INTRA:                  -0.814
REMARK UNBOUND:                -1.094
REMARK  Name = 
REMARK  6 active torsions:
REMARK  status: ('A' for Active; 'I' for Inactive)
REMARK    1  A    between atoms: C_2  and  C_3
REMARK    2  A    between atoms: C_2  and  O_7
REMARK    3  A    between atoms: O_7  and  C_8
REMARK    4  A    between atoms: C_8  and  C_17
REMARK    5  A    between atoms: N_9  and  C_10
REMARK    6  A    between atoms: C_10  and  C_11
REMARK                            x       y       z     vdW  Elec       q    Type
REMARK                         _______ _______ _______ _____ _____    ______ ____
ROOT
ATOM      1  C   UNL     1     -16.839  42.548 -12.108  0.00  0.00    +0.472 C 
ATOM      2  N   UNL     1     -16.790  42.027 -10.929  0.00  0.00    -0.398 NA
ENDROOT
BRANCH   1   3
ATOM      3  C   UNL     1     -16.037  43.742 -12.445  0.00  0.00    -0.112 C 
ATOM      4  C   UNL     1     -14.739  43.788 -12.302  0.00  0.00    +0.250 C 
ATOM      5  N   UNL     1     -13.680  44.755 -12.013  0.00  0.00    -0.590 N 
ATOM      6  C   UNL     1     -14.200  46.070 -12.046  0.00  0.00    +0.374 C 
ATOM      7  N   UNL     1     -13.424  47.223 -12.300  0.00  0.00    -0.456 NA
ATOM      8  C   UNL     1     -14.147  48.108 -12.577  0.00  0.00    +0.280 C 
ATOM      9  C   UNL     1     -15.606  48.529 -12.750  0.00  0.00    -0.041 C 
ATOM     10  C   UNL     1     -16.189  47.521 -12.469  0.00  0.00    +0.049 C 
ATOM     11  C   UNL     1     -15.770  46.221 -12.047  0.00  0.00    -0.065 C 
ATOM     12  C   UNL     1     -16.423  45.112 -12.274  0.00  0.00    +0.087 C 
ATOM     13  H   UNL     1     -12.801  44.719 -12.523  0.00  0.00    +0.316 HD
ENDBRANCH   1   3
BRANCH   1  14
ATOM     14  O   UNL     1     -17.519  41.963 -13.139  0.00  0.00    -0.542 OA
BRANCH  14  16
ATOM     15  O   UNL     1     -19.768  42.230 -12.756  0.00  0.00    -0.500 OA
ATOM     16  C   UNL     1     -18.754  42.441 -13.411  0.00  0.00    +0.590 C 
BRANCH  16  17
ATOM     17  C   UNL     1     -18.834  43.272 -14.620  0.00  0.00    -0.045 C 
ATOM     18  C   UNL     1     -19.877  43.450 -15.429  0.00  0.00    +0.438 C 
ATOM     19  F   UNL     1     -21.065  42.855 -15.214  0.00  0.00    -0.291 F 
ATOM     20  F   UNL     1     -19.722  44.248 -16.510  0.00  0.00    -0.299 F 
ENDBRANCH  16  17
ENDBRANCH  14  16
ENDBRANCH   1  14
BRANCH   2  21
ATOM     21  C   UNL     1     -17.578  40.834 -10.624  0.00  0.00    +0.302 C 
BRANCH  21  22
ATOM     22  C   UNL     1     -18.671  40.982  -9.598  0.00  0.00    +0.028 C 
ATOM     23  C   UNL     1     -18.640  41.954  -8.596  0.00  0.00    +0.060 C 
ATOM     24  C   UNL     1     -19.633  41.997  -7.620  0.00  0.00    +0.034 C 
ATOM     25  C   UNL     1     -20.686  41.088  -7.658  0.00  0.00    +0.030 C 
ATOM     26  C   UNL     1     -20.757  40.149  -8.682  0.00  0.00    +0.028 C 
ATOM     27  C   UNL     1     -19.753  40.098  -9.645  0.00  0.00    +0.000 C 
ENDBRANCH  21  22
ENDBRANCH   2  21
TORSDOF 6
ENDMDL
