MODEL 1
REMARK VINA RESULT:    -8.103      0.000      0.000
REMARK INTER + INTRA:         -11.346
REMARK INTER:                 -10.472
REMARK INTRA:                  -0.875
REMARK UNBOUND:                -0.875
REMARK  Name = 
REMARK  5 active torsions:
REMARK  status: ('A' for Active; 'I' for Inactive)
REMARK    1  A    between atoms: C_2  and  C_3
REMARK    2  A    between atoms: C_2  and  C_6
REMARK    3  A    between atoms: C_6  and  N_8
REMARK    4  A    between atoms: N_8  and  C_9
REMARK    5  A    between atoms: C_12  and  C_13
REMARK                            x       y       z     vdW  Elec       q    Type
REMARK                         _______ _______ _______ _____ _____    ______ ____
ROOT
ATOM      1  C   UNL     1     -19.181  40.505  -9.021  0.00  0.00    +0.523 A 
ATOM      2  C   UNL     1     -18.898  41.573  -8.162  0.00  0.00    +0.017 A 
ATOM      3  C   UNL     1     -19.907  42.159  -7.408  0.00  0.00    +0.135 A 
ATOM      4  C   UNL     1     -21.198  41.647  -7.491  0.00  0.00    -0.112 A 
ATOM      5  C   UNL     1     -21.449  40.570  -8.336  0.00  0.00    +0.352 A 
ATOM      6  N   UNL     1     -20.454  40.070  -9.078  0.00  0.00    -0.656 N 
ATOM      7  H   UNL     1     -20.614  39.339  -9.785  0.00  0.00    +0.349 HD
ENDROOT
BRANCH   4   8
ATOM      8  C   UNL     1     -22.313  42.187  -6.696  0.00  0.00    +0.593 C 
ATOM      9  N   UNL     1     -22.188  43.453  -6.200  0.00  0.00    -0.853 N 
ATOM     10  O   UNL     1     -23.320  41.519  -6.517  0.00  0.00    -0.502 OA
ATOM     11  H   UNL     1     -21.460  44.098  -6.473  0.00  0.00    +0.331 HD
ATOM     12  H   UNL     1     -22.981  43.834  -5.696  0.00  0.00    +0.357 HD
ENDBRANCH   4   8
BRANCH   1  13
ATOM     13  N   UNL     1     -18.182  39.980  -9.743  0.00  0.00    -0.507 NA
BRANCH  13  14
ATOM     14  C   UNL     1     -18.419  39.798 -11.040  0.00  0.00    +0.549 C 
ATOM     15  O   UNL     1     -19.140  38.915 -11.511  0.00  0.00    -0.506 OA
BRANCH  14  17
ATOM     16  C   UNL     1     -18.343  41.287 -13.212  0.00  0.00    +0.072 C 
ATOM     17  C   UNL     1     -17.673  40.805 -11.904  0.00  0.00    -0.134 C 
BRANCH  17  18
ATOM     18  C   UNL     1     -16.327  41.420 -11.527  0.00  0.00    +0.613 C 
ATOM     19  N   UNL     1     -15.334  40.524 -11.213  0.00  0.00    -0.838 N 
ATOM     20  O   UNL     1     -16.053  42.617 -11.508  0.00  0.00    -0.484 OA
ATOM     21  H   UNL     1     -15.500  39.525 -11.264  0.00  0.00    +0.339 HD
ATOM     22  H   UNL     1     -14.417  40.879 -10.984  0.00  0.00    +0.361 HD
ENDBRANCH  17  18
ENDBRANCH  14  17
ENDBRANCH  13  14
ENDBRANCH   1  13
TORSDOF 5
ENDMDL
MODEL 2
REMARK VINA RESULT:    -7.899      1.347      1.714
REMARK INTER + INTRA:         -11.083
REMARK INTER:                 -10.398
REMARK INTRA:                  -0.685
REMARK UNBOUND:                -0.875
REMARK  Name = 
REMARK  5 active torsions:
REMARK  status: ('A' for Active; 'I' for Inactive)
REMARK    1  A    between atoms: C_2  and  C_3
REMARK    2  A    between atoms: C_2  and  C_6
REMARK    3  A    between atoms: C_6  and  N_8
REMARK    4  A    between atoms: N_8  and  C_9
REMARK    5  A    between atoms: C_12  and  C_13
REMARK                            x       y       z     vdW  Elec       q    Type
REMARK                         _______ _______ _______ _____ _____    ______ ____
ROOT
ATOM      1  C   UNL     1     -19.273  40.430  -9.094  0.00  0.00    +0.523 A 
ATOM      2  C   UNL     1     -18.941  41.512  -8.273  0.00  0.00    +0.017 A 
ATOM      3  C   UNL     1     -19.912  42.135  -7.498  0.00  0.00    +0.135 A 
ATOM      4  C   UNL     1     -21.214  41.644  -7.522  0.00  0.00    -0.112 A 
ATOM      5  C   UNL     1     -21.514  40.552  -8.331  0.00  0.00    +0.352 A 
ATOM      6  N   UNL     1     -20.555  40.016  -9.095  0.00  0.00    -0.656 N 
ATOM      7  H   UNL     1     -20.753  39.272  -9.777  0.00  0.00    +0.349 HD
ENDROOT
BRANCH   4   8
ATOM      8  C   UNL     1     -22.290  42.224  -6.702  0.00  0.00    +0.593 C 
ATOM      9  N   UNL     1     -22.136  43.507  -6.262  0.00  0.00    -0.853 N 
ATOM     10  O   UNL     1     -23.292  41.571  -6.453  0.00  0.00    -0.502 OA
ATOM     11  H   UNL     1     -21.417  44.135  -6.592  0.00  0.00    +0.331 HD
ATOM     12  H   UNL     1     -22.904  43.914  -5.739  0.00  0.00    +0.357 HD
ENDBRANCH   4   8
BRANCH   1  13
ATOM     13  N   UNL     1     -18.310  39.869  -9.838  0.00  0.00    -0.507 NA
BRANCH  13  14
ATOM     14  C   UNL     1     -18.562  39.744 -11.140  0.00  0.00    +0.549 C 
ATOM     15  O   UNL     1     -19.225  38.836 -11.649  0.00  0.00    -0.506 OA
BRANCH  14  17
ATOM     16  C   UNL     1     -16.430  41.192 -11.685  0.00  0.00    +0.072 C 
ATOM     17  C   UNL     1     -17.915  40.854 -11.956  0.00  0.00    -0.134 C 
BRANCH  17  18
ATOM     18  C   UNL     1     -18.624  41.617 -13.072  0.00  0.00    +0.613 C 
ATOM     19  N   UNL     1     -17.879  42.594 -13.687  0.00  0.00    -0.838 N 
ATOM     20  O   UNL     1     -19.765  41.418 -13.478  0.00  0.00    -0.484 OA
ATOM     21  H   UNL     1     -16.915  42.759 -13.419  0.00  0.00    +0.339 HD
ATOM     22  H   UNL     1     -18.292  43.109 -14.450  0.00  0.00    +0.361 HD
ENDBRANCH  17  18
ENDBRANCH  14  17
ENDBRANCH  13  14
ENDBRANCH   1  13
TORSDOF 5
ENDMDL
MODEL 3
REMARK VINA RESULT:    -7.395      1.451      2.366
REMARK INTER + INTRA:         -10.431
REMARK INTER:                  -9.505
REMARK INTRA:                  -0.926
REMARK UNBOUND:                -0.875
REMARK  Name = 
REMARK  5 active torsions:
REMARK  status: ('A' for Active; 'I' for Inactive)
REMARK    1  A    between atoms: C_2  and  C_3
REMARK    2  A    between atoms: C_2  and  C_6
REMARK    3  A    between atoms: C_6  and  N_8
REMARK    4  A    between atoms: N_8  and  C_9
REMARK    5  A    between atoms: C_12  and  C_13
REMARK                            x       y       z     vdW  Elec       q    Type
REMARK                         _______ _______ _______ _____ _____    ______ ____
ROOT
ATOM      1  C   UNL     1     -19.053  41.048  -9.065  0.00  0.00    +0.523 A 
ATOM      2  C   UNL     1     -20.310  40.443  -9.173  0.00  0.00    +0.017 A 
ATOM      3  C   UNL     1     -21.332  40.777  -8.293  0.00  0.00    +0.135 A 
ATOM      4  C   UNL     1     -21.100  41.748  -7.323  0.00  0.00    -0.112 A 
ATOM      5  C   UNL     1     -19.847  42.351  -7.251  0.00  0.00    +0.352 A 
ATOM      6  N   UNL     1     -18.881  41.961  -8.091  0.00  0.00    -0.656 N 
ATOM      7  H   UNL     1     -17.915  42.310  -8.011  0.00  0.00    +0.349 HD
ENDROOT
BRANCH   4   8
ATOM      8  C   UNL     1     -22.141  42.184  -6.380  0.00  0.00    +0.593 C 
ATOM      9  N   UNL     1     -21.776  43.033  -5.374  0.00  0.00    -0.853 N 
ATOM     10  O   UNL     1     -23.295  41.809  -6.521  0.00  0.00    -0.502 OA
ATOM     11  H   UNL     1     -20.884  43.504  -5.329  0.00  0.00    +0.331 HD
ATOM     12  H   UNL     1     -22.510  43.365  -4.758  0.00  0.00    +0.357 HD
ENDBRANCH   4   8
BRANCH   1  13
ATOM     13  N   UNL     1     -18.090  40.685  -9.923  0.00  0.00    -0.507 NA
BRANCH  13  14
ATOM     14  C   UNL     1     -17.650  41.627 -10.755  0.00  0.00    +0.549 C 
ATOM     15  O   UNL     1     -16.976  42.606 -10.423  0.00  0.00    -0.506 OA
BRANCH  14  17
ATOM     16  C   UNL     1     -18.312  42.593 -13.115  0.00  0.00    +0.072 C 
ATOM     17  C   UNL     1     -18.091  41.373 -12.189  0.00  0.00    -0.134 C 
BRANCH  17  18
ATOM     18  C   UNL     1     -18.271  39.982 -12.793  0.00  0.00    +0.613 C 
ATOM     19  N   UNL     1     -19.503  39.407 -12.598  0.00  0.00    -0.838 N 
ATOM     20  O   UNL     1     -17.439  39.359 -13.447  0.00  0.00    -0.484 OA
ATOM     21  H   UNL     1     -20.238  39.905 -12.107  0.00  0.00    +0.339 HD
ATOM     22  H   UNL     1     -19.683  38.499 -13.001  0.00  0.00    +0.361 HD
ENDBRANCH  17  18
ENDBRANCH  14  17
ENDBRANCH  13  14
ENDBRANCH   1  13
TORSDOF 5
ENDMDL
MODEL 4
REMARK VINA RESULT:    -6.603      1.708      2.122
REMARK INTER + INTRA:          -9.408
REMARK INTER:                  -8.639
REMARK INTRA:                  -0.769
REMARK UNBOUND:                -0.875
REMARK  Name = 
REMARK  5 active torsions:
REMARK  status: ('A' for Active; 'I' for Inactive)
REMARK    1  A    between atoms: C_2  and  C_3
REMARK    2  A    between atoms: C_2  and  C_6
REMARK    3  A    between atoms: C_6  and  N_8
REMARK    4  A    between atoms: N_8  and  C_9
REMARK    5  A    between atoms: C_12  and  C_13
REMARK                            x       y       z     vdW  Elec       q    Type
REMARK                         _______ _______ _______ _____ _____    ______ ____
ROOT
ATOM      1  C   UNL     1     -18.369  40.556 -10.276  0.00  0.00    +0.523 A 
ATOM      2  C   UNL     1     -19.597  39.906 -10.104  0.00  0.00    +0.017 A 
ATOM      3  C   UNL     1     -20.437  40.250  -9.052  0.00  0.00    +0.135 A 
ATOM      4  C   UNL     1     -20.058  41.275  -8.191  0.00  0.00    -0.112 A 
ATOM      5  C   UNL     1     -18.842  41.921  -8.397  0.00  0.00    +0.352 A 
ATOM      6  N   UNL     1     -18.046  41.522  -9.396  0.00  0.00    -0.656 N 
ATOM      7  H   UNL     1     -17.100  41.905  -9.525  0.00  0.00    +0.349 HD
ENDROOT
BRANCH   4   8
ATOM      8  C   UNL     1     -20.908  41.723  -7.077  0.00  0.00    +0.593 C 
ATOM      9  N   UNL     1     -22.262  41.697  -7.257  0.00  0.00    -0.853 N 
ATOM     10  O   UNL     1     -20.404  42.081  -6.024  0.00  0.00    -0.502 OA
ATOM     11  H   UNL     1     -22.719  41.244  -8.035  0.00  0.00    +0.331 HD
ATOM     12  H   UNL     1     -22.840  41.962  -6.468  0.00  0.00    +0.357 HD
ENDBRANCH   4   8
BRANCH   1  13
ATOM     13  N   UNL     1     -17.582  40.182 -11.293  0.00  0.00    -0.507 NA
BRANCH  13  14
ATOM     14  C   UNL     1     -18.030  40.448 -12.519  0.00  0.00    +0.549 C 
ATOM     15  O   UNL     1     -18.470  39.609 -13.310  0.00  0.00    -0.506 OA
BRANCH  14  17
ATOM     16  C   UNL     1     -19.216  42.695 -13.212  0.00  0.00    +0.072 C 
ATOM     17  C   UNL     1     -17.921  41.928 -12.858  0.00  0.00    -0.134 C 
BRANCH  17  18
ATOM     18  C   UNL     1     -16.616  42.721 -12.810  0.00  0.00    +0.613 C 
ATOM     19  N   UNL     1     -15.588  42.127 -12.118  0.00  0.00    -0.838 N 
ATOM     20  O   UNL     1     -16.403  43.804 -13.347  0.00  0.00    -0.484 OA
ATOM     21  H   UNL     1     -15.704  41.210 -11.700  0.00  0.00    +0.339 HD
ATOM     22  H   UNL     1     -14.696  42.598 -12.080  0.00  0.00    +0.361 HD
ENDBRANCH  17  18
ENDBRANCH  14  17
ENDBRANCH  13  14
ENDBRANCH   1  13
TORSDOF 5
ENDMDL
MODEL 5
REMARK VINA RESULT:    -6.523      1.916      6.263
REMARK INTER + INTRA:          -9.305
REMARK INTER:                  -9.190
REMARK INTRA:                  -0.115
REMARK UNBOUND:                -0.875
REMARK  Name = 
REMARK  5 active torsions:
REMARK  status: ('A' for Active; 'I' for Inactive)
REMARK    1  A    between atoms: C_2  and  C_3
REMARK    2  A    between atoms: C_2  and  C_6
REMARK    3  A    between atoms: C_6  and  N_8
REMARK    4  A    between atoms: N_8  and  C_9
REMARK    5  A    between atoms: C_12  and  C_13
REMARK                            x       y       z     vdW  Elec       q    Type
REMARK                         _______ _______ _______ _____ _____    ______ ____
ROOT
ATOM      1  C   UNL     1     -19.197  40.565  -9.082  0.00  0.00    +0.523 A 
ATOM      2  C   UNL     1     -18.252  41.526  -9.458  0.00  0.00    +0.017 A 
ATOM      3  C   UNL     1     -17.800  41.597 -10.770  0.00  0.00    +0.135 A 
ATOM      4  C   UNL     1     -18.327  40.724 -11.715  0.00  0.00    -0.112 A 
ATOM      5  C   UNL     1     -19.284  39.792 -11.321  0.00  0.00    +0.352 A 
ATOM      6  N   UNL     1     -19.652  39.731 -10.036  0.00  0.00    -0.656 N 
ATOM      7  H   UNL     1     -20.282  38.997  -9.683  0.00  0.00    +0.349 HD
ENDROOT
BRANCH   4   8
ATOM      8  C   UNL     1     -17.929  40.761 -13.131  0.00  0.00    +0.593 C 
ATOM      9  N   UNL     1     -18.545  41.670 -13.944  0.00  0.00    -0.853 N 
ATOM     10  O   UNL     1     -17.057  40.013 -13.544  0.00  0.00    -0.502 OA
ATOM     11  H   UNL     1     -19.133  42.419 -13.608  0.00  0.00    +0.331 HD
ATOM     12  H   UNL     1     -18.230  41.721 -14.906  0.00  0.00    +0.357 HD
ENDBRANCH   4   8
BRANCH   1  13
ATOM     13  N   UNL     1     -19.593  40.520  -7.803  0.00  0.00    -0.507 NA
BRANCH  13  14
ATOM     14  C   UNL     1     -19.980  41.673  -7.260  0.00  0.00    +0.549 C 
ATOM     15  O   UNL     1     -19.222  42.585  -6.919  0.00  0.00    -0.506 OA
BRANCH  14  17
ATOM     16  C   UNL     1     -22.361  40.684  -7.800  0.00  0.00    +0.072 C 
ATOM     17  C   UNL     1     -21.490  41.742  -7.082  0.00  0.00    -0.134 C 
BRANCH  17  18
ATOM     18  C   UNL     1     -22.198  42.755  -6.186  0.00  0.00    +0.613 C 
ATOM     19  N   UNL     1     -22.001  44.075  -6.514  0.00  0.00    -0.838 N 
ATOM     20  O   UNL     1     -22.934  42.499  -5.237  0.00  0.00    -0.484 OA
ATOM     21  H   UNL     1     -21.441  44.332  -7.320  0.00  0.00    +0.339 HD
ATOM     22  H   UNL     1     -22.469  44.784  -5.969  0.00  0.00    +0.361 HD
ENDBRANCH  17  18
ENDBRANCH  14  17
ENDBRANCH  13  14
ENDBRANCH   1  13
TORSDOF 5
ENDMDL
