MODEL 1
REMARK VINA RESULT:    -7.567      0.000      0.000
REMARK INTER + INTRA:         -10.407
REMARK INTER:                  -9.337
REMARK INTRA:                  -1.070
REMARK UNBOUND:                -1.070
REMARK  Name = 
REMARK  4 active torsions:
REMARK  status: ('A' for Active; 'I' for Inactive)
REMARK    1  A    between atoms: N_3  and  C_4
REMARK    2  A    between atoms: C_10  and  C_11
REMARK    3  A    between atoms: N_13  and  C_14
REMARK    4  A    between atoms: C_14  and  C_15
REMARK                            x       y       z     vdW  Elec       q    Type
REMARK                         _______ _______ _______ _____ _____    ______ ____
ROOT
ATOM      1  C   UNL     1     -18.532  42.381 -12.601  0.00  0.00    +0.397 C 
ATOM      2  N   UNL     1     -17.582  41.514 -13.272  0.00  0.00    -0.660 N 
ATOM      3  C   UNL     1     -17.639  40.154 -13.152  0.00  0.00    +0.528 C 
ATOM      4  N   UNL     1     -17.267  39.367 -14.103  0.00  0.00    -0.611 NA
ATOM      5  C   UNL     1     -18.086  39.539 -11.847  0.00  0.00    +0.113 C 
ATOM      6  C   UNL     1     -19.120  40.388 -11.122  0.00  0.00    +0.189 C 
ATOM      7  C   UNL     1     -18.838  41.897 -11.173  0.00  0.00    -0.012 C 
ATOM      8  H   UNL     1     -17.329  41.852 -14.192  0.00  0.00    +0.306 HD
ATOM      9  H   UNL     1     -16.965  39.906 -14.915  0.00  0.00    +0.300 HD
ENDROOT
BRANCH   7  10
ATOM     10  C   UNL     1     -17.703  42.299 -10.247  0.00  0.00    +0.536 C 
ATOM     11  O   UNL     1     -16.546  42.494 -10.626  0.00  0.00    -0.506 OA
ATOM     12  N   UNL     1     -17.993  42.466  -8.917  0.00  0.00    -0.700 N 
ATOM     13  H   UNL     1     -17.153  42.706  -8.396  0.00  0.00    +0.324 HD
BRANCH  12  14
ATOM     14  C   UNL     1     -19.019  42.086  -8.123  0.00  0.00    +0.241 C 
BRANCH  14  15
ATOM     15  C   UNL     1     -20.238  41.802  -7.441  0.00  0.00    -0.069 C 
ATOM     16  C   UNL     1     -21.220  41.071  -8.111  0.00  0.00    +0.021 C 
ATOM     17  C   UNL     1     -22.496  40.954  -7.568  0.00  0.00    +0.007 C 
ATOM     18  C   UNL     1     -22.791  41.573  -6.356  0.00  0.00    +0.012 C 
ATOM     19  C   UNL     1     -21.804  42.284  -5.676  0.00  0.00    +0.011 C 
ATOM     20  C   UNL     1     -20.527  42.406  -6.222  0.00  0.00    +0.030 C 
ENDBRANCH  14  15
ENDBRANCH  12  14
ENDBRANCH   7  10
BRANCH   1  23
ATOM     21  N   UNL     1     -19.553  42.703 -15.719  0.00  0.00    -0.172 NA
ATOM     22  N   UNL     1     -19.668  42.586 -14.593  0.00  0.00    -0.024 NA
ATOM     23  N   UNL     1     -19.787  42.463 -13.363  0.00  0.00    -0.260 NA
ENDBRANCH   1  23
TORSDOF 4
ENDMDL
MODEL 2
REMARK VINA RESULT:    -7.520      2.425      3.601
REMARK INTER + INTRA:         -10.349
REMARK INTER:                  -9.359
REMARK INTRA:                  -0.990
REMARK UNBOUND:                -1.070
REMARK  Name = 
REMARK  4 active torsions:
REMARK  status: ('A' for Active; 'I' for Inactive)
REMARK    1  A    between atoms: N_3  and  C_4
REMARK    2  A    between atoms: C_10  and  C_11
REMARK    3  A    between atoms: N_13  and  C_14
REMARK    4  A    between atoms: C_14  and  C_15
REMARK                            x       y       z     vdW  Elec       q    Type
REMARK                         _______ _______ _______ _____ _____    ______ ____
ROOT
ATOM      1  C   UNL     1     -15.806  41.885 -11.734  0.00  0.00    +0.397 C 
ATOM      2  N   UNL     1     -16.034  42.535 -13.011  0.00  0.00    -0.660 N 
ATOM      3  C   UNL     1     -16.954  43.533 -13.157  0.00  0.00    +0.528 C 
ATOM      4  N   UNL     1     -16.800  44.488 -14.010  0.00  0.00    -0.611 NA
ATOM      5  C   UNL     1     -18.230  43.495 -12.349  0.00  0.00    +0.113 C 
ATOM      6  C   UNL     1     -18.036  42.863 -10.977  0.00  0.00    +0.189 C 
ATOM      7  C   UNL     1     -17.122  41.629 -10.980  0.00  0.00    -0.012 C 
ATOM      8  H   UNL     1     -15.181  42.658 -13.543  0.00  0.00    +0.306 HD
ATOM      9  H   UNL     1     -15.915  44.383 -14.506  0.00  0.00    +0.300 HD
ENDROOT
BRANCH   7  10
ATOM     10  C   UNL     1     -17.812  40.407 -11.564  0.00  0.00    +0.536 C 
ATOM     11  O   UNL     1     -17.549  39.937 -12.672  0.00  0.00    -0.506 OA
ATOM     12  N   UNL     1     -18.771  39.790 -10.801  0.00  0.00    -0.700 N 
ATOM     13  H   UNL     1     -19.178  39.007 -11.305  0.00  0.00    +0.324 HD
BRANCH  12  14
ATOM     14  C   UNL     1     -19.494  40.159  -9.721  0.00  0.00    +0.241 C 
BRANCH  14  15
ATOM     15  C   UNL     1     -20.085  40.707  -8.545  0.00  0.00    -0.069 C 
ATOM     16  C   UNL     1     -21.464  40.585  -8.374  0.00  0.00    +0.021 C 
ATOM     17  C   UNL     1     -22.107  41.284  -7.358  0.00  0.00    +0.007 C 
ATOM     18  C   UNL     1     -21.370  42.111  -6.514  0.00  0.00    +0.012 C 
ATOM     19  C   UNL     1     -19.989  42.216  -6.670  0.00  0.00    +0.011 C 
ATOM     20  C   UNL     1     -19.345  41.520  -7.692  0.00  0.00    +0.030 C 
ENDBRANCH  14  15
ENDBRANCH  12  14
ENDBRANCH   7  10
BRANCH   1  23
ATOM     21  N   UNL     1     -12.869  43.375 -11.898  0.00  0.00    -0.172 NA
ATOM     22  N   UNL     1     -13.849  43.054 -11.414  0.00  0.00    -0.024 NA
ATOM     23  N   UNL     1     -14.916  42.697 -10.890  0.00  0.00    -0.260 NA
ENDBRANCH   1  23
TORSDOF 4
ENDMDL
MODEL 3
REMARK VINA RESULT:    -7.423      2.568      3.175
REMARK INTER + INTRA:         -10.229
REMARK INTER:                 -10.342
REMARK INTRA:                   0.113
REMARK UNBOUND:                -1.070
REMARK  Name = 
REMARK  4 active torsions:
REMARK  status: ('A' for Active; 'I' for Inactive)
REMARK    1  A    between atoms: N_3  and  C_4
REMARK    2  A    between atoms: C_10  and  C_11
REMARK    3  A    between atoms: N_13  and  C_14
REMARK    4  A    between atoms: C_14  and  C_15
REMARK                            x       y       z     vdW  Elec       q    Type
REMARK                         _______ _______ _______ _____ _____    ______ ____
ROOT
ATOM      1  C   UNL     1     -18.102  41.139 -10.123  0.00  0.00    +0.397 C 
ATOM      2  N   UNL     1     -16.846  40.421 -10.238  0.00  0.00    -0.660 N 
ATOM      3  C   UNL     1     -16.231  40.235 -11.443  0.00  0.00    +0.528 C 
ATOM      4  N   UNL     1     -14.949  40.164 -11.555  0.00  0.00    -0.611 NA
ATOM      5  C   UNL     1     -17.069  40.037 -12.685  0.00  0.00    +0.113 C 
ATOM      6  C   UNL     1     -18.382  40.808 -12.636  0.00  0.00    +0.189 C 
ATOM      7  C   UNL     1     -19.070  40.783 -11.263  0.00  0.00    -0.012 C 
ATOM      8  H   UNL     1     -16.221  40.603  -9.463  0.00  0.00    +0.306 HD
ATOM      9  H   UNL     1     -14.505  40.287 -10.645  0.00  0.00    +0.300 HD
ENDROOT
BRANCH   7  10
ATOM     10  C   UNL     1     -19.724  39.442 -10.975  0.00  0.00    +0.536 C 
ATOM     11  O   UNL     1     -19.704  38.489 -11.757  0.00  0.00    -0.506 OA
ATOM     12  N   UNL     1     -20.359  39.287  -9.769  0.00  0.00    -0.700 N 
ATOM     13  H   UNL     1     -20.779  38.364  -9.703  0.00  0.00    +0.324 HD
BRANCH  12  14
ATOM     14  C   UNL     1     -20.813  40.145  -8.829  0.00  0.00    +0.241 C 
BRANCH  14  15
ATOM     15  C   UNL     1     -21.076  41.146  -7.848  0.00  0.00    -0.069 C 
ATOM     16  C   UNL     1     -20.010  41.630  -7.089  0.00  0.00    +0.021 C 
ATOM     17  C   UNL     1     -20.250  42.443  -5.986  0.00  0.00    +0.007 C 
ATOM     18  C   UNL     1     -21.559  42.769  -5.639  0.00  0.00    +0.012 C 
ATOM     19  C   UNL     1     -22.623  42.304  -6.410  0.00  0.00    +0.011 C 
ATOM     20  C   UNL     1     -22.383  41.484  -7.512  0.00  0.00    +0.030 C 
ENDBRANCH  14  15
ENDBRANCH  12  14
ENDBRANCH   7  10
BRANCH   1  23
ATOM     21  N   UNL     1     -15.924  43.331 -11.274  0.00  0.00    -0.172 NA
ATOM     22  N   UNL     1     -16.857  42.980 -10.723  0.00  0.00    -0.024 NA
ATOM     23  N   UNL     1     -17.870  42.591 -10.120  0.00  0.00    -0.260 NA
ENDBRANCH   1  23
TORSDOF 4
ENDMDL
MODEL 4
REMARK VINA RESULT:    -7.163      3.167      5.288
REMARK INTER + INTRA:          -9.908
REMARK INTER:                  -9.236
REMARK INTRA:                  -0.673
REMARK UNBOUND:                -1.070
REMARK  Name = 
REMARK  4 active torsions:
REMARK  status: ('A' for Active; 'I' for Inactive)
REMARK    1  A    between atoms: N_3  and  C_4
REMARK    2  A    between atoms: C_10  and  C_11
REMARK    3  A    between atoms: N_13  and  C_14
REMARK    4  A    between atoms: C_14  and  C_15
REMARK                            x       y       z     vdW  Elec       q    Type
REMARK                         _______ _______ _______ _____ _____    ______ ____
ROOT
ATOM      1  C   UNL     1     -18.505  41.246 -13.088  0.00  0.00    +0.397 C 
ATOM      2  N   UNL     1     -18.720  39.821 -12.919  0.00  0.00    -0.660 N 
ATOM      3  C   UNL     1     -19.224  39.301 -11.761  0.00  0.00    +0.528 C 
ATOM      4  N   UNL     1     -19.953  38.238 -11.748  0.00  0.00    -0.611 NA
ATOM      5  C   UNL     1     -18.870  39.942 -10.440  0.00  0.00    +0.113 C 
ATOM      6  C   UNL     1     -18.678  41.448 -10.552  0.00  0.00    +0.189 C 
ATOM      7  C   UNL     1     -17.928  41.891 -11.817  0.00  0.00    -0.012 C 
ATOM      8  H   UNL     1     -19.047  39.373 -13.766  0.00  0.00    +0.306 HD
ATOM      9  H   UNL     1     -20.095  37.891 -12.697  0.00  0.00    +0.300 HD
ENDROOT
BRANCH   7  10
ATOM     10  C   UNL     1     -16.439  41.601 -11.731  0.00  0.00    +0.536 C 
ATOM     11  O   UNL     1     -15.973  40.490 -11.471  0.00  0.00    -0.506 OA
ATOM     12  N   UNL     1     -15.571  42.635 -11.971  0.00  0.00    -0.700 N 
ATOM     13  H   UNL     1     -14.609  42.328 -11.858  0.00  0.00    +0.324 HD
BRANCH  12  14
ATOM     14  C   UNL     1     -15.699  43.981 -12.003  0.00  0.00    +0.241 C 
BRANCH  14  15
ATOM     15  C   UNL     1     -16.045  45.362 -11.937  0.00  0.00    -0.069 C 
ATOM     16  C   UNL     1     -15.017  46.306 -11.919  0.00  0.00    +0.021 C 
ATOM     17  C   UNL     1     -15.299  47.640 -11.643  0.00  0.00    +0.007 C 
ATOM     18  C   UNL     1     -16.609  48.030 -11.381  0.00  0.00    +0.012 C 
ATOM     19  C   UNL     1     -17.639  47.092 -11.422  0.00  0.00    +0.011 C 
ATOM     20  C   UNL     1     -17.357  45.754 -11.692  0.00  0.00    +0.030 C 
ENDBRANCH  14  15
ENDBRANCH  12  14
ENDBRANCH   7  10
BRANCH   1  23
ATOM     21  N   UNL     1     -19.886  42.771 -15.665  0.00  0.00    -0.172 NA
ATOM     22  N   UNL     1     -19.830  42.364 -14.603  0.00  0.00    -0.024 NA
ATOM     23  N   UNL     1     -19.762  41.921 -13.445  0.00  0.00    -0.260 NA
ENDBRANCH   1  23
TORSDOF 4
ENDMDL
MODEL 5
REMARK VINA RESULT:    -6.848      3.600      6.660
REMARK INTER + INTRA:          -9.520
REMARK INTER:                  -8.579
REMARK INTRA:                  -0.940
REMARK UNBOUND:                -1.070
REMARK  Name = 
REMARK  4 active torsions:
REMARK  status: ('A' for Active; 'I' for Inactive)
REMARK    1  A    between atoms: N_3  and  C_4
REMARK    2  A    between atoms: C_10  and  C_11
REMARK    3  A    between atoms: N_13  and  C_14
REMARK    4  A    between atoms: C_14  and  C_15
REMARK                            x       y       z     vdW  Elec       q    Type
REMARK                         _______ _______ _______ _____ _____    ______ ____
ROOT
ATOM      1  C   UNL     1     -18.575  41.615 -10.138  0.00  0.00    +0.397 C 
ATOM      2  N   UNL     1     -19.409  40.727 -10.927  0.00  0.00    -0.660 N 
ATOM      3  C   UNL     1     -18.908  39.600 -11.513  0.00  0.00    +0.528 C 
ATOM      4  N   UNL     1     -19.624  38.542 -11.688  0.00  0.00    -0.611 NA
ATOM      5  C   UNL     1     -17.491  39.601 -12.039  0.00  0.00    +0.113 C 
ATOM      6  C   UNL     1     -16.561  40.483 -11.218  0.00  0.00    +0.189 C 
ATOM      7  C   UNL     1     -17.189  41.812 -10.775  0.00  0.00    -0.012 C 
ATOM      8  H   UNL     1     -20.343  40.632 -10.549  0.00  0.00    +0.306 HD
ATOM      9  H   UNL     1     -20.562  38.681 -11.314  0.00  0.00    +0.300 HD
ENDROOT
BRANCH   7  10
ATOM     10  C   UNL     1     -17.293  42.805 -11.920  0.00  0.00    +0.536 C 
ATOM     11  O   UNL     1     -18.286  42.915 -12.642  0.00  0.00    -0.506 OA
ATOM     12  N   UNL     1     -16.223  43.633 -12.148  0.00  0.00    -0.700 N 
ATOM     13  H   UNL     1     -16.398  44.230 -12.951  0.00  0.00    +0.324 HD
BRANCH  12  14
ATOM     14  C   UNL     1     -14.925  43.615 -11.773  0.00  0.00    +0.241 C 
BRANCH  14  15
ATOM     15  C   UNL     1     -13.571  43.360 -11.406  0.00  0.00    -0.069 C 
ATOM     16  C   UNL     1     -13.251  42.115 -10.863  0.00  0.00    +0.021 C 
ATOM     17  C   UNL     1     -11.997  41.900 -10.299  0.00  0.00    +0.007 C 
ATOM     18  C   UNL     1     -11.064  42.934 -10.273  0.00  0.00    +0.012 C 
ATOM     19  C   UNL     1     -11.376  44.171 -10.835  0.00  0.00    +0.011 C 
ATOM     20  C   UNL     1     -12.634  44.388 -11.395  0.00  0.00    +0.030 C 
ENDBRANCH  14  15
ENDBRANCH  12  14
ENDBRANCH   7  10
BRANCH   1  23
ATOM     21  N   UNL     1     -19.449  42.362  -7.048  0.00  0.00    -0.172 NA
ATOM     22  N   UNL     1     -18.953  41.752  -7.871  0.00  0.00    -0.024 NA
ATOM     23  N   UNL     1     -18.410  41.093  -8.773  0.00  0.00    -0.260 NA
ENDBRANCH   1  23
TORSDOF 4
ENDMDL
