MODEL 1
REMARK VINA RESULT:    -8.242      0.000      0.000
REMARK INTER + INTRA:         -10.884
REMARK INTER:                 -10.410
REMARK INTRA:                  -0.474
REMARK UNBOUND:                -0.474
REMARK  Name = 
REMARK  5 active torsions:
REMARK  status: ('A' for Active; 'I' for Inactive)
REMARK    1  A    between atoms: N_1  and  C_2
REMARK    2  A    between atoms: C_2  and  C_4
REMARK    3  A    between atoms: C_7  and  N_8
REMARK    4  A    between atoms: N_8  and  C_9
REMARK    5  A    between atoms: C_9  and  C_10
REMARK                            x       y       z     vdW  Elec       q    Type
REMARK                         _______ _______ _______ _____ _____    ______ ____
ROOT
ATOM      1  N   UNL     1     -17.690  40.459  -9.051  0.00  0.00    -0.811 NA
ATOM      2  H   UNL     1     -17.398  39.637  -8.514  0.00  0.00    +0.351 HD
ATOM      3  H   UNL     1     -17.030  41.226  -8.874  0.00  0.00    +0.346 HD
ENDROOT
BRANCH   1   7
ATOM      4  C   UNL     1     -21.400  41.519  -7.464  0.00  0.00    -0.122 C 
ATOM      5  C   UNL     1     -21.333  40.465  -8.371  0.00  0.00    +0.168 C 
ATOM      6  C   UNL     1     -20.110  40.124  -8.932  0.00  0.00    -0.033 C 
ATOM      7  C   UNL     1     -19.000  40.859  -8.542  0.00  0.00    +0.421 C 
ATOM      8  N   UNL     1     -19.020  41.895  -7.676  0.00  0.00    -0.416 NA
ATOM      9  C   UNL     1     -20.238  42.204  -7.166  0.00  0.00    +0.284 C 
BRANCH   4  10
ATOM     10  C   UNL     1     -22.648  41.852  -6.784  0.00  0.00    +0.597 C 
ATOM     11  O   UNL     1     -23.597  41.096  -6.897  0.00  0.00    -0.442 OA
BRANCH  10  12
ATOM     12  N   UNL     1     -22.619  42.977  -6.082  0.00  0.00    -0.504 NA
ATOM     13  H   UNL     1     -23.023  42.734  -5.163  0.00  0.00    +0.349 HD
ENDBRANCH  10  12
ENDBRANCH   4  10
ENDBRANCH   1   7
BRANCH   1  14
ATOM     14  C   UNL     1     -17.740  40.155 -10.481  0.00  0.00    +0.285 C 
BRANCH  14  15
ATOM     15  C   UNL     1     -17.849  40.309 -11.906  0.00  0.00    -0.008 C 
ATOM     16  C   UNL     1     -16.916  41.251 -12.505  0.00  0.00    +0.048 C 
ATOM     17  C   UNL     1     -17.302  42.619 -13.128  0.00  0.00    +0.250 C 
ATOM     18  N   UNL     1     -18.634  43.216 -13.371  0.00  0.00    -0.768 N 
ATOM     19  C   UNL     1     -19.494  42.053 -13.060  0.00  0.00    +0.256 C 
ATOM     20  C   UNL     1     -19.157  40.677 -12.427  0.00  0.00    +0.054 C 
ATOM     21  H   UNL     1     -18.743  43.551 -14.334  0.00  0.00    +0.352 HD
ATOM     22  H   UNL     1     -18.809  43.985 -12.703  0.00  0.00    +0.342 HD
ENDBRANCH  14  15
ENDBRANCH   1  14
TORSDOF 5
ENDMDL
MODEL 2
REMARK VINA RESULT:    -7.243      1.771      2.377
REMARK INTER + INTRA:          -9.622
REMARK INTER:                  -9.215
REMARK INTRA:                  -0.407
REMARK UNBOUND:                -0.474
REMARK  Name = 
REMARK  5 active torsions:
REMARK  status: ('A' for Active; 'I' for Inactive)
REMARK    1  A    between atoms: N_1  and  C_2
REMARK    2  A    between atoms: C_2  and  C_4
REMARK    3  A    between atoms: C_7  and  N_8
REMARK    4  A    between atoms: N_8  and  C_9
REMARK    5  A    between atoms: C_9  and  C_10
REMARK                            x       y       z     vdW  Elec       q    Type
REMARK                         _______ _______ _______ _____ _____    ______ ____
ROOT
ATOM      1  N   UNL     1     -17.805  40.463  -9.552  0.00  0.00    -0.811 NA
ATOM      2  H   UNL     1     -17.978  39.698 -10.211  0.00  0.00    +0.351 HD
ATOM      3  H   UNL     1     -17.105  40.160  -8.864  0.00  0.00    +0.346 HD
ENDROOT
BRANCH   1   7
ATOM      4  C   UNL     1     -21.439  41.255  -7.661  0.00  0.00    -0.122 C 
ATOM      5  C   UNL     1     -20.330  42.031  -7.338  0.00  0.00    +0.168 C 
ATOM      6  C   UNL     1     -19.106  41.757  -7.935  0.00  0.00    -0.033 C 
ATOM      7  C   UNL     1     -19.059  40.712  -8.846  0.00  0.00    +0.421 C 
ATOM      8  N   UNL     1     -20.105  39.925  -9.180  0.00  0.00    -0.416 NA
ATOM      9  C   UNL     1     -21.276  40.219  -8.561  0.00  0.00    +0.284 C 
BRANCH   4  10
ATOM     10  C   UNL     1     -22.760  41.566  -7.126  0.00  0.00    +0.597 C 
ATOM     11  O   UNL     1     -22.868  42.475  -6.322  0.00  0.00    -0.442 OA
BRANCH  10  12
ATOM     12  N   UNL     1     -23.744  40.807  -7.590  0.00  0.00    -0.504 NA
ATOM     13  H   UNL     1     -24.607  41.201  -7.182  0.00  0.00    +0.349 HD
ENDBRANCH  10  12
ENDBRANCH   4  10
ENDBRANCH   1   7
BRANCH   1  14
ATOM     14  C   UNL     1     -17.340  41.659 -10.256  0.00  0.00    +0.285 C 
BRANCH  14  15
ATOM     15  C   UNL     1     -17.230  43.016 -10.714  0.00  0.00    -0.008 C 
ATOM     16  C   UNL     1     -18.242  43.435 -11.672  0.00  0.00    +0.048 C 
ATOM     17  C   UNL     1     -17.982  43.748 -13.170  0.00  0.00    +0.250 C 
ATOM     18  N   UNL     1     -16.710  43.820 -13.923  0.00  0.00    -0.768 N 
ATOM     19  C   UNL     1     -15.746  43.732 -12.804  0.00  0.00    +0.256 C 
ATOM     20  C   UNL     1     -15.957  43.409 -11.300  0.00  0.00    +0.054 C 
ATOM     21  H   UNL     1     -16.623  44.689 -14.461  0.00  0.00    +0.352 HD
ATOM     22  H   UNL     1     -16.617  43.002 -14.547  0.00  0.00    +0.342 HD
ENDBRANCH  14  15
ENDBRANCH   1  14
TORSDOF 5
ENDMDL
MODEL 3
REMARK VINA RESULT:    -6.549      2.651      6.332
REMARK INTER + INTRA:          -8.745
REMARK INTER:                  -8.416
REMARK INTRA:                  -0.329
REMARK UNBOUND:                -0.474
REMARK  Name = 
REMARK  5 active torsions:
REMARK  status: ('A' for Active; 'I' for Inactive)
REMARK    1  A    between atoms: N_1  and  C_2
REMARK    2  A    between atoms: C_2  and  C_4
REMARK    3  A    between atoms: C_7  and  N_8
REMARK    4  A    between atoms: N_8  and  C_9
REMARK    5  A    between atoms: C_9  and  C_10
REMARK                            x       y       z     vdW  Elec       q    Type
REMARK                         _______ _______ _______ _____ _____    ______ ____
ROOT
ATOM      1  N   UNL     1     -17.691  41.406  -9.752  0.00  0.00    -0.811 NA
ATOM      2  H   UNL     1     -16.907  41.994  -9.451  0.00  0.00    +0.351 HD
ATOM      3  H   UNL     1     -17.349  40.454  -9.927  0.00  0.00    +0.346 HD
ENDROOT
BRANCH   1   7
ATOM      4  C   UNL     1     -18.985  42.872 -13.438  0.00  0.00    -0.122 C 
ATOM      5  C   UNL     1     -17.997  43.568 -12.747  0.00  0.00    +0.168 C 
ATOM      6  C   UNL     1     -17.581  43.109 -11.504  0.00  0.00    -0.033 C 
ATOM      7  C   UNL     1     -18.177  41.956 -11.015  0.00  0.00    +0.421 C 
ATOM      8  N   UNL     1     -19.146  41.256 -11.644  0.00  0.00    -0.416 NA
ATOM      9  C   UNL     1     -19.533  41.750 -12.847  0.00  0.00    +0.284 C 
BRANCH   4  10
ATOM     10  C   UNL     1     -19.386  43.267 -14.784  0.00  0.00    +0.597 C 
ATOM     11  O   UNL     1     -20.297  42.664 -15.325  0.00  0.00    -0.442 OA
BRANCH  10  12
ATOM     12  N   UNL     1     -18.703  44.282 -15.297  0.00  0.00    -0.504 NA
ATOM     13  H   UNL     1     -18.445  43.982 -16.250  0.00  0.00    +0.349 HD
ENDBRANCH  10  12
ENDBRANCH   4  10
ENDBRANCH   1   7
BRANCH   1  14
ATOM     14  C   UNL     1     -18.745  41.387  -8.736  0.00  0.00    +0.285 C 
BRANCH  14  15
ATOM     15  C   UNL     1     -19.588  40.961  -7.654  0.00  0.00    -0.008 C 
ATOM     16  C   UNL     1     -20.808  40.271  -8.047  0.00  0.00    +0.048 C 
ATOM     17  C   UNL     1     -22.245  40.837  -7.893  0.00  0.00    +0.250 C 
ATOM     18  N   UNL     1     -22.719  42.075  -7.238  0.00  0.00    -0.768 N 
ATOM     19  C   UNL     1     -21.468  42.509  -6.579  0.00  0.00    +0.256 C 
ATOM     20  C   UNL     1     -20.012  41.987  -6.712  0.00  0.00    +0.054 C 
ATOM     21  H   UNL     1     -23.482  41.901  -6.576  0.00  0.00    +0.352 HD
ATOM     22  H   UNL     1     -23.013  42.766  -7.948  0.00  0.00    +0.342 HD
ENDBRANCH  14  15
ENDBRANCH   1  14
TORSDOF 5
ENDMDL
MODEL 4
REMARK VINA RESULT:    -6.362      3.599      5.804
REMARK INTER + INTRA:          -8.510
REMARK INTER:                  -8.253
REMARK INTRA:                  -0.256
REMARK UNBOUND:                -0.474
REMARK  Name = 
REMARK  5 active torsions:
REMARK  status: ('A' for Active; 'I' for Inactive)
REMARK    1  A    between atoms: N_1  and  C_2
REMARK    2  A    between atoms: C_2  and  C_4
REMARK    3  A    between atoms: C_7  and  N_8
REMARK    4  A    between atoms: N_8  and  C_9
REMARK    5  A    between atoms: C_9  and  C_10
REMARK                            x       y       z     vdW  Elec       q    Type
REMARK                         _______ _______ _______ _____ _____    ______ ____
ROOT
ATOM      1  N   UNL     1     -18.693  43.482 -14.658  0.00  0.00    -0.811 NA
ATOM      2  H   UNL     1     -17.924  43.186 -15.268  0.00  0.00    +0.351 HD
ATOM      3  H   UNL     1     -18.539  44.457 -14.374  0.00  0.00    +0.346 HD
ENDROOT
BRANCH   1   7
ATOM      4  C   UNL     1     -18.657  41.173 -11.184  0.00  0.00    -0.122 C 
ATOM      5  C   UNL     1     -17.761  42.232 -11.296  0.00  0.00    +0.168 C 
ATOM      6  C   UNL     1     -17.740  42.988 -12.460  0.00  0.00    -0.033 C 
ATOM      7  C   UNL     1     -18.637  42.646 -13.462  0.00  0.00    +0.421 C 
ATOM      8  N   UNL     1     -19.513  41.620 -13.402  0.00  0.00    -0.416 NA
ATOM      9  C   UNL     1     -19.488  40.899 -12.253  0.00  0.00    +0.284 C 
BRANCH   4  10
ATOM     10  C   UNL     1     -18.774  40.410  -9.945  0.00  0.00    +0.597 C 
ATOM     11  O   UNL     1     -19.815  39.819  -9.717  0.00  0.00    -0.442 OA
BRANCH  10  12
ATOM     12  N   UNL     1     -17.698  40.432  -9.170  0.00  0.00    -0.504 NA
ATOM     13  H   UNL     1     -17.010  39.825  -9.644  0.00  0.00    +0.349 HD
ENDBRANCH  10  12
ENDBRANCH   4  10
ENDBRANCH   1   7
BRANCH   1  14
ATOM     14  C   UNL     1     -19.979  43.351 -15.344  0.00  0.00    +0.285 C 
BRANCH  14  15
ATOM     15  C   UNL     1     -20.982  42.983 -16.305  0.00  0.00    -0.008 C 
ATOM     16  C   UNL     1     -20.582  43.099 -17.700  0.00  0.00    +0.048 C 
ATOM     17  C   UNL     1     -21.136  44.142 -18.706  0.00  0.00    +0.250 C 
ATOM     18  N   UNL     1     -22.226  45.131 -18.553  0.00  0.00    -0.768 N 
ATOM     19  C   UNL     1     -22.785  44.695 -17.255  0.00  0.00    +0.256 C 
ATOM     20  C   UNL     1     -22.262  43.671 -16.213  0.00  0.00    +0.054 C 
ATOM     21  H   UNL     1     -22.906  45.085 -19.319  0.00  0.00    +0.352 HD
ATOM     22  H   UNL     1     -21.836  46.085 -18.478  0.00  0.00    +0.342 HD
ENDBRANCH  14  15
ENDBRANCH   1  14
TORSDOF 5
ENDMDL
MODEL 5
REMARK VINA RESULT:    -5.959      4.211      6.662
REMARK INTER + INTRA:          -8.001
REMARK INTER:                  -7.470
REMARK INTRA:                  -0.531
REMARK UNBOUND:                -0.474
REMARK  Name = 
REMARK  5 active torsions:
REMARK  status: ('A' for Active; 'I' for Inactive)
REMARK    1  A    between atoms: N_1  and  C_2
REMARK    2  A    between atoms: C_2  and  C_4
REMARK    3  A    between atoms: C_7  and  N_8
REMARK    4  A    between atoms: N_8  and  C_9
REMARK    5  A    between atoms: C_9  and  C_10
REMARK                            x       y       z     vdW  Elec       q    Type
REMARK                         _______ _______ _______ _____ _____    ______ ____
ROOT
ATOM      1  N   UNL     1     -17.840  44.560 -12.148  0.00  0.00    -0.811 NA
ATOM      2  H   UNL     1     -18.536  44.993 -11.533  0.00  0.00    +0.351 HD
ATOM      3  H   UNL     1     -17.137  45.263 -12.405  0.00  0.00    +0.346 HD
ENDROOT
BRANCH   1   7
ATOM      4  C   UNL     1     -19.963  43.484 -15.575  0.00  0.00    -0.122 C 
ATOM      5  C   UNL     1     -19.955  42.614 -14.489  0.00  0.00    +0.168 C 
ATOM      6  C   UNL     1     -19.226  42.945 -13.355  0.00  0.00    -0.033 C 
ATOM      7  C   UNL     1     -18.541  44.151 -13.364  0.00  0.00    +0.421 C 
ATOM      8  N   UNL     1     -18.510  45.019 -14.398  0.00  0.00    -0.416 NA
ATOM      9  C   UNL     1     -19.223  44.648 -15.491  0.00  0.00    +0.284 C 
BRANCH   4  10
ATOM     10  C   UNL     1     -20.787  43.219 -16.750  0.00  0.00    +0.597 C 
ATOM     11  O   UNL     1     -21.721  43.965 -16.991  0.00  0.00    -0.442 OA
BRANCH  10  12
ATOM     12  N   UNL     1     -20.420  42.164 -17.465  0.00  0.00    -0.504 NA
ATOM     13  H   UNL     1     -21.219  41.967 -18.089  0.00  0.00    +0.349 HD
ENDBRANCH  10  12
ENDBRANCH   4  10
ENDBRANCH   1   7
BRANCH   1  14
ATOM     14  C   UNL     1     -17.201  43.421 -11.489  0.00  0.00    +0.285 C 
BRANCH  14  15
ATOM     15  C   UNL     1     -17.006  42.225 -10.716  0.00  0.00    -0.008 C 
ATOM     16  C   UNL     1     -16.346  41.132 -11.414  0.00  0.00    +0.048 C 
ATOM     17  C   UNL     1     -17.023  39.799 -11.832  0.00  0.00    +0.250 C 
ATOM     18  N   UNL     1     -18.377  39.282 -11.535  0.00  0.00    -0.768 N 
ATOM     19  C   UNL     1     -18.823  40.288 -10.547  0.00  0.00    +0.256 C 
ATOM     20  C   UNL     1     -18.191  41.636 -10.109  0.00  0.00    +0.054 C 
ATOM     21  H   UNL     1     -18.358  38.329 -11.158  0.00  0.00    +0.352 HD
ATOM     22  H   UNL     1     -18.968  39.319 -12.383  0.00  0.00    +0.342 HD
ENDBRANCH  14  15
ENDBRANCH   1  14
TORSDOF 5
ENDMDL
