MODEL 1
REMARK VINA RESULT:    -8.370      0.000      0.000
REMARK INTER + INTRA:          -9.544
REMARK INTER:                  -9.349
REMARK INTRA:                  -0.195
REMARK UNBOUND:                -0.195
REMARK  Name = 
REMARK  2 active torsions:
REMARK  status: ('A' for Active; 'I' for Inactive)
REMARK    1  A    between atoms: C_5  and  C_6
REMARK    2  A    between atoms: C_9  and  C_11
REMARK                            x       y       z     vdW  Elec       q    Type
REMARK                         _______ _______ _______ _____ _____    ______ ____
ROOT
ATOM      1  C   UNL     1     -18.447  40.510  -9.996  0.00  0.00    +0.544 C 
ATOM      2  O   UNL     1     -17.387  41.005  -9.625  0.00  0.00    -0.519 OA
ATOM      3  N   UNL     1     -19.644  40.667  -9.343  0.00  0.00    -0.749 N 
ATOM      4  C   UNL     1     -19.811  41.394  -8.166  0.00  0.00    +0.498 C 
ATOM      5  O   UNL     1     -18.890  41.951  -7.570  0.00  0.00    -0.514 OA
ATOM      6  H   UNL     1     -20.517  40.279  -9.704  0.00  0.00    +0.295 HD
ENDROOT
BRANCH   1  11
ATOM      7  N   UNL     1     -18.506  42.613 -14.291  0.00  0.00    -0.670 NA
ATOM      8  C   UNL     1     -18.490  41.744 -13.333  0.00  0.00    +0.477 C 
ATOM      9  C   UNL     1     -17.176  41.266 -12.748  0.00  0.00    -0.023 C 
ATOM     10  C   UNL     1     -17.286  39.852 -12.192  0.00  0.00    +0.074 C 
ATOM     11  C   UNL     1     -18.510  39.687 -11.285  0.00  0.00    -0.067 C 
ATOM     12  C   UNL     1     -19.775  40.050 -12.070  0.00  0.00    +0.219 C 
ATOM     13  N   UNL     1     -19.662  41.318 -12.776  0.00  0.00    -0.628 N 
ATOM     14  H   UNL     1     -17.553  42.839 -14.585  0.00  0.00    +0.251 HD
ATOM     15  H   UNL     1     -20.121  42.078 -12.274  0.00  0.00    +0.285 HD
ENDBRANCH   1  11
BRANCH   4  16
ATOM     16  C   UNL     1     -21.202  41.362  -7.799  0.00  0.00    +0.046 A 
ATOM     17  C   UNL     1     -21.812  42.296  -7.004  0.00  0.00    +0.153 A 
ATOM     18  N   UNL     1     -23.104  41.976  -6.850  0.00  0.00    -0.280 NA
ATOM     19  N   UNL     1     -23.268  40.836  -7.576  0.00  0.00    -0.108 NA
ATOM     20  N   UNL     1     -22.117  40.430  -8.175  0.00  0.00    -0.282 NA
ENDBRANCH   4  16
TORSDOF 2
ENDMDL
MODEL 2
REMARK VINA RESULT:    -8.092      2.191      2.486
REMARK INTER + INTRA:          -9.233
REMARK INTER:                  -9.173
REMARK INTRA:                  -0.060
REMARK UNBOUND:                -0.195
REMARK  Name = 
REMARK  2 active torsions:
REMARK  status: ('A' for Active; 'I' for Inactive)
REMARK    1  A    between atoms: C_5  and  C_6
REMARK    2  A    between atoms: C_9  and  C_11
REMARK                            x       y       z     vdW  Elec       q    Type
REMARK                         _______ _______ _______ _____ _____    ______ ____
ROOT
ATOM      1  C   UNL     1     -19.493  40.356 -10.725  0.00  0.00    +0.544 C 
ATOM      2  O   UNL     1     -19.302  39.150 -10.846  0.00  0.00    -0.519 OA
ATOM      3  N   UNL     1     -20.239  40.924  -9.723  0.00  0.00    -0.749 N 
ATOM      4  C   UNL     1     -20.891  40.205  -8.721  0.00  0.00    +0.498 C 
ATOM      5  O   UNL     1     -20.888  38.978  -8.648  0.00  0.00    -0.514 OA
ATOM      6  H   UNL     1     -20.341  41.935  -9.624  0.00  0.00    +0.295 HD
ENDROOT
BRANCH   1  11
ATOM      7  N   UNL     1     -14.742  40.713 -11.142  0.00  0.00    -0.670 NA
ATOM      8  C   UNL     1     -16.017  40.864 -11.293  0.00  0.00    +0.477 C 
ATOM      9  C   UNL     1     -16.792  39.977 -12.247  0.00  0.00    -0.023 C 
ATOM     10  C   UNL     1     -18.020  40.684 -12.805  0.00  0.00    +0.074 C 
ATOM     11  C   UNL     1     -18.851  41.345 -11.701  0.00  0.00    -0.067 C 
ATOM     12  C   UNL     1     -17.972  42.336 -10.930  0.00  0.00    +0.219 C 
ATOM     13  N   UNL     1     -16.695  41.767 -10.524  0.00  0.00    -0.628 N 
ATOM     14  H   UNL     1     -14.389  39.992 -11.777  0.00  0.00    +0.251 HD
ATOM     15  H   UNL     1     -16.700  41.476  -9.546  0.00  0.00    +0.285 HD
ENDBRANCH   1  11
BRANCH   4  16
ATOM     16  C   UNL     1     -21.541  41.137  -7.837  0.00  0.00    +0.046 A 
ATOM     17  C   UNL     1     -20.894  42.136  -7.159  0.00  0.00    +0.153 A 
ATOM     18  N   UNL     1     -21.780  42.819  -6.421  0.00  0.00    -0.280 NA
ATOM     19  N   UNL     1     -22.977  42.223  -6.674  0.00  0.00    -0.108 NA
ATOM     20  N   UNL     1     -22.867  41.183  -7.544  0.00  0.00    -0.282 NA
ENDBRANCH   4  16
TORSDOF 2
ENDMDL
MODEL 3
REMARK VINA RESULT:    -7.667      3.095      6.326
REMARK INTER + INTRA:          -8.758
REMARK INTER:                  -8.211
REMARK INTRA:                  -0.547
REMARK UNBOUND:                -0.195
REMARK  Name = 
REMARK  2 active torsions:
REMARK  status: ('A' for Active; 'I' for Inactive)
REMARK    1  A    between atoms: C_5  and  C_6
REMARK    2  A    between atoms: C_9  and  C_11
REMARK                            x       y       z     vdW  Elec       q    Type
REMARK                         _______ _______ _______ _____ _____    ______ ____
ROOT
ATOM      1  C   UNL     1     -18.157  41.713 -13.118  0.00  0.00    +0.544 C 
ATOM      2  O   UNL     1     -17.495  42.591 -12.572  0.00  0.00    -0.519 OA
ATOM      3  N   UNL     1     -19.030  41.935 -14.153  0.00  0.00    -0.749 N 
ATOM      4  C   UNL     1     -19.292  43.186 -14.710  0.00  0.00    +0.498 C 
ATOM      5  O   UNL     1     -18.785  44.232 -14.309  0.00  0.00    -0.514 OA
ATOM      6  H   UNL     1     -19.532  41.175 -14.616  0.00  0.00    +0.295 HD
ENDROOT
BRANCH   1  11
ATOM      7  N   UNL     1     -18.107  40.476  -8.499  0.00  0.00    -0.670 NA
ATOM      8  C   UNL     1     -18.098  40.452  -9.792  0.00  0.00    +0.477 C 
ATOM      9  C   UNL     1     -19.397  40.397 -10.571  0.00  0.00    -0.023 C 
ATOM     10  C   UNL     1     -19.221  39.706 -11.917  0.00  0.00    +0.074 C 
ATOM     11  C   UNL     1     -18.014  40.252 -12.687  0.00  0.00    -0.067 C 
ATOM     12  C   UNL     1     -16.752  40.085 -11.834  0.00  0.00    +0.219 C 
ATOM     13  N   UNL     1     -16.918  40.567 -10.471  0.00  0.00    -0.628 N 
ATOM     14  H   UNL     1     -19.064  40.396  -8.145  0.00  0.00    +0.251 HD
ATOM     15  H   UNL     1     -16.517  41.496 -10.342  0.00  0.00    +0.285 HD
ENDBRANCH   1  11
BRANCH   4  16
ATOM     16  C   UNL     1     -20.231  43.022 -15.789  0.00  0.00    +0.046 A 
ATOM     17  C   UNL     1     -21.468  43.609 -15.830  0.00  0.00    +0.153 A 
ATOM     18  N   UNL     1     -22.092  43.252 -16.961  0.00  0.00    -0.280 NA
ATOM     19  N   UNL     1     -21.207  42.447 -17.608  0.00  0.00    -0.108 NA
ATOM     20  N   UNL     1     -20.048  42.284 -16.915  0.00  0.00    -0.282 NA
ENDBRANCH   4  16
TORSDOF 2
ENDMDL
MODEL 4
REMARK VINA RESULT:    -7.059      1.767      2.079
REMARK INTER + INTRA:          -8.080
REMARK INTER:                  -7.653
REMARK INTRA:                  -0.427
REMARK UNBOUND:                -0.195
REMARK  Name = 
REMARK  2 active torsions:
REMARK  status: ('A' for Active; 'I' for Inactive)
REMARK    1  A    between atoms: C_5  and  C_6
REMARK    2  A    between atoms: C_9  and  C_11
REMARK                            x       y       z     vdW  Elec       q    Type
REMARK                         _______ _______ _______ _____ _____    ______ ____
ROOT
ATOM      1  C   UNL     1     -18.677  39.987 -10.712  0.00  0.00    +0.544 C 
ATOM      2  O   UNL     1     -19.077  38.915 -11.158  0.00  0.00    -0.519 OA
ATOM      3  N   UNL     1     -19.250  40.646  -9.653  0.00  0.00    -0.749 N 
ATOM      4  C   UNL     1     -20.369  40.194  -8.955  0.00  0.00    +0.498 C 
ATOM      5  O   UNL     1     -20.980  39.165  -9.236  0.00  0.00    -0.514 OA
ATOM      6  H   UNL     1     -18.865  41.515  -9.278  0.00  0.00    +0.295 HD
ENDROOT
BRANCH   1  11
ATOM      7  N   UNL     1     -18.989  42.756 -14.599  0.00  0.00    -0.670 NA
ATOM      8  C   UNL     1     -18.557  42.108 -13.566  0.00  0.00    +0.477 C 
ATOM      9  C   UNL     1     -18.593  42.738 -12.188  0.00  0.00    -0.023 C 
ATOM     10  C   UNL     1     -17.493  42.194 -11.288  0.00  0.00    +0.074 C 
ATOM     11  C   UNL     1     -17.441  40.663 -11.309  0.00  0.00    -0.067 C 
ATOM     12  C   UNL     1     -17.234  40.184 -12.750  0.00  0.00    +0.219 C 
ATOM     13  N   UNL     1     -18.147  40.811 -13.695  0.00  0.00    -0.628 N 
ATOM     14  H   UNL     1     -19.271  43.704 -14.334  0.00  0.00    +0.251 HD
ATOM     15  H   UNL     1     -18.935  40.205 -13.926  0.00  0.00    +0.285 HD
ENDBRANCH   1  11
BRANCH   4  16
ATOM     16  C   UNL     1     -20.658  41.126  -7.897  0.00  0.00    +0.046 A 
ATOM     17  C   UNL     1     -19.702  41.762  -7.148  0.00  0.00    +0.153 A 
ATOM     18  N   UNL     1     -20.298  42.556  -6.247  0.00  0.00    -0.280 NA
ATOM     19  N   UNL     1     -21.631  42.398  -6.472  0.00  0.00    -0.108 NA
ATOM     20  N   UNL     1     -21.888  41.525  -7.483  0.00  0.00    -0.282 NA
ENDBRANCH   4  16
TORSDOF 2
ENDMDL
MODEL 5
REMARK VINA RESULT:    -6.701      3.278      6.308
REMARK INTER + INTRA:          -7.680
REMARK INTER:                  -7.441
REMARK INTRA:                  -0.239
REMARK UNBOUND:                -0.195
REMARK  Name = 
REMARK  2 active torsions:
REMARK  status: ('A' for Active; 'I' for Inactive)
REMARK    1  A    between atoms: C_5  and  C_6
REMARK    2  A    between atoms: C_9  and  C_11
REMARK                            x       y       z     vdW  Elec       q    Type
REMARK                         _______ _______ _______ _____ _____    ______ ____
ROOT
ATOM      1  C   UNL     1     -18.447  41.359 -13.050  0.00  0.00    +0.544 C 
ATOM      2  O   UNL     1     -19.526  41.558 -13.599  0.00  0.00    -0.519 OA
ATOM      3  N   UNL     1     -17.480  42.317 -12.876  0.00  0.00    -0.749 N 
ATOM      4  C   UNL     1     -17.590  43.637 -13.313  0.00  0.00    +0.498 C 
ATOM      5  O   UNL     1     -18.560  44.075 -13.929  0.00  0.00    -0.514 OA
ATOM      6  H   UNL     1     -16.610  42.130 -12.375  0.00  0.00    +0.295 HD
ENDROOT
BRANCH   1  11
ATOM      7  N   UNL     1     -18.149  40.664  -8.328  0.00  0.00    -0.670 NA
ATOM      8  C   UNL     1     -18.164  40.495  -9.610  0.00  0.00    +0.477 C 
ATOM      9  C   UNL     1     -19.461  40.197 -10.334  0.00  0.00    -0.023 C 
ATOM     10  C   UNL     1     -19.228  39.385 -11.602  0.00  0.00    +0.074 C 
ATOM     11  C   UNL     1     -18.114  39.984 -12.468  0.00  0.00    -0.067 C 
ATOM     12  C   UNL     1     -16.824  40.068 -11.645  0.00  0.00    +0.219 C 
ATOM     13  N   UNL     1     -17.022  40.676 -10.337  0.00  0.00    -0.628 N 
ATOM     14  H   UNL     1     -19.081  40.508  -7.936  0.00  0.00    +0.251 HD
ATOM     15  H   UNL     1     -16.737  41.656 -10.324  0.00  0.00    +0.285 HD
ENDBRANCH   1  11
BRANCH   4  16
ATOM     16  C   UNL     1     -16.401  44.349 -12.925  0.00  0.00    +0.046 A 
ATOM     17  C   UNL     1     -15.308  43.765 -12.341  0.00  0.00    +0.153 A 
ATOM     18  N   UNL     1     -14.378  44.700 -12.101  0.00  0.00    -0.280 NA
ATOM     19  N   UNL     1     -14.923  45.858 -12.561  0.00  0.00    -0.108 NA
ATOM     20  N   UNL     1     -16.169  45.679 -13.077  0.00  0.00    -0.282 NA
ENDBRANCH   4  16
TORSDOF 2
ENDMDL
