MODEL 1
REMARK VINA RESULT:    -6.799      0.000      0.000
REMARK INTER + INTRA:          -8.193
REMARK INTER:                  -7.593
REMARK INTRA:                  -0.600
REMARK UNBOUND:                -0.600
REMARK  Name = 
REMARK  2 active torsions:
REMARK  status: ('A' for Active; 'I' for Inactive)
REMARK    1  A    between atoms: C_2  and  C_3
REMARK    2  A    between atoms: C_2  and  N_7
REMARK                            x       y       z     vdW  Elec       q    Type
REMARK                         _______ _______ _______ _____ _____    ______ ____
ROOT
ATOM      1  N   UNL     1     -18.888  39.581 -10.951  0.00  0.00    -0.523 NA
ATOM      2  C   UNL     1     -19.031  40.244  -9.843  0.00  0.00    +0.474 A 
ATOM      3  C   UNL     1     -20.290  39.953  -9.097  0.00  0.00    +0.082 A 
ATOM      4  C   UNL     1     -20.555  40.698  -8.019  0.00  0.00    +0.098 A 
ATOM      5  C   UNL     1     -19.583  41.747  -7.642  0.00  0.00    +0.378 A 
ATOM      6  F   UNL     1     -19.926  42.515  -6.600  0.00  0.00    -0.283 F 
ATOM      7  N   UNL     1     -18.448  41.985  -8.220  0.00  0.00    -0.152 NA
ATOM      8  N   UNL     1     -18.171  41.181  -9.297  0.00  0.00    -0.451 N 
ATOM      9  H   UNL     1     -17.306  41.364  -9.818  0.00  0.00    +0.349 HD
ENDROOT
BRANCH   1  11
ATOM     10  O   UNL     1     -16.626  39.570 -11.450  0.00  0.00    -0.477 OA
ATOM     11  C   UNL     1     -17.791  39.809 -11.738  0.00  0.00    +0.599 C 
BRANCH  11  12
ATOM     12  C   UNL     1     -18.224  40.416 -13.008  0.00  0.00    -0.019 C 
ATOM     13  C   UNL     1     -18.293  41.734 -13.184  0.00  0.00    +0.473 C 
ATOM     14  F   UNL     1     -17.967  42.604 -12.207  0.00  0.00    -0.267 F 
ATOM     15  F   UNL     1     -18.701  42.209 -14.381  0.00  0.00    -0.282 F 
ENDBRANCH  11  12
ENDBRANCH   1  11
TORSDOF 2
ENDMDL
MODEL 2
REMARK VINA RESULT:    -6.532      1.838      2.136
REMARK INTER + INTRA:          -7.895
REMARK INTER:                  -7.394
REMARK INTRA:                  -0.502
REMARK UNBOUND:                -0.600
REMARK  Name = 
REMARK  2 active torsions:
REMARK  status: ('A' for Active; 'I' for Inactive)
REMARK    1  A    between atoms: C_2  and  C_3
REMARK    2  A    between atoms: C_2  and  N_7
REMARK                            x       y       z     vdW  Elec       q    Type
REMARK                         _______ _______ _______ _____ _____    ______ ____
ROOT
ATOM      1  N   UNL     1     -18.400  40.963  -9.659  0.00  0.00    -0.523 NA
ATOM      2  C   UNL     1     -19.473  41.119  -8.941  0.00  0.00    +0.474 A 
ATOM      3  C   UNL     1     -19.286  41.936  -7.706  0.00  0.00    +0.082 A 
ATOM      4  C   UNL     1     -20.318  42.022  -6.861  0.00  0.00    +0.098 A 
ATOM      5  C   UNL     1     -21.566  41.310  -7.212  0.00  0.00    +0.378 A 
ATOM      6  F   UNL     1     -22.546  41.365  -6.302  0.00  0.00    -0.283 F 
ATOM      7  N   UNL     1     -21.791  40.649  -8.303  0.00  0.00    -0.152 NA
ATOM      8  N   UNL     1     -20.736  40.609  -9.180  0.00  0.00    -0.451 N 
ATOM      9  H   UNL     1     -20.850  40.056 -10.036  0.00  0.00    +0.349 HD
ENDROOT
BRANCH   1  11
ATOM     10  O   UNL     1     -18.901  39.056 -10.872  0.00  0.00    -0.477 OA
ATOM     11  C   UNL     1     -18.450  40.189 -10.787  0.00  0.00    +0.599 C 
BRANCH  11  12
ATOM     12  C   UNL     1     -17.850  40.930 -11.910  0.00  0.00    -0.019 C 
ATOM     13  C   UNL     1     -18.581  41.463 -12.887  0.00  0.00    +0.473 C 
ATOM     14  F   UNL     1     -19.925  41.361 -12.911  0.00  0.00    -0.267 F 
ATOM     15  F   UNL     1     -17.951  42.127 -13.881  0.00  0.00    -0.282 F 
ENDBRANCH  11  12
ENDBRANCH   1  11
TORSDOF 2
ENDMDL
MODEL 3
REMARK VINA RESULT:    -6.513      2.257      5.716
REMARK INTER + INTRA:          -7.874
REMARK INTER:                  -7.663
REMARK INTRA:                  -0.211
REMARK UNBOUND:                -0.600
REMARK  Name = 
REMARK  2 active torsions:
REMARK  status: ('A' for Active; 'I' for Inactive)
REMARK    1  A    between atoms: C_2  and  C_3
REMARK    2  A    between atoms: C_2  and  N_7
REMARK                            x       y       z     vdW  Elec       q    Type
REMARK                         _______ _______ _______ _____ _____    ______ ____
ROOT
ATOM      1  N   UNL     1     -19.444  41.441  -8.779  0.00  0.00    -0.523 NA
ATOM      2  C   UNL     1     -19.043  40.840  -9.859  0.00  0.00    +0.474 A 
ATOM      3  C   UNL     1     -17.837  41.442 -10.499  0.00  0.00    +0.082 A 
ATOM      4  C   UNL     1     -17.455  40.947 -11.681  0.00  0.00    +0.098 A 
ATOM      5  C   UNL     1     -18.247  39.842 -12.263  0.00  0.00    +0.378 A 
ATOM      6  F   UNL     1     -17.870  39.431 -13.480  0.00  0.00    -0.283 F 
ATOM      7  N   UNL     1     -19.256  39.248 -11.709  0.00  0.00    -0.152 NA
ATOM      8  N   UNL     1     -19.606  39.737 -10.475  0.00  0.00    -0.451 N 
ATOM      9  H   UNL     1     -20.430  39.331 -10.019  0.00  0.00    +0.349 HD
ENDROOT
BRANCH   1  11
ATOM     10  O   UNL     1     -21.446  40.289  -8.614  0.00  0.00    -0.477 OA
ATOM     11  C   UNL     1     -20.571  41.000  -8.140  0.00  0.00    +0.599 C 
BRANCH  11  12
ATOM     12  C   UNL     1     -20.590  41.534  -6.767  0.00  0.00    -0.019 C 
ATOM     13  C   UNL     1     -21.579  42.302  -6.312  0.00  0.00    +0.473 C 
ATOM     14  F   UNL     1     -22.633  42.640  -7.079  0.00  0.00    -0.267 F 
ATOM     15  F   UNL     1     -21.518  42.751  -5.039  0.00  0.00    -0.282 F 
ENDBRANCH  11  12
ENDBRANCH   1  11
TORSDOF 2
ENDMDL
MODEL 4
REMARK VINA RESULT:    -6.233      2.137      2.487
REMARK INTER + INTRA:          -7.561
REMARK INTER:                  -7.294
REMARK INTRA:                  -0.268
REMARK UNBOUND:                -0.600
REMARK  Name = 
REMARK  2 active torsions:
REMARK  status: ('A' for Active; 'I' for Inactive)
REMARK    1  A    between atoms: C_2  and  C_3
REMARK    2  A    between atoms: C_2  and  N_7
REMARK                            x       y       z     vdW  Elec       q    Type
REMARK                         _______ _______ _______ _____ _____    ______ ____
ROOT
ATOM      1  N   UNL     1     -20.334  40.391  -9.396  0.00  0.00    -0.523 NA
ATOM      2  C   UNL     1     -20.643  40.930  -8.254  0.00  0.00    +0.474 A 
ATOM      3  C   UNL     1     -22.084  40.825  -7.882  0.00  0.00    +0.082 A 
ATOM      4  C   UNL     1     -22.487  41.473  -6.784  0.00  0.00    +0.098 A 
ATOM      5  C   UNL     1     -21.479  42.238  -6.018  0.00  0.00    +0.378 A 
ATOM      6  F   UNL     1     -21.943  42.929  -4.970  0.00  0.00    -0.283 F 
ATOM      7  N   UNL     1     -20.209  42.298  -6.269  0.00  0.00    -0.152 NA
ATOM      8  N   UNL     1     -19.805  41.590  -7.373  0.00  0.00    -0.451 N 
ATOM      9  H   UNL     1     -18.817  41.647  -7.640  0.00  0.00    +0.349 HD
ENDROOT
BRANCH   1  11
ATOM     10  O   UNL     1     -18.028  40.417  -9.182  0.00  0.00    -0.477 OA
ATOM     11  C   UNL     1     -19.047  40.474  -9.856  0.00  0.00    +0.599 C 
BRANCH  11  12
ATOM     12  C   UNL     1     -19.066  40.665 -11.316  0.00  0.00    -0.019 C 
ATOM     13  C   UNL     1     -18.188  40.076 -12.126  0.00  0.00    +0.473 C 
ATOM     14  F   UNL     1     -17.221  39.261 -11.661  0.00  0.00    -0.267 F 
ATOM     15  F   UNL     1     -18.275  40.306 -13.455  0.00  0.00    -0.282 F 
ENDBRANCH  11  12
ENDBRANCH   1  11
TORSDOF 2
ENDMDL
MODEL 5
REMARK VINA RESULT:    -6.185      2.221      5.294
REMARK INTER + INTRA:          -7.508
REMARK INTER:                  -7.079
REMARK INTRA:                  -0.429
REMARK UNBOUND:                -0.600
REMARK  Name = 
REMARK  2 active torsions:
REMARK  status: ('A' for Active; 'I' for Inactive)
REMARK    1  A    between atoms: C_2  and  C_3
REMARK    2  A    between atoms: C_2  and  N_7
REMARK                            x       y       z     vdW  Elec       q    Type
REMARK                         _______ _______ _______ _____ _____    ______ ____
ROOT
ATOM      1  N   UNL     1     -18.337  41.103 -11.116  0.00  0.00    -0.523 NA
ATOM      2  C   UNL     1     -18.593  41.716 -12.234  0.00  0.00    +0.474 A 
ATOM      3  C   UNL     1     -17.703  42.877 -12.528  0.00  0.00    +0.082 A 
ATOM      4  C   UNL     1     -17.998  43.626 -13.595  0.00  0.00    +0.098 A 
ATOM      5  C   UNL     1     -19.176  43.248 -14.406  0.00  0.00    +0.378 A 
ATOM      6  F   UNL     1     -19.475  44.069 -15.420  0.00  0.00    -0.283 F 
ATOM      7  N   UNL     1     -19.931  42.211 -14.225  0.00  0.00    -0.152 NA
ATOM      8  N   UNL     1     -19.586  41.428 -13.152  0.00  0.00    -0.451 N 
ATOM      9  H   UNL     1     -20.184  40.622 -12.939  0.00  0.00    +0.349 HD
ENDROOT
BRANCH   1  11
ATOM     10  O   UNL     1     -19.176  38.949 -11.247  0.00  0.00    -0.477 OA
ATOM     11  C   UNL     1     -19.125  40.054 -10.726  0.00  0.00    +0.599 C 
BRANCH  11  12
ATOM     12  C   UNL     1     -19.938  40.464  -9.569  0.00  0.00    -0.019 C 
ATOM     13  C   UNL     1     -19.415  40.656  -8.359  0.00  0.00    +0.473 C 
ATOM     14  F   UNL     1     -18.100  40.490  -8.114  0.00  0.00    -0.267 F 
ATOM     15  F   UNL     1     -20.232  41.031  -7.351  0.00  0.00    -0.282 F 
ENDBRANCH  11  12
ENDBRANCH   1  11
TORSDOF 2
ENDMDL
