MODEL 1
REMARK VINA RESULT:    -7.112      0.000      0.000
REMARK INTER + INTRA:          -8.704
REMARK INTER:                  -8.567
REMARK INTRA:                  -0.138
REMARK UNBOUND:                -0.138
REMARK  Name = 
REMARK  5 active torsions:
REMARK  status: ('A' for Active; 'I' for Inactive)
REMARK    1  A    between atoms: C_1  and  C_2
REMARK    2  A    between atoms: C_9  and  C_10
REMARK    3  A    between atoms: N_12  and  C_13
REMARK    4  A    between atoms: C_13  and  C_14
REMARK    5  A    between atoms: C_20  and  N_21
REMARK                            x       y       z     vdW  Elec       q    Type
REMARK                         _______ _______ _______ _____ _____    ______ ____
ROOT
ATOM      1  C   UNL     1     -19.592  40.230  -9.334  0.00  0.00    +0.204 C 
ATOM      2  C   UNL     1     -19.011  40.063 -10.715  0.00  0.00    +0.576 C 
ATOM      3  O   UNL     1     -19.127  38.993 -11.324  0.00  0.00    -0.514 OA
ATOM      4  N   UNL     1     -18.364  41.151 -11.297  0.00  0.00    -0.594 N 
ATOM      5  C   UNL     1     -17.860  42.241 -10.600  0.00  0.00    +0.478 C 
ATOM      6  N   UNL     1     -17.274  42.161  -9.463  0.00  0.00    -0.601 NA
ATOM      7  C   UNL     1     -18.021  43.586 -11.273  0.00  0.00    +0.104 C 
ATOM      8  C   UNL     1     -17.563  43.560 -12.727  0.00  0.00    +0.147 C 
ATOM      9  C   UNL     1     -18.106  42.345 -13.481  0.00  0.00    -0.068 C 
ATOM     10  C   UNL     1     -17.882  41.065 -12.667  0.00  0.00    +0.477 C 
ATOM     11  H   UNL     1     -17.152  41.210  -9.112  0.00  0.00    +0.299 HD
ENDROOT
BRANCH   9  12
ATOM     12  C   UNL     1     -19.578  42.491 -13.818  0.00  0.00    +0.538 C 
ATOM     13  O   UNL     1     -20.402  41.697 -13.359  0.00  0.00    -0.498 OA
ATOM     14  N   UNL     1     -19.982  43.451 -14.684  0.00  0.00    -0.650 N 
ATOM     15  H   UNL     1     -20.982  43.483 -14.855  0.00  0.00    +0.318 HD
BRANCH  14  16
ATOM     16  C   UNL     1     -19.162  44.275 -15.548  0.00  0.00    +0.240 C 
BRANCH  16  17
ATOM     17  C   UNL     1     -19.701  44.444 -16.937  0.00  0.00    +0.050 A 
ATOM     18  C   UNL     1     -18.924  44.876 -18.019  0.00  0.00    +0.065 A 
ATOM     19  C   UNL     1     -19.463  44.916 -19.305  0.00  0.00    +0.087 A 
ATOM     20  C   UNL     1     -20.779  44.517 -19.522  0.00  0.00    +0.087 A 
ATOM     21  C   UNL     1     -21.563  44.090 -18.453  0.00  0.00    +0.097 A 
ATOM     22  C   UNL     1     -21.028  44.059 -17.174  0.00  0.00    +0.040 A 
ENDBRANCH  16  17
ENDBRANCH  14  16
ENDBRANCH   9  12
BRANCH  10  23
ATOM     23  N   UNL     1     -18.402  39.907 -13.429  0.00  0.00    -0.980 N 
ATOM     24  H   UNL     1     -17.977  39.901 -14.371  0.00  0.00    +0.378 HD
ATOM     25  H   UNL     1     -19.404  40.072 -13.641  0.00  0.00    +0.385 HD
ATOM     26  H   UNL     1     -18.301  38.990 -12.984  0.00  0.00    +0.334 HD
ENDBRANCH  10  23
TORSDOF 4
ENDMDL
MODEL 2
REMARK VINA RESULT:    -6.901      3.154      4.221
REMARK INTER + INTRA:          -8.450
REMARK INTER:                  -8.301
REMARK INTRA:                  -0.149
REMARK UNBOUND:                -0.138
REMARK  Name = 
REMARK  5 active torsions:
REMARK  status: ('A' for Active; 'I' for Inactive)
REMARK    1  A    between atoms: C_1  and  C_2
REMARK    2  A    between atoms: C_9  and  C_10
REMARK    3  A    between atoms: N_12  and  C_13
REMARK    4  A    between atoms: C_13  and  C_14
REMARK    5  A    between atoms: C_20  and  N_21
REMARK                            x       y       z     vdW  Elec       q    Type
REMARK                         _______ _______ _______ _____ _____    ______ ____
ROOT
ATOM      1  C   UNL     1     -20.304  39.758  -9.749  0.00  0.00    +0.204 C 
ATOM      2  C   UNL     1     -19.242  39.650 -10.814  0.00  0.00    +0.576 C 
ATOM      3  O   UNL     1     -19.256  38.718 -11.626  0.00  0.00    -0.514 OA
ATOM      4  N   UNL     1     -18.263  40.639 -10.876  0.00  0.00    -0.594 N 
ATOM      5  C   UNL     1     -17.933  41.496  -9.835  0.00  0.00    +0.478 C 
ATOM      6  N   UNL     1     -17.879  41.145  -8.602  0.00  0.00    -0.601 NA
ATOM      7  C   UNL     1     -17.607  42.919 -10.229  0.00  0.00    +0.104 C 
ATOM      8  C   UNL     1     -16.606  42.983 -11.377  0.00  0.00    +0.147 C 
ATOM      9  C   UNL     1     -16.966  42.020 -12.510  0.00  0.00    -0.068 C 
ATOM     10  C   UNL     1     -17.283  40.628 -11.951  0.00  0.00    +0.477 C 
ATOM     11  H   UNL     1     -18.051  40.153  -8.433  0.00  0.00    +0.299 HD
ENDROOT
BRANCH   9  12
ATOM     12  C   UNL     1     -18.134  42.522 -13.337  0.00  0.00    +0.538 C 
ATOM     13  O   UNL     1     -19.086  41.777 -13.584  0.00  0.00    -0.498 OA
ATOM     14  N   UNL     1     -18.102  43.768 -13.870  0.00  0.00    -0.650 N 
ATOM     15  H   UNL     1     -18.923  44.027 -14.408  0.00  0.00    +0.318 HD
BRANCH  14  16
ATOM     16  C   UNL     1     -16.974  44.673 -13.952  0.00  0.00    +0.240 C 
BRANCH  16  17
ATOM     17  C   UNL     1     -16.978  45.762 -12.921  0.00  0.00    +0.050 A 
ATOM     18  C   UNL     1     -15.830  46.469 -12.542  0.00  0.00    +0.065 A 
ATOM     19  C   UNL     1     -15.921  47.538 -11.650  0.00  0.00    +0.087 A 
ATOM     20  C   UNL     1     -17.160  47.913 -11.136  0.00  0.00    +0.087 A 
ATOM     21  C   UNL     1     -18.307  47.214 -11.502  0.00  0.00    +0.097 A 
ATOM     22  C   UNL     1     -18.214  46.147 -12.383  0.00  0.00    +0.040 A 
ENDBRANCH  16  17
ENDBRANCH  14  16
ENDBRANCH   9  12
BRANCH  10  23
ATOM     23  N   UNL     1     -17.610  39.717 -13.071  0.00  0.00    -0.980 N 
ATOM     24  H   UNL     1     -16.858  39.015 -13.170  0.00  0.00    +0.378 HD
ATOM     25  H   UNL     1     -17.535  40.246 -13.961  0.00  0.00    +0.385 HD
ATOM     26  H   UNL     1     -18.525  39.260 -13.030  0.00  0.00    +0.334 HD
ENDBRANCH  10  23
TORSDOF 4
ENDMDL
MODEL 3
REMARK VINA RESULT:    -6.548      1.679      2.119
REMARK INTER + INTRA:          -8.025
REMARK INTER:                  -7.824
REMARK INTRA:                  -0.202
REMARK UNBOUND:                -0.138
REMARK  Name = 
REMARK  5 active torsions:
REMARK  status: ('A' for Active; 'I' for Inactive)
REMARK    1  A    between atoms: C_1  and  C_2
REMARK    2  A    between atoms: C_9  and  C_10
REMARK    3  A    between atoms: N_12  and  C_13
REMARK    4  A    between atoms: C_13  and  C_14
REMARK    5  A    between atoms: C_20  and  N_21
REMARK                            x       y       z     vdW  Elec       q    Type
REMARK                         _______ _______ _______ _____ _____    ______ ____
ROOT
ATOM      1  C   UNL     1     -19.291  40.711 -10.209  0.00  0.00    +0.204 C 
ATOM      2  C   UNL     1     -19.127  41.022 -11.676  0.00  0.00    +0.576 C 
ATOM      3  O   UNL     1     -19.995  40.690 -12.491  0.00  0.00    -0.514 OA
ATOM      4  N   UNL     1     -17.989  41.715 -12.082  0.00  0.00    -0.594 N 
ATOM      5  C   UNL     1     -16.814  41.811 -11.350  0.00  0.00    +0.478 C 
ATOM      6  N   UNL     1     -16.309  40.850 -10.668  0.00  0.00    -0.601 NA
ATOM      7  C   UNL     1     -16.109  43.149 -11.405  0.00  0.00    +0.104 C 
ATOM      8  C   UNL     1     -15.951  43.656 -12.833  0.00  0.00    +0.147 C 
ATOM      9  C   UNL     1     -17.245  43.528 -13.639  0.00  0.00    -0.068 C 
ATOM     10  C   UNL     1     -17.844  42.126 -13.470  0.00  0.00    +0.477 C 
ATOM     11  H   UNL     1     -16.815  39.966 -10.738  0.00  0.00    +0.299 HD
ENDROOT
BRANCH   9  12
ATOM     12  C   UNL     1     -18.269  44.576 -13.248  0.00  0.00    +0.538 C 
ATOM     13  O   UNL     1     -18.705  44.621 -12.095  0.00  0.00    -0.498 OA
ATOM     14  N   UNL     1     -18.763  45.422 -14.184  0.00  0.00    -0.650 N 
ATOM     15  H   UNL     1     -19.442  46.094 -13.841  0.00  0.00    +0.318 HD
BRANCH  14  16
ATOM     16  C   UNL     1     -18.615  45.344 -15.623  0.00  0.00    +0.240 C 
BRANCH  16  17
ATOM     17  C   UNL     1     -19.907  45.221 -16.374  0.00  0.00    +0.050 A 
ATOM     18  C   UNL     1     -20.602  44.015 -16.519  0.00  0.00    +0.065 A 
ATOM     19  C   UNL     1     -21.850  43.989 -17.144  0.00  0.00    +0.087 A 
ATOM     20  C   UNL     1     -22.414  45.169 -17.622  0.00  0.00    +0.087 A 
ATOM     21  C   UNL     1     -21.729  46.373 -17.488  0.00  0.00    +0.097 A 
ATOM     22  C   UNL     1     -20.486  46.396 -16.874  0.00  0.00    +0.040 A 
ENDBRANCH  16  17
ENDBRANCH  14  16
ENDBRANCH   9  12
BRANCH  10  23
ATOM     23  N   UNL     1     -19.084  42.028 -14.273  0.00  0.00    -0.980 N 
ATOM     24  H   UNL     1     -19.300  42.952 -14.681  0.00  0.00    +0.378 HD
ATOM     25  H   UNL     1     -19.885  41.880 -13.629  0.00  0.00    +0.385 HD
ATOM     26  H   UNL     1     -19.098  41.303 -14.996  0.00  0.00    +0.334 HD
ENDBRANCH  10  23
TORSDOF 4
ENDMDL
MODEL 4
REMARK VINA RESULT:    -6.151      3.556      6.519
REMARK INTER + INTRA:          -7.548
REMARK INTER:                  -7.046
REMARK INTRA:                  -0.501
REMARK UNBOUND:                -0.138
REMARK  Name = 
REMARK  5 active torsions:
REMARK  status: ('A' for Active; 'I' for Inactive)
REMARK    1  A    between atoms: C_1  and  C_2
REMARK    2  A    between atoms: C_9  and  C_10
REMARK    3  A    between atoms: N_12  and  C_13
REMARK    4  A    between atoms: C_13  and  C_14
REMARK    5  A    between atoms: C_20  and  N_21
REMARK                            x       y       z     vdW  Elec       q    Type
REMARK                         _______ _______ _______ _____ _____    ______ ____
ROOT
ATOM      1  C   UNL     1     -17.554  47.929 -15.820  0.00  0.00    +0.204 C 
ATOM      2  C   UNL     1     -18.069  46.595 -15.341  0.00  0.00    +0.576 C 
ATOM      3  O   UNL     1     -18.483  45.753 -16.146  0.00  0.00    -0.514 OA
ATOM      4  N   UNL     1     -18.040  46.326 -13.975  0.00  0.00    -0.594 N 
ATOM      5  C   UNL     1     -17.952  47.288 -12.978  0.00  0.00    +0.478 C 
ATOM      6  N   UNL     1     -18.554  48.419 -13.013  0.00  0.00    -0.601 NA
ATOM      7  C   UNL     1     -17.094  46.926 -11.785  0.00  0.00    +0.104 C 
ATOM      8  C   UNL     1     -17.427  45.544 -11.236  0.00  0.00    +0.147 C 
ATOM      9  C   UNL     1     -17.543  44.495 -12.343  0.00  0.00    -0.068 C 
ATOM     10  C   UNL     1     -18.429  45.013 -13.482  0.00  0.00    +0.477 C 
ATOM     11  H   UNL     1     -19.162  48.554 -13.822  0.00  0.00    +0.299 HD
ENDROOT
BRANCH   9  12
ATOM     12  C   UNL     1     -16.188  44.087 -12.889  0.00  0.00    +0.538 C 
ATOM     13  O   UNL     1     -15.751  44.605 -13.920  0.00  0.00    -0.498 OA
ATOM     14  N   UNL     1     -15.484  43.099 -12.285  0.00  0.00    -0.650 N 
ATOM     15  H   UNL     1     -14.587  42.888 -12.710  0.00  0.00    +0.318 HD
BRANCH  14  16
ATOM     16  C   UNL     1     -15.938  42.176 -11.265  0.00  0.00    +0.240 C 
BRANCH  16  17
ATOM     17  C   UNL     1     -17.101  41.323 -11.676  0.00  0.00    +0.050 A 
ATOM     18  C   UNL     1     -17.155  40.624 -12.888  0.00  0.00    +0.065 A 
ATOM     19  C   UNL     1     -18.222  39.769 -13.164  0.00  0.00    +0.087 A 
ATOM     20  C   UNL     1     -19.239  39.599 -12.228  0.00  0.00    +0.087 A 
ATOM     21  C   UNL     1     -19.199  40.293 -11.021  0.00  0.00    +0.097 A 
ATOM     22  C   UNL     1     -18.142  41.149 -10.752  0.00  0.00    +0.040 A 
ENDBRANCH  16  17
ENDBRANCH  14  16
ENDBRANCH   9  12
BRANCH  10  23
ATOM     23  N   UNL     1     -18.535  43.971 -14.529  0.00  0.00    -0.980 N 
ATOM     24  H   UNL     1     -17.600  43.800 -14.935  0.00  0.00    +0.378 HD
ATOM     25  H   UNL     1     -19.057  44.363 -15.335  0.00  0.00    +0.385 HD
ATOM     26  H   UNL     1     -18.971  43.089 -14.245  0.00  0.00    +0.334 HD
ENDBRANCH  10  23
TORSDOF 4
ENDMDL
MODEL 5
REMARK VINA RESULT:    -6.073     18.850     21.953
REMARK INTER + INTRA:          -7.453
REMARK INTER:                  -6.708
REMARK INTRA:                  -0.744
REMARK UNBOUND:                -0.138
REMARK  Name = 
REMARK  5 active torsions:
REMARK  status: ('A' for Active; 'I' for Inactive)
REMARK    1  A    between atoms: C_1  and  C_2
REMARK    2  A    between atoms: C_9  and  C_10
REMARK    3  A    between atoms: N_12  and  C_13
REMARK    4  A    between atoms: C_13  and  C_14
REMARK    5  A    between atoms: C_20  and  N_21
REMARK                            x       y       z     vdW  Elec       q    Type
REMARK                         _______ _______ _______ _____ _____    ______ ____
ROOT
ATOM      1  C   UNL     1     -21.752  27.232   7.747  0.00  0.00    +0.204 C 
ATOM      2  C   UNL     1     -22.513  27.502   6.473  0.00  0.00    +0.576 C 
ATOM      3  O   UNL     1     -23.679  27.113   6.340  0.00  0.00    -0.514 OA
ATOM      4  N   UNL     1     -21.879  28.224   5.464  0.00  0.00    -0.594 N 
ATOM      5  C   UNL     1     -20.505  28.385   5.346  0.00  0.00    +0.478 C 
ATOM      6  N   UNL     1     -19.648  27.465   5.594  0.00  0.00    -0.601 NA
ATOM      7  C   UNL     1     -20.039  29.745   4.875  0.00  0.00    +0.104 C 
ATOM      8  C   UNL     1     -20.790  30.213   3.635  0.00  0.00    +0.147 C 
ATOM      9  C   UNL     1     -22.301  30.012   3.765  0.00  0.00    -0.068 C 
ATOM     10  C   UNL     1     -22.612  28.595   4.264  0.00  0.00    +0.477 C 
ATOM     11  H   UNL     1     -20.051  26.561   5.843  0.00  0.00    +0.299 HD
ENDROOT
BRANCH   9  12
ATOM     12  C   UNL     1     -22.937  31.034   4.687  0.00  0.00    +0.538 C 
ATOM     13  O   UNL     1     -23.083  30.784   5.886  0.00  0.00    -0.498 OA
ATOM     14  N   UNL     1     -23.414  32.198   4.182  0.00  0.00    -0.650 N 
ATOM     15  H   UNL     1     -23.822  32.828   4.865  0.00  0.00    +0.318 HD
BRANCH  14  16
ATOM     16  C   UNL     1     -23.610  32.552   2.791  0.00  0.00    +0.240 C 
BRANCH  16  17
ATOM     17  C   UNL     1     -22.483  33.334   2.186  0.00  0.00    +0.050 A 
ATOM     18  C   UNL     1     -21.957  34.498   2.760  0.00  0.00    +0.065 A 
ATOM     19  C   UNL     1     -20.842  35.121   2.197  0.00  0.00    +0.087 A 
ATOM     20  C   UNL     1     -20.242  34.584   1.062  0.00  0.00    +0.087 A 
ATOM     21  C   UNL     1     -20.760  33.430   0.480  0.00  0.00    +0.097 A 
ATOM     22  C   UNL     1     -21.873  32.816   1.035  0.00  0.00    +0.040 A 
ENDBRANCH  16  17
ENDBRANCH  14  16
ENDBRANCH   9  12
BRANCH  10  23
ATOM     23  N   UNL     1     -24.080  28.426   4.363  0.00  0.00    -0.980 N 
ATOM     24  H   UNL     1     -24.439  29.014   5.133  0.00  0.00    +0.378 HD
ATOM     25  H   UNL     1     -24.280  27.468   4.706  0.00  0.00    +0.385 HD
ATOM     26  H   UNL     1     -24.613  28.593   3.505  0.00  0.00    +0.334 HD
ENDBRANCH  10  23
TORSDOF 4
ENDMDL
