MODEL 1
REMARK VINA RESULT:    -8.143      0.000      0.000
REMARK INTER + INTRA:         -10.568
REMARK INTER:                 -10.048
REMARK INTRA:                  -0.520
REMARK UNBOUND:                -0.520
REMARK  Name = 
REMARK  5 active torsions:
REMARK  status: ('A' for Active; 'I' for Inactive)
REMARK    1  A    between atoms: N_1  and  C_2
REMARK    2  A    between atoms: C_7  and  C_8
REMARK    3  A    between atoms: C_8  and  O_9
REMARK    4  A    between atoms: N_10  and  C_11
REMARK    5  A    between atoms: C_11  and  C_12
REMARK                            x       y       z     vdW  Elec       q    Type
REMARK                         _______ _______ _______ _____ _____    ______ ____
ROOT
ATOM      1  C   UNL     1     -17.586  40.746 -10.399  0.00  0.00    +0.523 C 
ATOM      2  N   UNL     1     -17.965  40.406  -9.220  0.00  0.00    -0.395 NA
ENDROOT
BRANCH   1   8
ATOM      3  C   UNL     1     -19.156  40.834 -12.426  0.00  0.00    +0.587 C 
ATOM      4  N   UNL     1     -19.624  41.580 -13.443  0.00  0.00    -0.690 N 
ATOM      5  C   UNL     1     -19.254  42.843 -13.698  0.00  0.00    +0.333 C 
ATOM      6  C   UNL     1     -18.355  43.468 -12.852  0.00  0.00    +0.015 C 
ATOM      7  C   UNL     1     -17.882  42.758 -11.761  0.00  0.00    +0.128 C 
ATOM      8  C   UNL     1     -18.265  41.432 -11.522  0.00  0.00    -0.197 C 
ATOM      9  H   UNL     1     -20.302  41.158 -14.073  0.00  0.00    +0.349 HD
BRANCH   3  10
ATOM     10  N   UNL     1     -19.655  39.554 -12.338  0.00  0.00    -0.809 N 
ATOM     11  H   UNL     1     -19.196  38.747 -12.742  0.00  0.00    +0.362 HD
ATOM     12  H   UNL     1     -20.163  39.324 -11.481  0.00  0.00    +0.345 HD
ENDBRANCH   3  10
ENDBRANCH   1   8
BRANCH   1  13
ATOM     13  O   UNL     1     -16.318  40.379 -10.695  0.00  0.00    -0.542 OA
ATOM     14  H   UNL     1     -15.605  41.018 -10.569  0.00  0.00    +0.358 HD
ENDBRANCH   1  13
BRANCH   2  15
ATOM     15  C   UNL     1     -19.122  40.634  -8.601  0.00  0.00    +0.267 C 
BRANCH  15  16
ATOM     16  C   UNL     1     -20.227  41.210  -7.899  0.00  0.00    -0.041 C 
ATOM     17  C   UNL     1     -20.011  42.011  -6.783  0.00  0.00    +0.090 C 
ATOM     18  C   UNL     1     -21.088  42.395  -5.984  0.00  0.00    +0.079 C 
ATOM     19  C   UNL     1     -22.377  41.961  -6.289  0.00  0.00    +0.086 C 
ATOM     20  C   UNL     1     -22.594  41.158  -7.404  0.00  0.00    +0.077 C 
ATOM     21  C   UNL     1     -21.519  40.776  -8.204  0.00  0.00    +0.075 C 
ENDBRANCH  15  16
ENDBRANCH   2  15
TORSDOF 5
ENDMDL
MODEL 2
REMARK VINA RESULT:    -7.762      1.348      2.154
REMARK INTER + INTRA:         -10.098
REMARK INTER:                  -9.618
REMARK INTRA:                  -0.480
REMARK UNBOUND:                -0.520
REMARK  Name = 
REMARK  5 active torsions:
REMARK  status: ('A' for Active; 'I' for Inactive)
REMARK    1  A    between atoms: N_1  and  C_2
REMARK    2  A    between atoms: C_7  and  C_8
REMARK    3  A    between atoms: C_8  and  O_9
REMARK    4  A    between atoms: N_10  and  C_11
REMARK    5  A    between atoms: C_11  and  C_12
REMARK                            x       y       z     vdW  Elec       q    Type
REMARK                         _______ _______ _______ _____ _____    ______ ____
ROOT
ATOM      1  C   UNL     1     -18.636  40.040 -11.006  0.00  0.00    +0.523 C 
ATOM      2  N   UNL     1     -19.273  39.689  -9.948  0.00  0.00    -0.395 NA
ENDROOT
BRANCH   1   8
ATOM      3  C   UNL     1     -17.613  42.363 -11.380  0.00  0.00    +0.587 C 
ATOM      4  N   UNL     1     -17.669  43.507 -12.086  0.00  0.00    -0.690 N 
ATOM      5  C   UNL     1     -18.553  43.760 -13.062  0.00  0.00    +0.333 C 
ATOM      6  C   UNL     1     -19.465  42.782 -13.417  0.00  0.00    +0.015 C 
ATOM      7  C   UNL     1     -19.416  41.568 -12.753  0.00  0.00    +0.128 C 
ATOM      8  C   UNL     1     -18.496  41.329 -11.723  0.00  0.00    -0.197 C 
ATOM      9  H   UNL     1     -17.000  44.239 -11.864  0.00  0.00    +0.349 HD
BRANCH   3  10
ATOM     10  N   UNL     1     -16.634  42.300 -10.414  0.00  0.00    -0.809 N 
ATOM     11  H   UNL     1     -16.481  41.489  -9.826  0.00  0.00    +0.362 HD
ATOM     12  H   UNL     1     -15.767  42.803 -10.613  0.00  0.00    +0.345 HD
ENDBRANCH   3  10
ENDBRANCH   1   8
BRANCH   1  13
ATOM     13  O   UNL     1     -17.981  39.025 -11.614  0.00  0.00    -0.542 OA
ATOM     14  H   UNL     1     -17.525  38.371 -11.069  0.00  0.00    +0.358 HD
ENDBRANCH   1  13
BRANCH   2  15
ATOM     15  C   UNL     1     -19.986  40.430  -9.101  0.00  0.00    +0.267 C 
BRANCH  15  16
ATOM     16  C   UNL     1     -20.662  40.964  -7.959  0.00  0.00    -0.041 C 
ATOM     17  C   UNL     1     -22.052  40.951  -7.895  0.00  0.00    +0.090 C 
ATOM     18  C   UNL     1     -22.708  41.656  -6.886  0.00  0.00    +0.079 C 
ATOM     19  C   UNL     1     -21.977  42.391  -5.954  0.00  0.00    +0.086 C 
ATOM     20  C   UNL     1     -20.587  42.406  -6.019  0.00  0.00    +0.077 C 
ATOM     21  C   UNL     1     -19.931  41.701  -7.026  0.00  0.00    +0.075 C 
ENDBRANCH  15  16
ENDBRANCH   2  15
TORSDOF 5
ENDMDL
MODEL 3
REMARK VINA RESULT:    -7.588      1.879      2.474
REMARK INTER + INTRA:          -9.883
REMARK INTER:                  -9.238
REMARK INTRA:                  -0.645
REMARK UNBOUND:                -0.520
REMARK  Name = 
REMARK  5 active torsions:
REMARK  status: ('A' for Active; 'I' for Inactive)
REMARK    1  A    between atoms: N_1  and  C_2
REMARK    2  A    between atoms: C_7  and  C_8
REMARK    3  A    between atoms: C_8  and  O_9
REMARK    4  A    between atoms: N_10  and  C_11
REMARK    5  A    between atoms: C_11  and  C_12
REMARK                            x       y       z     vdW  Elec       q    Type
REMARK                         _______ _______ _______ _____ _____    ______ ____
ROOT
ATOM      1  C   UNL     1     -17.334  40.286 -12.495  0.00  0.00    +0.523 C 
ATOM      2  N   UNL     1     -17.625  39.623 -11.434  0.00  0.00    -0.395 NA
ENDROOT
BRANCH   1   8
ATOM      3  C   UNL     1     -16.874  42.748 -13.053  0.00  0.00    +0.587 C 
ATOM      4  N   UNL     1     -17.403  43.920 -13.447  0.00  0.00    -0.690 N 
ATOM      5  C   UNL     1     -18.700  44.119 -13.723  0.00  0.00    +0.333 C 
ATOM      6  C   UNL     1     -19.579  43.053 -13.642  0.00  0.00    +0.015 C 
ATOM      7  C   UNL     1     -19.074  41.813 -13.289  0.00  0.00    +0.128 C 
ATOM      8  C   UNL     1     -17.719  41.630 -12.986  0.00  0.00    -0.197 C 
ATOM      9  H   UNL     1     -16.782  44.719 -13.536  0.00  0.00    +0.349 HD
BRANCH   3  10
ATOM     10  N   UNL     1     -15.519  42.749 -12.811  0.00  0.00    -0.809 N 
ATOM     11  H   UNL     1     -14.822  42.670 -13.541  0.00  0.00    +0.362 HD
ATOM     12  H   UNL     1     -15.199  43.326 -12.030  0.00  0.00    +0.345 HD
ENDBRANCH   3  10
ENDBRANCH   1   8
BRANCH   1  13
ATOM     13  O   UNL     1     -16.539  39.616 -13.359  0.00  0.00    -0.542 OA
ATOM     14  H   UNL     1     -15.601  39.842 -13.403  0.00  0.00    +0.358 HD
ENDBRANCH   1  13
BRANCH   2  15
ATOM     15  C   UNL     1     -18.348  39.987 -10.376  0.00  0.00    +0.267 C 
BRANCH  15  16
ATOM     16  C   UNL     1     -19.184  40.673  -9.440  0.00  0.00    -0.041 C 
ATOM     17  C   UNL     1     -18.645  41.627  -8.582  0.00  0.00    +0.090 C 
ATOM     18  C   UNL     1     -19.416  42.136  -7.537  0.00  0.00    +0.079 C 
ATOM     19  C   UNL     1     -20.716  41.677  -7.336  0.00  0.00    +0.086 C 
ATOM     20  C   UNL     1     -21.255  40.720  -8.191  0.00  0.00    +0.077 C 
ATOM     21  C   UNL     1     -20.487  40.213  -9.237  0.00  0.00    +0.075 C 
ENDBRANCH  15  16
ENDBRANCH   2  15
TORSDOF 5
ENDMDL
MODEL 4
REMARK VINA RESULT:    -7.205      1.919      5.643
REMARK INTER + INTRA:          -9.411
REMARK INTER:                  -8.731
REMARK INTRA:                  -0.680
REMARK UNBOUND:                -0.520
REMARK  Name = 
REMARK  5 active torsions:
REMARK  status: ('A' for Active; 'I' for Inactive)
REMARK    1  A    between atoms: N_1  and  C_2
REMARK    2  A    between atoms: C_7  and  C_8
REMARK    3  A    between atoms: C_8  and  O_9
REMARK    4  A    between atoms: N_10  and  C_11
REMARK    5  A    between atoms: C_11  and  C_12
REMARK                            x       y       z     vdW  Elec       q    Type
REMARK                         _______ _______ _______ _____ _____    ______ ____
ROOT
ATOM      1  C   UNL     1     -19.292  39.556 -11.784  0.00  0.00    +0.523 C 
ATOM      2  N   UNL     1     -19.013  40.079 -12.923  0.00  0.00    -0.395 NA
ENDROOT
BRANCH   1   8
ATOM      3  C   UNL     1     -17.986  40.417  -9.751  0.00  0.00    +0.587 C 
ATOM      4  N   UNL     1     -18.044  40.763  -8.452  0.00  0.00    -0.690 N 
ATOM      5  C   UNL     1     -19.152  40.718  -7.698  0.00  0.00    +0.333 C 
ATOM      6  C   UNL     1     -20.348  40.328  -8.276  0.00  0.00    +0.015 C 
ATOM      7  C   UNL     1     -20.350  40.011  -9.624  0.00  0.00    +0.128 C 
ATOM      8  C   UNL     1     -19.178  40.045 -10.390  0.00  0.00    -0.197 C 
ATOM      9  H   UNL     1     -17.188  41.073  -8.001  0.00  0.00    +0.349 HD
BRANCH   3  10
ATOM     10  N   UNL     1     -16.751  40.527 -10.348  0.00  0.00    -0.809 N 
ATOM     11  H   UNL     1     -16.613  40.517 -11.351  0.00  0.00    +0.362 HD
ATOM     12  H   UNL     1     -16.066  41.115  -9.868  0.00  0.00    +0.345 HD
ENDBRANCH   3  10
ENDBRANCH   1   8
BRANCH   1  13
ATOM     13  O   UNL     1     -19.757  38.289 -11.861  0.00  0.00    -0.542 OA
ATOM     14  H   UNL     1     -20.155  37.888 -11.078  0.00  0.00    +0.358 HD
ENDBRANCH   1  13
BRANCH   2  15
ATOM     15  C   UNL     1     -18.572  41.302 -13.211  0.00  0.00    +0.267 C 
BRANCH  15  16
ATOM     16  C   UNL     1     -18.361  42.715 -13.294  0.00  0.00    -0.041 C 
ATOM     17  C   UNL     1     -17.917  43.426 -12.184  0.00  0.00    +0.090 C 
ATOM     18  C   UNL     1     -17.915  44.820 -12.207  0.00  0.00    +0.079 C 
ATOM     19  C   UNL     1     -18.375  45.504 -13.331  0.00  0.00    +0.086 C 
ATOM     20  C   UNL     1     -18.822  44.793 -14.441  0.00  0.00    +0.077 C 
ATOM     21  C   UNL     1     -18.823  43.400 -14.419  0.00  0.00    +0.075 C 
ENDBRANCH  15  16
ENDBRANCH   2  15
TORSDOF 5
ENDMDL
MODEL 5
REMARK VINA RESULT:    -6.986      1.375      2.417
REMARK INTER + INTRA:          -9.140
REMARK INTER:                  -8.538
REMARK INTRA:                  -0.603
REMARK UNBOUND:                -0.520
REMARK  Name = 
REMARK  5 active torsions:
REMARK  status: ('A' for Active; 'I' for Inactive)
REMARK    1  A    between atoms: N_1  and  C_2
REMARK    2  A    between atoms: C_7  and  C_8
REMARK    3  A    between atoms: C_8  and  O_9
REMARK    4  A    between atoms: N_10  and  C_11
REMARK    5  A    between atoms: C_11  and  C_12
REMARK                            x       y       z     vdW  Elec       q    Type
REMARK                         _______ _______ _______ _____ _____    ______ ____
ROOT
ATOM      1  C   UNL     1     -17.683  42.348 -10.204  0.00  0.00    +0.523 C 
ATOM      2  N   UNL     1     -17.954  42.629  -8.980  0.00  0.00    -0.395 NA
ENDROOT
BRANCH   1   8
ATOM      3  C   UNL     1     -18.684  41.641 -12.458  0.00  0.00    +0.587 C 
ATOM      4  N   UNL     1     -19.232  40.641 -13.171  0.00  0.00    -0.690 N 
ATOM      5  C   UNL     1     -19.436  39.398 -12.711  0.00  0.00    +0.333 C 
ATOM      6  C   UNL     1     -19.034  39.078 -11.427  0.00  0.00    +0.015 C 
ATOM      7  C   UNL     1     -18.419  40.061 -10.669  0.00  0.00    +0.128 C 
ATOM      8  C   UNL     1     -18.231  41.359 -11.161  0.00  0.00    -0.197 C 
ATOM      9  H   UNL     1     -19.521  40.836 -14.126  0.00  0.00    +0.349 HD
BRANCH   3  10
ATOM     10  N   UNL     1     -18.565  42.849 -13.108  0.00  0.00    -0.809 N 
ATOM     11  H   UNL     1     -18.771  42.976 -14.092  0.00  0.00    +0.362 HD
ATOM     12  H   UNL     1     -18.776  43.684 -12.557  0.00  0.00    +0.345 HD
ENDBRANCH   3  10
ENDBRANCH   1   8
BRANCH   1  13
ATOM     13  O   UNL     1     -16.671  43.080 -10.723  0.00  0.00    -0.542 OA
ATOM     14  H   UNL     1     -16.676  43.279 -11.668  0.00  0.00    +0.358 HD
ENDBRANCH   1  13
BRANCH   2  15
ATOM     15  C   UNL     1     -18.898  42.130  -8.183  0.00  0.00    +0.267 C 
BRANCH  15  16
ATOM     16  C   UNL     1     -20.126  41.808  -7.524  0.00  0.00    -0.041 C 
ATOM     17  C   UNL     1     -21.109  41.079  -8.185  0.00  0.00    +0.090 C 
ATOM     18  C   UNL     1     -22.377  40.949  -7.619  0.00  0.00    +0.079 C 
ATOM     19  C   UNL     1     -22.669  41.566  -6.404  0.00  0.00    +0.086 C 
ATOM     20  C   UNL     1     -21.687  42.298  -5.743  0.00  0.00    +0.077 C 
ATOM     21  C   UNL     1     -20.419  42.426  -6.307  0.00  0.00    +0.075 C 
ENDBRANCH  15  16
ENDBRANCH   2  15
TORSDOF 5
ENDMDL
