MODEL 1
REMARK VINA RESULT:    -7.145      0.000      0.000
REMARK INTER + INTRA:          -9.915
REMARK INTER:                  -9.025
REMARK INTRA:                  -0.890
REMARK UNBOUND:                -0.890
REMARK  Name = 
REMARK  5 active torsions:
REMARK  status: ('A' for Active; 'I' for Inactive)
REMARK    1  A    between atoms: N_1  and  C_2
REMARK    2  A    between atoms: C_2  and  C_4
REMARK    3  A    between atoms: C_7  and  N_8
REMARK    4  A    between atoms: N_16  and  C_17
REMARK    5  A    between atoms: C_17  and  C_18
REMARK                            x       y       z     vdW  Elec       q    Type
REMARK                         _______ _______ _______ _____ _____    ______ ____
ROOT
ATOM      1  C   UNL     1     -18.209  41.061 -11.921  0.00  0.00    -0.127 A 
ATOM      2  C   UNL     1     -16.988  41.211 -11.369  0.00  0.00    +0.099 A 
ATOM      3  C   UNL     1     -16.048  42.242 -11.758  0.00  0.00    -0.081 A 
ATOM      4  C   UNL     1     -16.287  43.076 -12.801  0.00  0.00    +0.438 A 
ATOM      5  N   UNL     1     -17.515  42.924 -13.436  0.00  0.00    -0.721 N 
ATOM      6  C   UNL     1     -18.527  42.053 -13.023  0.00  0.00    +0.455 A 
ATOM      7  N   UNL     1     -19.725  42.061 -13.543  0.00  0.00    -0.471 NA
ATOM      8  H   UNL     1     -17.776  43.661 -14.068  0.00  0.00    +0.307 HD
ENDROOT
BRANCH   4   9
ATOM      9  N   UNL     1     -15.372  44.070 -13.172  0.00  0.00    -0.485 N 
ATOM     10  C   UNL     1     -14.588  44.731 -12.094  0.00  0.00    +0.117 C 
ATOM     11  C   UNL     1     -14.266  46.198 -11.733  0.00  0.00    -0.074 C 
ATOM     12  C   UNL     1     -14.882  47.254 -12.669  0.00  0.00    -0.042 C 
ATOM     13  C   UNL     1     -15.735  46.767 -13.853  0.00  0.00    -0.082 C 
ATOM     14  C   UNL     1     -15.870  45.233 -13.960  0.00  0.00    +0.091 C 
ENDBRANCH   4   9
BRANCH   1  15
ATOM     15  C   UNL     1     -19.075  39.882 -11.572  0.00  0.00    +0.529 C 
ATOM     16  O   UNL     1     -19.241  39.512 -10.415  0.00  0.00    -0.524 OA
BRANCH  15  17
ATOM     17  N   UNL     1     -19.671  39.311 -12.617  0.00  0.00    -0.650 NA
ATOM     18  H   UNL     1     -18.924  38.829 -13.128  0.00  0.00    +0.285 HD
ENDBRANCH  15  17
ENDBRANCH   1  15
BRANCH   7  19
ATOM     19  C   UNL     1     -19.964  42.711 -14.685  0.00  0.00    +0.185 C 
BRANCH  19  20
ATOM     20  C   UNL     1     -20.482  43.464 -15.775  0.00  0.00    -0.063 C 
ATOM     21  C   UNL     1     -19.662  44.442 -16.339  0.00  0.00    -0.012 C 
ATOM     22  C   UNL     1     -20.182  45.339 -17.264  0.00  0.00    -0.049 C 
ATOM     23  C   UNL     1     -21.525  45.260 -17.621  0.00  0.00    -0.047 C 
ATOM     24  C   UNL     1     -22.338  44.269 -17.070  0.00  0.00    -0.046 C 
ATOM     25  C   UNL     1     -21.820  43.371 -16.138  0.00  0.00    -0.031 C 
ENDBRANCH  19  20
ENDBRANCH   7  19
TORSDOF 5
ENDMDL
MODEL 2
REMARK VINA RESULT:    -6.937      1.831      2.213
REMARK INTER + INTRA:          -9.652
REMARK INTER:                  -8.731
REMARK INTRA:                  -0.921
REMARK UNBOUND:                -0.890
REMARK  Name = 
REMARK  5 active torsions:
REMARK  status: ('A' for Active; 'I' for Inactive)
REMARK    1  A    between atoms: N_1  and  C_2
REMARK    2  A    between atoms: C_2  and  C_4
REMARK    3  A    between atoms: C_7  and  N_8
REMARK    4  A    between atoms: N_16  and  C_17
REMARK    5  A    between atoms: C_17  and  C_18
REMARK                            x       y       z     vdW  Elec       q    Type
REMARK                         _______ _______ _______ _____ _____    ______ ____
ROOT
ATOM      1  C   UNL     1     -18.490  41.865 -12.655  0.00  0.00    -0.127 A 
ATOM      2  C   UNL     1     -17.757  42.481 -11.705  0.00  0.00    +0.099 A 
ATOM      3  C   UNL     1     -17.674  43.919 -11.557  0.00  0.00    -0.081 A 
ATOM      4  C   UNL     1     -18.248  44.768 -12.446  0.00  0.00    +0.438 A 
ATOM      5  N   UNL     1     -18.974  44.176 -13.475  0.00  0.00    -0.721 N 
ATOM      6  C   UNL     1     -19.218  42.806 -13.596  0.00  0.00    +0.455 A 
ATOM      7  N   UNL     1     -20.042  42.308 -14.479  0.00  0.00    -0.471 NA
ATOM      8  H   UNL     1     -19.559  44.794 -14.009  0.00  0.00    +0.307 HD
ENDROOT
BRANCH   4   9
ATOM      9  N   UNL     1     -18.162  46.158 -12.296  0.00  0.00    -0.485 N 
ATOM     10  C   UNL     1     -18.102  46.988 -13.529  0.00  0.00    +0.117 C 
ATOM     11  C   UNL     1     -17.203  48.149 -14.010  0.00  0.00    -0.074 C 
ATOM     12  C   UNL     1     -16.097  48.573 -13.026  0.00  0.00    -0.042 C 
ATOM     13  C   UNL     1     -15.993  47.828 -11.685  0.00  0.00    -0.082 C 
ATOM     14  C   UNL     1     -17.042  46.715 -11.484  0.00  0.00    +0.091 C 
ENDBRANCH   4   9
BRANCH   1  15
ATOM     15  C   UNL     1     -18.416  40.374 -12.844  0.00  0.00    +0.529 C 
ATOM     16  O   UNL     1     -17.371  39.803 -13.130  0.00  0.00    -0.524 OA
BRANCH  15  17
ATOM     17  N   UNL     1     -19.567  39.737 -12.632  0.00  0.00    -0.650 NA
ATOM     18  H   UNL     1     -20.282  40.302 -13.103  0.00  0.00    +0.285 HD
ENDBRANCH  15  17
ENDBRANCH   1  15
BRANCH   7  19
ATOM     19  C   UNL     1     -20.482  43.057 -15.493  0.00  0.00    +0.185 C 
BRANCH  19  20
ATOM     20  C   UNL     1     -21.163  43.936 -16.380  0.00  0.00    -0.063 C 
ATOM     21  C   UNL     1     -20.439  44.991 -16.936  0.00  0.00    -0.012 C 
ATOM     22  C   UNL     1     -21.095  45.991 -17.643  0.00  0.00    -0.049 C 
ATOM     23  C   UNL     1     -22.479  45.937 -17.788  0.00  0.00    -0.047 C 
ATOM     24  C   UNL     1     -23.199  44.871 -17.248  0.00  0.00    -0.046 C 
ATOM     25  C   UNL     1     -22.543  43.870 -16.535  0.00  0.00    -0.031 C 
ENDBRANCH  19  20
ENDBRANCH   7  19
TORSDOF 5
ENDMDL
MODEL 3
REMARK VINA RESULT:    -6.417     20.676     24.345
REMARK INTER + INTRA:          -8.995
REMARK INTER:                  -8.063
REMARK INTRA:                  -0.931
REMARK UNBOUND:                -0.890
REMARK  Name = 
REMARK  5 active torsions:
REMARK  status: ('A' for Active; 'I' for Inactive)
REMARK    1  A    between atoms: N_1  and  C_2
REMARK    2  A    between atoms: C_2  and  C_4
REMARK    3  A    between atoms: C_7  and  N_8
REMARK    4  A    between atoms: N_16  and  C_17
REMARK    5  A    between atoms: C_17  and  C_18
REMARK                            x       y       z     vdW  Elec       q    Type
REMARK                         _______ _______ _______ _____ _____    ______ ____
ROOT
ATOM      1  C   UNL     1     -22.865  27.582   6.973  0.00  0.00    -0.127 A 
ATOM      2  C   UNL     1     -21.975  26.892   7.716  0.00  0.00    +0.099 A 
ATOM      3  C   UNL     1     -20.539  27.019   7.578  0.00  0.00    -0.081 A 
ATOM      4  C   UNL     1     -19.975  27.772   6.600  0.00  0.00    +0.438 A 
ATOM      5  N   UNL     1     -20.856  28.463   5.776  0.00  0.00    -0.721 N 
ATOM      6  C   UNL     1     -22.242  28.503   5.942  0.00  0.00    +0.455 A 
ATOM      7  N   UNL     1     -23.017  29.297   5.251  0.00  0.00    -0.471 NA
ATOM      8  H   UNL     1     -20.445  29.169   5.190  0.00  0.00    +0.307 HD
ENDROOT
BRANCH   4   9
ATOM      9  N   UNL     1     -18.584  27.890   6.473  0.00  0.00    -0.485 N 
ATOM     10  C   UNL     1     -18.003  27.821   5.106  0.00  0.00    +0.117 C 
ATOM     11  C   UNL     1     -16.831  27.043   4.466  0.00  0.00    -0.074 C 
ATOM     12  C   UNL     1     -16.066  26.108   5.419  0.00  0.00    -0.042 C 
ATOM     13  C   UNL     1     -16.520  26.037   6.887  0.00  0.00    -0.082 C 
ATOM     14  C   UNL     1     -17.721  26.941   7.234  0.00  0.00    +0.091 C 
ENDBRANCH   4   9
BRANCH   1  15
ATOM     15  C   UNL     1     -24.338  27.293   7.067  0.00  0.00    +0.529 C 
ATOM     16  O   UNL     1     -24.984  27.515   8.085  0.00  0.00    -0.524 OA
BRANCH  15  17
ATOM     17  N   UNL     1     -24.877  26.822   5.944  0.00  0.00    -0.650 NA
ATOM     18  H   UNL     1     -25.762  27.328   5.832  0.00  0.00    +0.285 HD
ENDBRANCH  15  17
ENDBRANCH   1  15
BRANCH   7  19
ATOM     19  C   UNL     1     -22.556  29.910   4.158  0.00  0.00    +0.185 C 
BRANCH  19  20
ATOM     20  C   UNL     1     -21.972  30.770   3.187  0.00  0.00    -0.063 C 
ATOM     21  C   UNL     1     -22.799  31.704   2.562  0.00  0.00    -0.012 C 
ATOM     22  C   UNL     1     -22.335  32.426   1.470  0.00  0.00    -0.049 C 
ATOM     23  C   UNL     1     -21.042  32.210   1.000  0.00  0.00    -0.047 C 
ATOM     24  C   UNL     1     -20.210  31.289   1.639  0.00  0.00    -0.046 C 
ATOM     25  C   UNL     1     -20.676  30.561   2.732  0.00  0.00    -0.031 C 
ENDBRANCH  19  20
ENDBRANCH   7  19
TORSDOF 5
ENDMDL
MODEL 4
REMARK VINA RESULT:    -6.183      2.751      6.872
REMARK INTER + INTRA:          -8.699
REMARK INTER:                  -7.798
REMARK INTRA:                  -0.901
REMARK UNBOUND:                -0.890
REMARK  Name = 
REMARK  5 active torsions:
REMARK  status: ('A' for Active; 'I' for Inactive)
REMARK    1  A    between atoms: N_1  and  C_2
REMARK    2  A    between atoms: C_2  and  C_4
REMARK    3  A    between atoms: C_7  and  N_8
REMARK    4  A    between atoms: N_16  and  C_17
REMARK    5  A    between atoms: C_17  and  C_18
REMARK                            x       y       z     vdW  Elec       q    Type
REMARK                         _______ _______ _______ _____ _____    ______ ____
ROOT
ATOM      1  C   UNL     1     -16.869  46.371 -14.061  0.00  0.00    -0.127 A 
ATOM      2  C   UNL     1     -17.209  46.982 -15.214  0.00  0.00    +0.099 A 
ATOM      3  C   UNL     1     -18.241  46.499 -16.109  0.00  0.00    -0.081 A 
ATOM      4  C   UNL     1     -18.874  45.316 -15.904  0.00  0.00    +0.438 A 
ATOM      5  N   UNL     1     -18.518  44.624 -14.751  0.00  0.00    -0.721 N 
ATOM      6  C   UNL     1     -17.642  45.098 -13.772  0.00  0.00    +0.455 A 
ATOM      7  N   UNL     1     -17.464  44.495 -12.626  0.00  0.00    -0.471 NA
ATOM      8  H   UNL     1     -19.120  43.861 -14.495  0.00  0.00    +0.307 HD
ENDROOT
BRANCH   4   9
ATOM      9  N   UNL     1     -19.870  44.856 -16.775  0.00  0.00    -0.485 N 
ATOM     10  C   UNL     1     -20.876  45.838 -17.262  0.00  0.00    +0.117 C 
ATOM     11  C   UNL     1     -22.417  45.848 -17.364  0.00  0.00    -0.074 C 
ATOM     12  C   UNL     1     -23.117  44.578 -16.847  0.00  0.00    -0.042 C 
ATOM     13  C   UNL     1     -22.243  43.439 -16.297  0.00  0.00    -0.082 C 
ATOM     14  C   UNL     1     -20.725  43.717 -16.334  0.00  0.00    +0.091 C 
ENDBRANCH   4   9
BRANCH   1  15
ATOM     15  C   UNL     1     -15.691  46.845 -13.253  0.00  0.00    +0.529 C 
ATOM     16  O   UNL     1     -15.661  47.952 -12.729  0.00  0.00    -0.524 OA
BRANCH  15  17
ATOM     17  N   UNL     1     -14.717  45.946 -13.127  0.00  0.00    -0.650 NA
ATOM     18  H   UNL     1     -14.895  45.245 -13.854  0.00  0.00    +0.285 HD
ENDBRANCH  15  17
ENDBRANCH   1  15
BRANCH   7  19
ATOM     19  C   UNL     1     -17.901  43.246 -12.444  0.00  0.00    +0.185 C 
BRANCH  19  20
ATOM     20  C   UNL     1     -18.156  41.908 -12.038  0.00  0.00    -0.063 C 
ATOM     21  C   UNL     1     -18.378  40.955 -13.033  0.00  0.00    -0.012 C 
ATOM     22  C   UNL     1     -18.829  39.686 -12.696  0.00  0.00    -0.049 C 
ATOM     23  C   UNL     1     -19.064  39.371 -11.361  0.00  0.00    -0.047 C 
ATOM     24  C   UNL     1     -18.823  40.318 -10.365  0.00  0.00    -0.046 C 
ATOM     25  C   UNL     1     -18.375  41.593 -10.702  0.00  0.00    -0.031 C 
ENDBRANCH  19  20
ENDBRANCH   7  19
TORSDOF 5
ENDMDL
MODEL 5
REMARK VINA RESULT:    -6.077      2.767      5.197
REMARK INTER + INTRA:          -8.566
REMARK INTER:                  -7.704
REMARK INTRA:                  -0.862
REMARK UNBOUND:                -0.890
REMARK  Name = 
REMARK  5 active torsions:
REMARK  status: ('A' for Active; 'I' for Inactive)
REMARK    1  A    between atoms: N_1  and  C_2
REMARK    2  A    between atoms: C_2  and  C_4
REMARK    3  A    between atoms: C_7  and  N_8
REMARK    4  A    between atoms: N_16  and  C_17
REMARK    5  A    between atoms: C_17  and  C_18
REMARK                            x       y       z     vdW  Elec       q    Type
REMARK                         _______ _______ _______ _____ _____    ______ ____
ROOT
ATOM      1  C   UNL     1     -17.130  46.390 -12.786  0.00  0.00    -0.127 A 
ATOM      2  C   UNL     1     -16.569  45.585 -11.860  0.00  0.00    +0.099 A 
ATOM      3  C   UNL     1     -16.566  44.140 -11.944  0.00  0.00    -0.081 A 
ATOM      4  C   UNL     1     -17.236  43.475 -12.919  0.00  0.00    +0.438 A 
ATOM      5  N   UNL     1     -17.875  44.265 -13.869  0.00  0.00    -0.721 N 
ATOM      6  C   UNL     1     -17.797  45.657 -13.934  0.00  0.00    +0.455 A 
ATOM      7  N   UNL     1     -18.272  46.348 -14.937  0.00  0.00    -0.471 NA
ATOM      8  H   UNL     1     -18.195  43.786 -14.692  0.00  0.00    +0.307 HD
ENDROOT
BRANCH   4   9
ATOM      9  N   UNL     1     -17.229  42.076 -12.992  0.00  0.00    -0.485 N 
ATOM     10  C   UNL     1     -18.528  41.384 -13.211  0.00  0.00    +0.117 C 
ATOM     11  C   UNL     1     -19.244  40.189 -12.543  0.00  0.00    -0.074 C 
ATOM     12  C   UNL     1     -18.481  39.537 -11.376  0.00  0.00    -0.042 C 
ATOM     13  C   UNL     1     -17.108  40.113 -10.992  0.00  0.00    -0.082 C 
ATOM     14  C   UNL     1     -16.650  41.310 -11.852  0.00  0.00    +0.091 C 
ENDBRANCH   4   9
BRANCH   1  15
ATOM     15  C   UNL     1     -17.225  47.875 -12.564  0.00  0.00    +0.529 C 
ATOM     16  O   UNL     1     -16.231  48.585 -12.458  0.00  0.00    -0.524 OA
BRANCH  15  17
ATOM     17  N   UNL     1     -18.470  48.347 -12.535  0.00  0.00    -0.650 NA
ATOM     18  H   UNL     1     -18.585  48.867 -13.412  0.00  0.00    +0.285 HD
ENDBRANCH  15  17
ENDBRANCH   1  15
BRANCH   7  19
ATOM     19  C   UNL     1     -19.100  45.782 -15.818  0.00  0.00    +0.185 C 
BRANCH  19  20
ATOM     20  C   UNL     1     -19.795  44.947 -16.736  0.00  0.00    -0.063 C 
ATOM     21  C   UNL     1     -20.530  45.563 -17.750  0.00  0.00    -0.012 C 
ATOM     22  C   UNL     1     -21.385  44.812 -18.546  0.00  0.00    -0.049 C 
ATOM     23  C   UNL     1     -21.510  43.444 -18.322  0.00  0.00    -0.047 C 
ATOM     24  C   UNL     1     -20.760  42.826 -17.320  0.00  0.00    -0.046 C 
ATOM     25  C   UNL     1     -19.905  43.579 -16.518  0.00  0.00    -0.031 C 
ENDBRANCH  19  20
ENDBRANCH   7  19
TORSDOF 5
ENDMDL
