MODEL 1
REMARK VINA RESULT:    -5.924      0.000      0.000
REMARK INTER + INTRA:          -8.189
REMARK INTER:                  -8.001
REMARK INTRA:                  -0.188
REMARK UNBOUND:                -0.188
REMARK  Name = 
REMARK  6 active torsions:
REMARK  status: ('A' for Active; 'I' for Inactive)
REMARK    1  A    between atoms: C_2  and  C_3
REMARK    2  A    between atoms: C_3  and  CA_4
REMARK    3  A    between atoms: CA_4  and  N_5
REMARK    4  A    between atoms: CA_4  and  C_12
REMARK    5  A    between atoms: N_5  and  C_6
REMARK    6  A    between atoms: C_6  and  C_8
REMARK                            x       y       z     vdW  Elec       q    Type
REMARK                         _______ _______ _______ _____ _____    ______ ____
ROOT
ATOM      1  CA  UNL     1     -18.776  40.711 -10.819  0.00  0.00    +0.149 C 
ENDROOT
BRANCH   1   2
ATOM      2  C   UNL     1     -19.127  39.694 -11.974  0.00  0.00    +0.468 C 
ATOM      3  O   UNL     1     -19.537  38.538 -11.633  0.00  0.00    -0.568 OA
ATOM      4  OXT UNL     1     -18.911  40.111 -13.159  0.00  0.00    -0.577 OA
ENDBRANCH   1   2
BRANCH   1   5
ATOM      5  C   UNL     1     -17.314  41.194 -11.018  0.00  0.00    +0.002 C 
BRANCH   5   7
ATOM      6  C   UNL     1     -17.556  43.991 -11.318  0.00  0.00    -0.212 C 
ATOM      7  C   UNL     1     -17.444  42.700 -11.180  0.00  0.00    -0.011 C 
ENDBRANCH   5   7
ENDBRANCH   1   5
BRANCH   1   8
ATOM      8  N   UNL     1     -18.979  40.116  -9.480  0.00  0.00    -0.518 NA
BRANCH   8   9
ATOM      9  C   UNL     1     -19.447  40.937  -8.551  0.00  0.00    +0.498 C 
ATOM     10  O   UNL     1     -18.893  41.827  -7.912  0.00  0.00    -0.572 OA
BRANCH   9  11
ATOM     11  C   UNL     1     -20.866  40.593  -8.347  0.00  0.00    -0.176 C 
ATOM     12  C   UNL     1     -21.717  41.408  -7.723  0.00  0.00    +0.270 C 
ATOM     13  F   UNL     1     -21.355  42.613  -7.245  0.00  0.00    -0.363 F 
ATOM     14  F   UNL     1     -22.992  40.988  -7.540  0.00  0.00    -0.390 F 
ENDBRANCH   9  11
ENDBRANCH   8   9
ENDBRANCH   1   8
TORSDOF 6
ENDMDL
MODEL 2
REMARK VINA RESULT:    -5.822      0.967      1.515
REMARK INTER + INTRA:          -8.052
REMARK INTER:                  -7.657
REMARK INTRA:                  -0.395
REMARK UNBOUND:                -0.188
REMARK  Name = 
REMARK  6 active torsions:
REMARK  status: ('A' for Active; 'I' for Inactive)
REMARK    1  A    between atoms: C_2  and  C_3
REMARK    2  A    between atoms: C_3  and  CA_4
REMARK    3  A    between atoms: CA_4  and  N_5
REMARK    4  A    between atoms: CA_4  and  C_12
REMARK    5  A    between atoms: N_5  and  C_6
REMARK    6  A    between atoms: C_6  and  C_8
REMARK                            x       y       z     vdW  Elec       q    Type
REMARK                         _______ _______ _______ _____ _____    ______ ____
ROOT
ATOM      1  CA  UNL     1     -19.178  41.183 -11.091  0.00  0.00    +0.149 C 
ENDROOT
BRANCH   1   2
ATOM      2  C   UNL     1     -19.492  40.652 -12.544  0.00  0.00    +0.468 C 
ATOM      3  O   UNL     1     -19.549  39.392 -12.709  0.00  0.00    -0.568 OA
ATOM      4  OXT UNL     1     -19.606  41.549 -13.444  0.00  0.00    -0.577 OA
ENDBRANCH   1   2
BRANCH   1   5
ATOM      5  C   UNL     1     -17.855  41.993 -11.140  0.00  0.00    +0.002 C 
BRANCH   5   7
ATOM      6  C   UNL     1     -15.867  40.028 -11.541  0.00  0.00    -0.212 C 
ATOM      7  C   UNL     1     -16.785  40.936 -11.356  0.00  0.00    -0.011 C 
ENDBRANCH   5   7
ENDBRANCH   1   5
BRANCH   1   8
ATOM      8  N   UNL     1     -19.110  40.082 -10.106  0.00  0.00    -0.518 NA
BRANCH   8   9
ATOM      9  C   UNL     1     -19.346  40.421  -8.846  0.00  0.00    +0.498 C 
ATOM     10  O   UNL     1     -18.591  40.829  -7.969  0.00  0.00    -0.572 OA
BRANCH   9  11
ATOM     11  C   UNL     1     -20.784  40.203  -8.603  0.00  0.00    -0.176 C 
ATOM     12  C   UNL     1     -21.541  41.085  -7.950  0.00  0.00    +0.270 C 
ATOM     13  F   UNL     1     -21.060  42.249  -7.476  0.00  0.00    -0.363 F 
ATOM     14  F   UNL     1     -22.843  40.778  -7.732  0.00  0.00    -0.390 F 
ENDBRANCH   9  11
ENDBRANCH   8   9
ENDBRANCH   1   8
TORSDOF 6
ENDMDL
MODEL 3
REMARK VINA RESULT:    -5.748      1.685      1.989
REMARK INTER + INTRA:          -7.953
REMARK INTER:                  -7.605
REMARK INTRA:                  -0.348
REMARK UNBOUND:                -0.188
REMARK  Name = 
REMARK  6 active torsions:
REMARK  status: ('A' for Active; 'I' for Inactive)
REMARK    1  A    between atoms: C_2  and  C_3
REMARK    2  A    between atoms: C_3  and  CA_4
REMARK    3  A    between atoms: CA_4  and  N_5
REMARK    4  A    between atoms: CA_4  and  C_12
REMARK    5  A    between atoms: N_5  and  C_6
REMARK    6  A    between atoms: C_6  and  C_8
REMARK                            x       y       z     vdW  Elec       q    Type
REMARK                         _______ _______ _______ _____ _____    ______ ____
ROOT
ATOM      1  CA  UNL     1     -18.798  41.016 -10.597  0.00  0.00    +0.149 C 
ENDROOT
BRANCH   1   2
ATOM      2  C   UNL     1     -18.240  39.693 -11.253  0.00  0.00    +0.468 C 
ATOM      3  O   UNL     1     -16.987  39.625 -11.463  0.00  0.00    -0.568 OA
ATOM      4  OXT UNL     1     -19.118  38.824 -11.570  0.00  0.00    -0.577 OA
ENDBRANCH   1   2
BRANCH   1   5
ATOM      5  C   UNL     1     -18.007  42.221 -11.174  0.00  0.00    +0.002 C 
BRANCH   5   7
ATOM      6  C   UNL     1     -19.088  42.570 -13.759  0.00  0.00    -0.212 C 
ATOM      7  C   UNL     1     -18.589  42.409 -12.566  0.00  0.00    -0.011 C 
ENDBRANCH   5   7
ENDBRANCH   1   5
BRANCH   1   8
ATOM      8  N   UNL     1     -18.727  40.971  -9.121  0.00  0.00    -0.518 NA
BRANCH   8   9
ATOM      9  C   UNL     1     -19.821  40.543  -8.506  0.00  0.00    +0.498 C 
ATOM     10  O   UNL     1     -20.731  39.818  -8.896  0.00  0.00    -0.572 OA
BRANCH   9  11
ATOM     11  C   UNL     1     -19.813  41.129  -7.153  0.00  0.00    -0.176 C 
ATOM     12  C   UNL     1     -20.791  41.919  -6.710  0.00  0.00    +0.270 C 
ATOM     13  F   UNL     1     -21.870  42.232  -7.453  0.00  0.00    -0.363 F 
ATOM     14  F   UNL     1     -20.676  42.451  -5.469  0.00  0.00    -0.390 F 
ENDBRANCH   9  11
ENDBRANCH   8   9
ENDBRANCH   1   8
TORSDOF 6
ENDMDL
MODEL 4
REMARK VINA RESULT:    -5.455      1.700      2.255
REMARK INTER + INTRA:          -7.556
REMARK INTER:                  -7.122
REMARK INTRA:                  -0.434
REMARK UNBOUND:                -0.188
REMARK  Name = 
REMARK  6 active torsions:
REMARK  status: ('A' for Active; 'I' for Inactive)
REMARK    1  A    between atoms: C_2  and  C_3
REMARK    2  A    between atoms: C_3  and  CA_4
REMARK    3  A    between atoms: CA_4  and  N_5
REMARK    4  A    between atoms: CA_4  and  C_12
REMARK    5  A    between atoms: N_5  and  C_6
REMARK    6  A    between atoms: C_6  and  C_8
REMARK                            x       y       z     vdW  Elec       q    Type
REMARK                         _______ _______ _______ _____ _____    ______ ____
ROOT
ATOM      1  CA  UNL     1     -18.406  40.963 -11.880  0.00  0.00    +0.149 C 
ENDROOT
BRANCH   1   2
ATOM      2  C   UNL     1     -17.050  40.252 -12.266  0.00  0.00    +0.468 C 
ATOM      3  O   UNL     1     -16.956  39.763 -13.437  0.00  0.00    -0.568 OA
ATOM      4  OXT UNL     1     -16.181  40.183 -11.335  0.00  0.00    -0.577 OA
ENDBRANCH   1   2
BRANCH   1   5
ATOM      5  C   UNL     1     -18.597  42.192 -12.809  0.00  0.00    +0.002 C 
BRANCH   5   7
ATOM      6  C   UNL     1     -16.755  44.087 -11.816  0.00  0.00    -0.212 C 
ATOM      7  C   UNL     1     -17.605  43.213 -12.274  0.00  0.00    -0.011 C 
ENDBRANCH   5   7
ENDBRANCH   1   5
BRANCH   1   8
ATOM      8  N   UNL     1     -18.441  41.344 -10.452  0.00  0.00    -0.518 NA
BRANCH   8   9
ATOM      9  C   UNL     1     -19.107  40.522  -9.653  0.00  0.00    +0.498 C 
ATOM     10  O   UNL     1     -19.726  39.490  -9.897  0.00  0.00    -0.572 OA
BRANCH   9  11
ATOM     11  C   UNL     1     -19.018  41.077  -8.291  0.00  0.00    -0.176 C 
ATOM     12  C   UNL     1     -20.082  41.541  -7.635  0.00  0.00    +0.270 C 
ATOM     13  F   UNL     1     -21.324  41.526  -8.157  0.00  0.00    -0.363 F 
ATOM     14  F   UNL     1     -19.897  42.076  -6.405  0.00  0.00    -0.390 F 
ENDBRANCH   9  11
ENDBRANCH   8   9
ENDBRANCH   1   8
TORSDOF 6
ENDMDL
MODEL 5
REMARK VINA RESULT:    -5.377      2.450      3.338
REMARK INTER + INTRA:          -7.451
REMARK INTER:                  -6.858
REMARK INTRA:                  -0.593
REMARK UNBOUND:                -0.188
REMARK  Name = 
REMARK  6 active torsions:
REMARK  status: ('A' for Active; 'I' for Inactive)
REMARK    1  A    between atoms: C_2  and  C_3
REMARK    2  A    between atoms: C_3  and  CA_4
REMARK    3  A    between atoms: CA_4  and  N_5
REMARK    4  A    between atoms: CA_4  and  C_12
REMARK    5  A    between atoms: N_5  and  C_6
REMARK    6  A    between atoms: C_6  and  C_8
REMARK                            x       y       z     vdW  Elec       q    Type
REMARK                         _______ _______ _______ _____ _____    ______ ____
ROOT
ATOM      1  CA  UNL     1     -17.629  41.410 -11.595  0.00  0.00    +0.149 C 
ENDROOT
BRANCH   1   2
ATOM      2  C   UNL     1     -17.047  42.707 -10.909  0.00  0.00    +0.468 C 
ATOM      3  O   UNL     1     -17.732  43.234  -9.975  0.00  0.00    -0.568 OA
ATOM      4  OXT UNL     1     -15.956  43.146 -11.401  0.00  0.00    -0.577 OA
ENDBRANCH   1   2
BRANCH   1   5
ATOM      5  C   UNL     1     -17.373  41.505 -13.123  0.00  0.00    +0.002 C 
BRANCH   5   7
ATOM      6  C   UNL     1     -19.513  43.082 -14.075  0.00  0.00    -0.212 C 
ATOM      7  C   UNL     1     -18.525  42.354 -13.635  0.00  0.00    -0.011 C 
ENDBRANCH   5   7
ENDBRANCH   1   5
BRANCH   1   8
ATOM      8  N   UNL     1     -19.064  41.223 -11.290  0.00  0.00    -0.518 NA
BRANCH   8   9
ATOM      9  C   UNL     1     -19.386  40.069 -10.722  0.00  0.00    +0.498 C 
ATOM     10  O   UNL     1     -19.277  38.915 -11.126  0.00  0.00    -0.572 OA
BRANCH   9  11
ATOM     11  C   UNL     1     -19.974  40.385  -9.407  0.00  0.00    -0.176 C 
ATOM     12  C   UNL     1     -19.230  40.564  -8.315  0.00  0.00    +0.270 C 
ATOM     13  F   UNL     1     -17.886  40.486  -8.327  0.00  0.00    -0.363 F 
ATOM     14  F   UNL     1     -19.860  40.805  -7.140  0.00  0.00    -0.390 F 
ENDBRANCH   9  11
ENDBRANCH   8   9
ENDBRANCH   1   8
TORSDOF 6
ENDMDL
