MODEL 1
REMARK VINA RESULT:    -8.477      0.000      0.000
REMARK INTER + INTRA:         -12.520
REMARK INTER:                 -11.451
REMARK INTRA:                  -1.069
REMARK UNBOUND:                -1.069
REMARK  Name = 
REMARK  6 active torsions:
REMARK  status: ('A' for Active; 'I' for Inactive)
REMARK    1  A    between atoms: C_2  and  C_3
REMARK    2  A    between atoms: C_2  and  O_7
REMARK    3  A    between atoms: O_7  and  C_8
REMARK    4  A    between atoms: C_8  and  C_17
REMARK    5  A    between atoms: N_9  and  C_10
REMARK    6  A    between atoms: C_10  and  C_11
REMARK                            x       y       z     vdW  Elec       q    Type
REMARK                         _______ _______ _______ _____ _____    ______ ____
ROOT
ATOM      1  C   UNL     1     -18.427  41.208 -10.778  0.00  0.00    +0.484 C 
ATOM      2  N   UNL     1     -18.591  40.416  -9.778  0.00  0.00    -0.392 NA
ENDROOT
BRANCH   1   3
ATOM      3  C   UNL     1     -17.072  41.432 -11.315  0.00  0.00    -0.132 C 
ATOM      4  C   UNL     1     -16.487  42.599 -11.388  0.00  0.00    +0.129 C 
ATOM      5  C   UNL     1     -15.126  42.968 -11.337  0.00  0.00    -0.065 C 
ATOM      6  C   UNL     1     -14.561  44.130 -11.419  0.00  0.00    +0.101 C 
ATOM      7  C   UNL     1     -13.077  44.484 -11.432  0.00  0.00    -0.003 C 
ATOM      8  C   UNL     1     -12.476  43.448 -11.315  0.00  0.00    +0.244 C 
ATOM      9  N   UNL     1     -12.719  42.004 -11.142  0.00  0.00    -0.572 N 
ATOM     10  C   UNL     1     -14.153  41.731 -11.213  0.00  0.00    +0.419 C 
ATOM     11  N   UNL     1     -14.738  40.430 -11.168  0.00  0.00    -0.674 N 
ATOM     12  C   UNL     1     -16.001  40.475 -11.232  0.00  0.00    +0.357 C 
ATOM     13  H   UNL     1     -12.084  41.327 -11.555  0.00  0.00    +0.324 HD
ATOM     14  H   UNL     1     -14.181  39.598 -10.999  0.00  0.00    +0.339 HD
ENDBRANCH   1   3
BRANCH   1  15
ATOM     15  O   UNL     1     -19.426  41.804 -11.488  0.00  0.00    -0.535 OA
BRANCH  15  17
ATOM     16  O   UNL     1     -19.451  40.192 -13.118  0.00  0.00    -0.493 OA
ATOM     17  C   UNL     1     -19.506  41.370 -12.775  0.00  0.00    +0.593 C 
BRANCH  17  18
ATOM     18  C   UNL     1     -19.847  42.402 -13.759  0.00  0.00    -0.018 C 
ATOM     19  C   UNL     1     -18.996  43.281 -14.288  0.00  0.00    +0.472 C 
ATOM     20  F   UNL     1     -17.681  43.253 -14.006  0.00  0.00    -0.273 F 
ATOM     21  F   UNL     1     -19.489  44.273 -15.061  0.00  0.00    -0.277 F 
ENDBRANCH  17  18
ENDBRANCH  15  17
ENDBRANCH   1  15
BRANCH   2  22
ATOM     22  C   UNL     1     -19.953  40.051  -9.378  0.00  0.00    +0.315 C 
BRANCH  22  23
ATOM     23  C   UNL     1     -20.533  40.848  -8.236  0.00  0.00    +0.081 A 
ATOM     24  C   UNL     1     -21.906  40.895  -7.965  0.00  0.00    +0.119 A 
ATOM     25  C   UNL     1     -22.389  41.618  -6.872  0.00  0.00    +0.128 A 
ATOM     26  C   UNL     1     -21.509  42.325  -6.056  0.00  0.00    +0.119 A 
ATOM     27  C   UNL     1     -20.147  42.334  -6.348  0.00  0.00    +0.131 A 
ATOM     28  C   UNL     1     -19.664  41.606  -7.435  0.00  0.00    +0.078 A 
ENDBRANCH  22  23
ENDBRANCH   2  22
TORSDOF 6
ENDMDL
MODEL 2
REMARK VINA RESULT:    -8.253      1.996      2.592
REMARK INTER + INTRA:         -12.218
REMARK INTER:                 -11.822
REMARK INTRA:                  -0.396
REMARK UNBOUND:                -1.069
REMARK  Name = 
REMARK  6 active torsions:
REMARK  status: ('A' for Active; 'I' for Inactive)
REMARK    1  A    between atoms: C_2  and  C_3
REMARK    2  A    between atoms: C_2  and  O_7
REMARK    3  A    between atoms: O_7  and  C_8
REMARK    4  A    between atoms: C_8  and  C_17
REMARK    5  A    between atoms: N_9  and  C_10
REMARK    6  A    between atoms: C_10  and  C_11
REMARK                            x       y       z     vdW  Elec       q    Type
REMARK                         _______ _______ _______ _____ _____    ______ ____
ROOT
ATOM      1  C   UNL     1     -17.678  41.774 -10.393  0.00  0.00    +0.484 C 
ATOM      2  N   UNL     1     -18.127  42.145  -9.246  0.00  0.00    -0.392 NA
ENDROOT
BRANCH   1   3
ATOM      3  C   UNL     1     -17.056  42.765 -11.289  0.00  0.00    -0.132 C 
ATOM      4  C   UNL     1     -17.339  44.041 -11.293  0.00  0.00    +0.129 C 
ATOM      5  C   UNL     1     -16.559  45.172 -11.621  0.00  0.00    -0.065 C 
ATOM      6  C   UNL     1     -16.858  46.432 -11.628  0.00  0.00    +0.101 C 
ATOM      7  C   UNL     1     -16.008  47.623 -12.059  0.00  0.00    -0.003 C 
ATOM      8  C   UNL     1     -14.936  47.181 -12.382  0.00  0.00    +0.244 C 
ATOM      9  N   UNL     1     -14.210  45.901 -12.462  0.00  0.00    -0.572 N 
ATOM     10  C   UNL     1     -15.103  44.801 -12.107  0.00  0.00    +0.419 C 
ATOM     11  N   UNL     1     -14.755  43.418 -12.157  0.00  0.00    -0.674 N 
ATOM     12  C   UNL     1     -15.707  42.674 -11.783  0.00  0.00    +0.357 C 
ATOM     13  H   UNL     1     -13.532  45.745 -13.203  0.00  0.00    +0.324 HD
ATOM     14  H   UNL     1     -13.811  43.112 -12.374  0.00  0.00    +0.339 HD
ENDBRANCH   1   3
BRANCH   1  15
ATOM     15  O   UNL     1     -17.620  40.488 -10.841  0.00  0.00    -0.535 OA
BRANCH  15  17
ATOM     16  O   UNL     1     -19.287  38.929 -11.055  0.00  0.00    -0.493 OA
ATOM     17  C   UNL     1     -18.808  40.029 -11.319  0.00  0.00    +0.593 C 
BRANCH  17  18
ATOM     18  C   UNL     1     -19.604  41.013 -12.059  0.00  0.00    -0.018 C 
ATOM     19  C   UNL     1     -19.288  41.535 -13.243  0.00  0.00    +0.472 C 
ATOM     20  F   UNL     1     -18.200  41.133 -13.927  0.00  0.00    -0.273 F 
ATOM     21  F   UNL     1     -20.038  42.548 -13.725  0.00  0.00    -0.277 F 
ENDBRANCH  17  18
ENDBRANCH  15  17
ENDBRANCH   1  15
BRANCH   2  22
ATOM     22  C   UNL     1     -18.564  41.124  -8.291  0.00  0.00    +0.315 C 
BRANCH  22  23
ATOM     23  C   UNL     1     -19.935  41.331  -7.696  0.00  0.00    +0.081 A 
ATOM     24  C   UNL     1     -20.155  42.103  -6.548  0.00  0.00    +0.119 A 
ATOM     25  C   UNL     1     -21.450  42.294  -6.060  0.00  0.00    +0.128 A 
ATOM     26  C   UNL     1     -22.534  41.691  -6.694  0.00  0.00    +0.119 A 
ATOM     27  C   UNL     1     -22.323  40.875  -7.802  0.00  0.00    +0.131 A 
ATOM     28  C   UNL     1     -21.031  40.690  -8.295  0.00  0.00    +0.078 A 
ENDBRANCH  22  23
ENDBRANCH   2  22
TORSDOF 6
ENDMDL
MODEL 3
REMARK VINA RESULT:    -8.221      2.817      4.426
REMARK INTER + INTRA:         -12.173
REMARK INTER:                 -12.201
REMARK INTRA:                   0.028
REMARK UNBOUND:                -1.069
REMARK  Name = 
REMARK  6 active torsions:
REMARK  status: ('A' for Active; 'I' for Inactive)
REMARK    1  A    between atoms: C_2  and  C_3
REMARK    2  A    between atoms: C_2  and  O_7
REMARK    3  A    between atoms: O_7  and  C_8
REMARK    4  A    between atoms: C_8  and  C_17
REMARK    5  A    between atoms: N_9  and  C_10
REMARK    6  A    between atoms: C_10  and  C_11
REMARK                            x       y       z     vdW  Elec       q    Type
REMARK                         _______ _______ _______ _____ _____    ______ ____
ROOT
ATOM      1  C   UNL     1     -18.968  41.697 -10.928  0.00  0.00    +0.484 C 
ATOM      2  N   UNL     1     -18.496  41.997  -9.770  0.00  0.00    -0.392 NA
ENDROOT
BRANCH   1   3
ATOM      3  C   UNL     1     -18.567  42.487 -12.106  0.00  0.00    -0.132 C 
ATOM      4  C   UNL     1     -19.143  42.417 -13.277  0.00  0.00    +0.129 C 
ATOM      5  C   UNL     1     -19.303  43.376 -14.300  0.00  0.00    -0.065 C 
ATOM      6  C   UNL     1     -19.871  43.288 -15.461  0.00  0.00    +0.101 C 
ATOM      7  C   UNL     1     -19.960  44.329 -16.573  0.00  0.00    -0.003 C 
ATOM      8  C   UNL     1     -19.412  45.319 -16.162  0.00  0.00    +0.244 C 
ATOM      9  N   UNL     1     -18.732  45.827 -14.956  0.00  0.00    -0.572 N 
ATOM     10  C   UNL     1     -18.618  44.759 -13.966  0.00  0.00    +0.419 C 
ATOM     11  N   UNL     1     -17.941  44.877 -12.715  0.00  0.00    -0.674 N 
ATOM     12  C   UNL     1     -18.004  43.810 -12.038  0.00  0.00    +0.357 C 
ATOM     13  H   UNL     1     -17.960  46.481 -15.044  0.00  0.00    +0.324 HD
ATOM     14  H   UNL     1     -17.556  45.761 -12.395  0.00  0.00    +0.339 HD
ENDBRANCH   1   3
BRANCH   1  15
ATOM     15  O   UNL     1     -19.750  40.616 -11.208  0.00  0.00    -0.535 OA
BRANCH  15  17
ATOM     16  O   UNL     1     -19.529  38.967 -12.784  0.00  0.00    -0.493 OA
ATOM     17  C   UNL     1     -19.082  39.616 -11.843  0.00  0.00    +0.593 C 
BRANCH  17  18
ATOM     18  C   UNL     1     -17.680  39.453 -11.446  0.00  0.00    -0.018 C 
ATOM     19  C   UNL     1     -16.623  39.631 -12.238  0.00  0.00    +0.472 C 
ATOM     20  F   UNL     1     -16.753  40.062 -13.507  0.00  0.00    -0.273 F 
ATOM     21  F   UNL     1     -15.402  39.289 -11.774  0.00  0.00    -0.277 F 
ENDBRANCH  17  18
ENDBRANCH  15  17
ENDBRANCH   1  15
BRANCH   2  22
ATOM     22  C   UNL     1     -18.747  41.092  -8.645  0.00  0.00    +0.315 C 
BRANCH  22  23
ATOM     23  C   UNL     1     -20.022  41.341  -7.879  0.00  0.00    +0.081 A 
ATOM     24  C   UNL     1     -21.261  40.828  -8.281  0.00  0.00    +0.119 A 
ATOM     25  C   UNL     1     -22.406  41.058  -7.514  0.00  0.00    +0.128 A 
ATOM     26  C   UNL     1     -22.331  41.827  -6.355  0.00  0.00    +0.119 A 
ATOM     27  C   UNL     1     -21.116  42.392  -5.975  0.00  0.00    +0.131 A 
ATOM     28  C   UNL     1     -19.971  42.156  -6.736  0.00  0.00    +0.078 A 
ENDBRANCH  22  23
ENDBRANCH   2  22
TORSDOF 6
ENDMDL
MODEL 4
REMARK VINA RESULT:    -7.699      2.776      4.517
REMARK INTER + INTRA:         -11.468
REMARK INTER:                 -10.263
REMARK INTRA:                  -1.205
REMARK UNBOUND:                -1.069
REMARK  Name = 
REMARK  6 active torsions:
REMARK  status: ('A' for Active; 'I' for Inactive)
REMARK    1  A    between atoms: C_2  and  C_3
REMARK    2  A    between atoms: C_2  and  O_7
REMARK    3  A    between atoms: O_7  and  C_8
REMARK    4  A    between atoms: C_8  and  C_17
REMARK    5  A    between atoms: N_9  and  C_10
REMARK    6  A    between atoms: C_10  and  C_11
REMARK                            x       y       z     vdW  Elec       q    Type
REMARK                         _______ _______ _______ _____ _____    ______ ____
ROOT
ATOM      1  C   UNL     1     -18.794  42.050 -11.653  0.00  0.00    +0.484 C 
ATOM      2  N   UNL     1     -19.519  41.040 -11.326  0.00  0.00    -0.392 NA
ENDROOT
BRANCH   1   3
ATOM      3  C   UNL     1     -19.191  42.896 -12.793  0.00  0.00    -0.132 C 
ATOM      4  C   UNL     1     -18.764  44.114 -12.997  0.00  0.00    +0.129 C 
ATOM      5  C   UNL     1     -18.568  44.850 -14.186  0.00  0.00    -0.065 C 
ATOM      6  C   UNL     1     -18.151  46.062 -14.371  0.00  0.00    +0.101 C 
ATOM      7  C   UNL     1     -18.021  46.850 -15.671  0.00  0.00    -0.003 C 
ATOM      8  C   UNL     1     -18.359  46.109 -16.557  0.00  0.00    +0.244 C 
ATOM      9  N   UNL     1     -18.815  44.723 -16.771  0.00  0.00    -0.572 N 
ATOM     10  C   UNL     1     -18.987  44.054 -15.484  0.00  0.00    +0.419 C 
ATOM     11  N   UNL     1     -19.496  42.732 -15.313  0.00  0.00    -0.674 N 
ATOM     12  C   UNL     1     -19.529  42.388 -14.097  0.00  0.00    +0.357 C 
ATOM     13  H   UNL     1     -19.480  44.514 -17.510  0.00  0.00    +0.324 HD
ATOM     14  H   UNL     1     -19.701  42.131 -16.107  0.00  0.00    +0.339 HD
ENDBRANCH   1   3
BRANCH   1  15
ATOM     15  O   UNL     1     -17.708  42.501 -10.963  0.00  0.00    -0.535 OA
BRANCH  15  17
ATOM     16  O   UNL     1     -16.398  40.995 -12.091  0.00  0.00    -0.493 OA
ATOM     17  C   UNL     1     -16.526  42.037 -11.454  0.00  0.00    +0.593 C 
BRANCH  17  18
ATOM     18  C   UNL     1     -15.395  42.961 -11.329  0.00  0.00    -0.018 C 
ATOM     19  C   UNL     1     -14.906  43.726 -12.304  0.00  0.00    +0.472 C 
ATOM     20  F   UNL     1     -15.477  43.774 -13.522  0.00  0.00    -0.273 F 
ATOM     21  F   UNL     1     -13.761  44.406 -12.080  0.00  0.00    -0.277 F 
ENDBRANCH  17  18
ENDBRANCH  15  17
ENDBRANCH   1  15
BRANCH   2  22
ATOM     22  C   UNL     1     -19.223  40.326 -10.081  0.00  0.00    +0.315 C 
BRANCH  22  23
ATOM     23  C   UNL     1     -19.880  40.878  -8.841  0.00  0.00    +0.081 A 
ATOM     24  C   UNL     1     -19.186  41.639  -7.891  0.00  0.00    +0.119 A 
ATOM     25  C   UNL     1     -19.851  42.159  -6.777  0.00  0.00    +0.128 A 
ATOM     26  C   UNL     1     -21.206  41.899  -6.585  0.00  0.00    +0.119 A 
ATOM     27  C   UNL     1     -21.893  41.096  -7.491  0.00  0.00    +0.131 A 
ATOM     28  C   UNL     1     -21.232  40.583  -8.607  0.00  0.00    +0.078 A 
ENDBRANCH  22  23
ENDBRANCH   2  22
TORSDOF 6
ENDMDL
MODEL 5
REMARK VINA RESULT:    -7.213      2.198      2.812
REMARK INTER + INTRA:         -10.812
REMARK INTER:                 -10.258
REMARK INTRA:                  -0.554
REMARK UNBOUND:                -1.069
REMARK  Name = 
REMARK  6 active torsions:
REMARK  status: ('A' for Active; 'I' for Inactive)
REMARK    1  A    between atoms: C_2  and  C_3
REMARK    2  A    between atoms: C_2  and  O_7
REMARK    3  A    between atoms: O_7  and  C_8
REMARK    4  A    between atoms: C_8  and  C_17
REMARK    5  A    between atoms: N_9  and  C_10
REMARK    6  A    between atoms: C_10  and  C_11
REMARK                            x       y       z     vdW  Elec       q    Type
REMARK                         _______ _______ _______ _____ _____    ______ ____
ROOT
ATOM      1  C   UNL     1     -17.200  42.537 -11.847  0.00  0.00    +0.484 C 
ATOM      2  N   UNL     1     -17.364  42.309 -10.592  0.00  0.00    -0.392 NA
ENDROOT
BRANCH   1   3
ATOM      3  C   UNL     1     -16.426  43.715 -12.279  0.00  0.00    -0.132 C 
ATOM      4  C   UNL     1     -16.707  44.948 -11.951  0.00  0.00    +0.129 C 
ATOM      5  C   UNL     1     -15.884  46.083 -11.781  0.00  0.00    -0.065 C 
ATOM      6  C   UNL     1     -16.181  47.302 -11.463  0.00  0.00    +0.101 C 
ATOM      7  C   UNL     1     -15.269  48.522 -11.360  0.00  0.00    -0.003 C 
ATOM      8  C   UNL     1     -14.154  48.139 -11.605  0.00  0.00    +0.244 C 
ATOM      9  N   UNL     1     -13.422  46.903 -11.934  0.00  0.00    -0.572 N 
ATOM     10  C   UNL     1     -14.362  45.796 -12.090  0.00  0.00    +0.419 C 
ATOM     11  N   UNL     1     -14.006  44.473 -12.489  0.00  0.00    -0.674 N 
ATOM     12  C   UNL     1     -15.008  43.702 -12.531  0.00  0.00    +0.357 C 
ATOM     13  H   UNL     1     -12.618  46.937 -12.555  0.00  0.00    +0.324 HD
ATOM     14  H   UNL     1     -13.037  44.195 -12.617  0.00  0.00    +0.339 HD
ENDBRANCH   1   3
BRANCH   1  15
ATOM     15  O   UNL     1     -17.595  41.714 -12.859  0.00  0.00    -0.535 OA
BRANCH  15  17
ATOM     16  O   UNL     1     -19.802  41.124 -13.042  0.00  0.00    -0.493 OA
ATOM     17  C   UNL     1     -18.884  41.913 -13.245  0.00  0.00    +0.593 C 
BRANCH  17  18
ATOM     18  C   UNL     1     -19.173  43.245 -13.787  0.00  0.00    -0.018 C 
ATOM     19  C   UNL     1     -19.491  43.515 -15.053  0.00  0.00    +0.472 C 
ATOM     20  F   UNL     1     -19.652  42.540 -15.967  0.00  0.00    -0.273 F 
ATOM     21  F   UNL     1     -19.572  44.807 -15.437  0.00  0.00    -0.277 F 
ENDBRANCH  17  18
ENDBRANCH  15  17
ENDBRANCH   1  15
BRANCH   2  22
ATOM     22  C   UNL     1     -17.964  41.040 -10.174  0.00  0.00    +0.315 C 
BRANCH  22  23
ATOM     23  C   UNL     1     -19.073  41.146  -9.157  0.00  0.00    +0.081 A 
ATOM     24  C   UNL     1     -20.277  40.439  -9.272  0.00  0.00    +0.119 A 
ATOM     25  C   UNL     1     -21.258  40.544  -8.282  0.00  0.00    +0.128 A 
ATOM     26  C   UNL     1     -21.059  41.380  -7.185  0.00  0.00    +0.119 A 
ATOM     27  C   UNL     1     -19.892  42.133  -7.088  0.00  0.00    +0.131 A 
ATOM     28  C   UNL     1     -18.909  42.022  -8.072  0.00  0.00    +0.078 A 
ENDBRANCH  22  23
ENDBRANCH   2  22
TORSDOF 6
ENDMDL
