MODEL 1
REMARK VINA RESULT:    -8.390      0.000      0.000
REMARK INTER + INTRA:         -10.796
REMARK INTER:                 -10.597
REMARK INTRA:                  -0.199
REMARK UNBOUND:                -0.199
REMARK  Name = 
REMARK  5 active torsions:
REMARK  status: ('A' for Active; 'I' for Inactive)
REMARK    1  A    between atoms: C_2  and  C_3
REMARK    2  A    between atoms: C_3  and  C_12
REMARK    3  A    between atoms: N_4  and  C_5
REMARK    4  A    between atoms: C_5  and  C_6
REMARK    5  A    between atoms: C_18  and  N_19
REMARK                            x       y       z     vdW  Elec       q    Type
REMARK                         _______ _______ _______ _____ _____    ______ ____
ROOT
ATOM      1  C   UNL     1     -17.077  41.042 -11.124  0.00  0.00    -0.006 C 
ATOM      2  C   UNL     1     -17.105  42.543 -10.781  0.00  0.00    +0.172 C 
ATOM      3  C   UNL     1     -18.081  43.292 -11.688  0.00  0.00    +0.059 C 
ATOM      4  C   UNL     1     -17.807  43.024 -13.125  0.00  0.00    +0.627 C 
ATOM      5  N   UNL     1     -18.094  43.973 -13.989  0.00  0.00    -0.906 N 
ATOM      6  N   UNL     1     -17.274  41.874 -13.485  0.00  0.00    -0.706 N 
ATOM      7  C   UNL     1     -16.610  40.942 -12.584  0.00  0.00    +0.461 C 
ATOM      8  H   UNL     1     -18.466  44.867 -13.684  0.00  0.00    +0.340 HD
ATOM      9  H   UNL     1     -17.887  43.876 -14.976  0.00  0.00    +0.354 HD
ATOM     10  H   UNL     1     -17.231  41.604 -14.460  0.00  0.00    +0.338 HD
ENDROOT
BRANCH   7  11
ATOM     11  N   UNL     1     -16.623  39.698 -13.294  0.00  0.00    -0.739 NA
ATOM     12  H   UNL     1     -16.356  39.816 -14.273  0.00  0.00    +0.321 HD
ATOM     13  H   UNL     1     -17.559  39.292 -13.292  0.00  0.00    +0.305 HD
ENDBRANCH   7  11
BRANCH   1  14
ATOM     14  C   UNL     1     -18.432  40.439 -10.811  0.00  0.00    +0.149 C 
ATOM     15  N   UNL     1     -18.930  40.564  -9.638  0.00  0.00    -0.354 NA
BRANCH  14  17
ATOM     16  N   UNL     1     -19.622  38.966 -12.613  0.00  0.00    -0.313 NA
ATOM     17  C   UNL     1     -19.088  39.600 -11.806  0.00  0.00    +0.189 C 
ENDBRANCH  14  17
BRANCH  15  18
ATOM     18  C   UNL     1     -20.184  39.967  -9.197  0.00  0.00    +0.223 C 
BRANCH  18  19
ATOM     19  C   UNL     1     -20.753  40.857  -8.118  0.00  0.00    +0.080 A 
ATOM     20  C   UNL     1     -19.882  41.579  -7.290  0.00  0.00    +0.058 A 
ATOM     21  C   UNL     1     -20.379  42.357  -6.245  0.00  0.00    +0.101 A 
ATOM     22  C   UNL     1     -21.752  42.415  -6.012  0.00  0.00    +0.091 A 
ATOM     23  C   UNL     1     -22.627  41.685  -6.814  0.00  0.00    +0.100 A 
ATOM     24  C   UNL     1     -22.132  40.903  -7.861  0.00  0.00    +0.057 A 
ENDBRANCH  18  19
ENDBRANCH  15  18
ENDBRANCH   1  14
TORSDOF 5
ENDMDL
MODEL 2
REMARK VINA RESULT:    -7.892      1.572      2.446
REMARK INTER + INTRA:         -10.167
REMARK INTER:                  -9.362
REMARK INTRA:                  -0.805
REMARK UNBOUND:                -0.199
REMARK  Name = 
REMARK  5 active torsions:
REMARK  status: ('A' for Active; 'I' for Inactive)
REMARK    1  A    between atoms: C_2  and  C_3
REMARK    2  A    between atoms: C_3  and  C_12
REMARK    3  A    between atoms: N_4  and  C_5
REMARK    4  A    between atoms: C_5  and  C_6
REMARK    5  A    between atoms: C_18  and  N_19
REMARK                            x       y       z     vdW  Elec       q    Type
REMARK                         _______ _______ _______ _____ _____    ______ ____
ROOT
ATOM      1  C   UNL     1     -18.278  41.519 -11.903  0.00  0.00    -0.006 C 
ATOM      2  C   UNL     1     -17.402  40.657 -12.832  0.00  0.00    +0.172 C 
ATOM      3  C   UNL     1     -16.258  40.006 -12.054  0.00  0.00    +0.059 C 
ATOM      4  C   UNL     1     -15.481  41.011 -11.282  0.00  0.00    +0.627 C 
ATOM      5  N   UNL     1     -14.204  40.771 -11.077  0.00  0.00    -0.906 N 
ATOM      6  N   UNL     1     -16.076  42.104 -10.849  0.00  0.00    -0.706 N 
ATOM      7  C   UNL     1     -17.357  42.605 -11.328  0.00  0.00    +0.461 C 
ATOM      8  H   UNL     1     -13.759  39.941 -11.456  0.00  0.00    +0.340 HD
ATOM      9  H   UNL     1     -13.606  41.436 -10.602  0.00  0.00    +0.354 HD
ATOM     10  H   UNL     1     -15.616  42.718 -10.187  0.00  0.00    +0.338 HD
ENDROOT
BRANCH   7  11
ATOM     11  N   UNL     1     -17.796  43.492 -10.293  0.00  0.00    -0.739 NA
ATOM     12  H   UNL     1     -17.078  43.630  -9.580  0.00  0.00    +0.321 HD
ATOM     13  H   UNL     1     -18.614  43.112  -9.816  0.00  0.00    +0.305 HD
ENDBRANCH   7  11
BRANCH   1  14
ATOM     14  C   UNL     1     -18.963  40.618 -10.896  0.00  0.00    +0.149 C 
ATOM     15  N   UNL     1     -18.956  40.929  -9.653  0.00  0.00    -0.354 NA
BRANCH  14  17
ATOM     16  N   UNL     1     -19.896  38.316 -11.709  0.00  0.00    -0.313 NA
ATOM     17  C   UNL     1     -19.497  39.334 -11.332  0.00  0.00    +0.189 C 
ENDBRANCH  14  17
BRANCH  15  18
ATOM     18  C   UNL     1     -19.514  40.108  -8.586  0.00  0.00    +0.223 C 
BRANCH  18  19
ATOM     19  C   UNL     1     -20.489  40.968  -7.818  0.00  0.00    +0.080 A 
ATOM     20  C   UNL     1     -20.006  41.871  -6.859  0.00  0.00    +0.058 A 
ATOM     21  C   UNL     1     -20.888  42.629  -6.092  0.00  0.00    +0.101 A 
ATOM     22  C   UNL     1     -22.263  42.489  -6.268  0.00  0.00    +0.091 A 
ATOM     23  C   UNL     1     -22.757  41.580  -7.202  0.00  0.00    +0.100 A 
ATOM     24  C   UNL     1     -21.876  40.817  -7.972  0.00  0.00    +0.057 A 
ENDBRANCH  18  19
ENDBRANCH  15  18
ENDBRANCH   1  14
TORSDOF 5
ENDMDL
MODEL 3
REMARK VINA RESULT:    -7.842      1.488      3.280
REMARK INTER + INTRA:         -10.104
REMARK INTER:                  -9.006
REMARK INTRA:                  -1.098
REMARK UNBOUND:                -0.199
REMARK  Name = 
REMARK  5 active torsions:
REMARK  status: ('A' for Active; 'I' for Inactive)
REMARK    1  A    between atoms: C_2  and  C_3
REMARK    2  A    between atoms: C_3  and  C_12
REMARK    3  A    between atoms: N_4  and  C_5
REMARK    4  A    between atoms: C_5  and  C_6
REMARK    5  A    between atoms: C_18  and  N_19
REMARK                            x       y       z     vdW  Elec       q    Type
REMARK                         _______ _______ _______ _____ _____    ______ ____
ROOT
ATOM      1  C   UNL     1     -17.000  41.823 -12.679  0.00  0.00    -0.006 C 
ATOM      2  C   UNL     1     -18.272  41.885 -13.546  0.00  0.00    +0.172 C 
ATOM      3  C   UNL     1     -19.430  41.150 -12.870  0.00  0.00    +0.059 C 
ATOM      4  C   UNL     1     -19.048  39.765 -12.488  0.00  0.00    +0.627 C 
ATOM      5  N   UNL     1     -19.995  38.852 -12.475  0.00  0.00    -0.906 N 
ATOM      6  N   UNL     1     -17.793  39.489 -12.198  0.00  0.00    -0.706 N 
ATOM      7  C   UNL     1     -16.653  40.334 -12.529  0.00  0.00    +0.461 C 
ATOM      8  H   UNL     1     -20.948  39.080 -12.742  0.00  0.00    +0.340 HD
ATOM      9  H   UNL     1     -19.795  37.880 -12.272  0.00  0.00    +0.354 HD
ATOM     10  H   UNL     1     -17.539  38.603 -11.779  0.00  0.00    +0.338 HD
ENDROOT
BRANCH   7  11
ATOM     11  N   UNL     1     -15.617  39.889 -11.646  0.00  0.00    -0.739 NA
ATOM     12  H   UNL     1     -15.669  40.349 -10.737  0.00  0.00    +0.321 HD
ATOM     13  H   UNL     1     -14.698  40.104 -12.033  0.00  0.00    +0.305 HD
ENDBRANCH   7  11
BRANCH   1  14
ATOM     14  C   UNL     1     -17.242  42.588 -11.393  0.00  0.00    +0.149 C 
ATOM     15  N   UNL     1     -17.474  41.951 -10.306  0.00  0.00    -0.354 NA
BRANCH  14  17
ATOM     16  N   UNL     1     -17.474  45.190 -11.479  0.00  0.00    -0.313 NA
ATOM     17  C   UNL     1     -17.350  44.040 -11.436  0.00  0.00    +0.189 C 
ENDBRANCH  14  17
BRANCH  15  18
ATOM     18  C   UNL     1     -17.794  42.573  -9.029  0.00  0.00    +0.223 C 
BRANCH  18  19
ATOM     19  C   UNL     1     -19.031  41.893  -8.492  0.00  0.00    +0.080 A 
ATOM     20  C   UNL     1     -19.596  40.827  -9.207  0.00  0.00    +0.058 A 
ATOM     21  C   UNL     1     -20.774  40.224  -8.767  0.00  0.00    +0.101 A 
ATOM     22  C   UNL     1     -21.404  40.686  -7.614  0.00  0.00    +0.091 A 
ATOM     23  C   UNL     1     -20.866  41.759  -6.906  0.00  0.00    +0.100 A 
ATOM     24  C   UNL     1     -19.686  42.366  -7.345  0.00  0.00    +0.057 A 
ENDBRANCH  18  19
ENDBRANCH  15  18
ENDBRANCH   1  14
TORSDOF 5
ENDMDL
MODEL 4
REMARK VINA RESULT:    -7.376      2.766      5.881
REMARK INTER + INTRA:          -9.515
REMARK INTER:                  -8.515
REMARK INTRA:                  -1.000
REMARK UNBOUND:                -0.199
REMARK  Name = 
REMARK  5 active torsions:
REMARK  status: ('A' for Active; 'I' for Inactive)
REMARK    1  A    between atoms: C_2  and  C_3
REMARK    2  A    between atoms: C_3  and  C_12
REMARK    3  A    between atoms: N_4  and  C_5
REMARK    4  A    between atoms: C_5  and  C_6
REMARK    5  A    between atoms: C_18  and  N_19
REMARK                            x       y       z     vdW  Elec       q    Type
REMARK                         _______ _______ _______ _____ _____    ______ ____
ROOT
ATOM      1  C   UNL     1     -17.811  40.547 -12.316  0.00  0.00    -0.006 C 
ATOM      2  C   UNL     1     -19.089  39.843 -11.821  0.00  0.00    +0.172 C 
ATOM      3  C   UNL     1     -19.568  40.450 -10.502  0.00  0.00    +0.059 C 
ATOM      4  C   UNL     1     -18.482  40.476  -9.486  0.00  0.00    +0.627 C 
ATOM      5  N   UNL     1     -18.826  40.378  -8.221  0.00  0.00    -0.906 N 
ATOM      6  N   UNL     1     -17.227  40.573  -9.875  0.00  0.00    -0.706 N 
ATOM      7  C   UNL     1     -16.749  40.328 -11.229  0.00  0.00    +0.461 C 
ATOM      8  H   UNL     1     -19.798  40.262  -7.948  0.00  0.00    +0.340 HD
ATOM      9  H   UNL     1     -18.135  40.339  -7.481  0.00  0.00    +0.354 HD
ATOM     10  H   UNL     1     -16.489  40.758  -9.205  0.00  0.00    +0.338 HD
ENDROOT
BRANCH   7  11
ATOM     11  N   UNL     1     -15.477  40.985 -11.276  0.00  0.00    -0.739 NA
ATOM     12  H   UNL     1     -14.742  40.422 -10.846  0.00  0.00    +0.321 HD
ATOM     13  H   UNL     1     -15.508  41.867 -10.765  0.00  0.00    +0.305 HD
ENDBRANCH   7  11
BRANCH   1  14
ATOM     14  C   UNL     1     -18.139  41.988 -12.652  0.00  0.00    +0.149 C 
ATOM     15  N   UNL     1     -17.665  42.935 -11.932  0.00  0.00    -0.354 NA
BRANCH  14  17
ATOM     16  N   UNL     1     -19.857  42.476 -14.561  0.00  0.00    -0.313 NA
ATOM     17  C   UNL     1     -19.108  42.274 -13.703  0.00  0.00    +0.189 C 
ENDBRANCH  14  17
BRANCH  15  18
ATOM     18  C   UNL     1     -17.969  44.349 -12.110  0.00  0.00    +0.223 C 
BRANCH  18  19
ATOM     19  C   UNL     1     -16.690  45.118 -11.876  0.00  0.00    +0.080 A 
ATOM     20  C   UNL     1     -16.750  46.498 -11.636  0.00  0.00    +0.058 A 
ATOM     21  C   UNL     1     -15.582  47.242 -11.482  0.00  0.00    +0.101 A 
ATOM     22  C   UNL     1     -14.340  46.617 -11.573  0.00  0.00    +0.091 A 
ATOM     23  C   UNL     1     -14.265  45.250 -11.833  0.00  0.00    +0.100 A 
ATOM     24  C   UNL     1     -15.435  44.501 -11.990  0.00  0.00    +0.057 A 
ENDBRANCH  18  19
ENDBRANCH  15  18
ENDBRANCH   1  14
TORSDOF 5
ENDMDL
MODEL 5
REMARK VINA RESULT:    -7.028      3.150      5.843
REMARK INTER + INTRA:          -9.076
REMARK INTER:                  -7.973
REMARK INTRA:                  -1.103
REMARK UNBOUND:                -0.199
REMARK  Name = 
REMARK  5 active torsions:
REMARK  status: ('A' for Active; 'I' for Inactive)
REMARK    1  A    between atoms: C_2  and  C_3
REMARK    2  A    between atoms: C_3  and  C_12
REMARK    3  A    between atoms: N_4  and  C_5
REMARK    4  A    between atoms: C_5  and  C_6
REMARK    5  A    between atoms: C_18  and  N_19
REMARK                            x       y       z     vdW  Elec       q    Type
REMARK                         _______ _______ _______ _____ _____    ______ ____
ROOT
ATOM      1  C   UNL     1     -16.489  40.955 -10.815  0.00  0.00    -0.006 C 
ATOM      2  C   UNL     1     -16.406  39.983 -12.006  0.00  0.00    +0.172 C 
ATOM      3  C   UNL     1     -17.701  40.004 -12.819  0.00  0.00    +0.059 C 
ATOM      4  C   UNL     1     -18.890  39.773 -11.957  0.00  0.00    +0.627 C 
ATOM      5  N   UNL     1     -19.931  39.179 -12.498  0.00  0.00    -0.906 N 
ATOM      6  N   UNL     1     -18.863  40.144 -10.693  0.00  0.00    -0.706 N 
ATOM      7  C   UNL     1     -17.657  40.469  -9.943  0.00  0.00    +0.461 C 
ATOM      8  H   UNL     1     -19.914  38.865 -13.464  0.00  0.00    +0.340 HD
ATOM      9  H   UNL     1     -20.755  38.947 -11.956  0.00  0.00    +0.354 HD
ATOM     10  H   UNL     1     -19.708  40.149 -10.135  0.00  0.00    +0.338 HD
ENDROOT
BRANCH   7  11
ATOM     11  N   UNL     1     -18.132  41.233  -8.828  0.00  0.00    -0.739 NA
ATOM     12  H   UNL     1     -18.240  42.221  -9.062  0.00  0.00    +0.321 HD
ATOM     13  H   UNL     1     -17.471  41.185  -8.052  0.00  0.00    +0.305 HD
ENDBRANCH   7  11
BRANCH   1  14
ATOM     14  C   UNL     1     -16.590  42.373 -11.340  0.00  0.00    +0.149 C 
ATOM     15  N   UNL     1     -17.726  42.964 -11.369  0.00  0.00    -0.354 NA
BRANCH  14  17
ATOM     16  N   UNL     1     -14.465  43.468 -12.399  0.00  0.00    -0.313 NA
ATOM     17  C   UNL     1     -15.419  42.996 -11.942  0.00  0.00    +0.189 C 
ENDBRANCH  14  17
BRANCH  15  18
ATOM     18  C   UNL     1     -17.961  44.292 -11.919  0.00  0.00    +0.223 C 
BRANCH  18  19
ATOM     19  C   UNL     1     -18.573  44.112 -13.287  0.00  0.00    +0.080 A 
ATOM     20  C   UNL     1     -18.319  45.062 -14.287  0.00  0.00    +0.058 A 
ATOM     21  C   UNL     1     -18.923  44.954 -15.538  0.00  0.00    +0.101 A 
ATOM     22  C   UNL     1     -19.795  43.900 -15.802  0.00  0.00    +0.091 A 
ATOM     23  C   UNL     1     -20.074  42.961 -14.811  0.00  0.00    +0.100 A 
ATOM     24  C   UNL     1     -19.471  43.067 -13.555  0.00  0.00    +0.057 A 
ENDBRANCH  18  19
ENDBRANCH  15  18
ENDBRANCH   1  14
TORSDOF 5
ENDMDL
