MODEL 1
REMARK VINA RESULT:    -7.981      0.000      0.000
REMARK INTER + INTRA:          -9.830
REMARK INTER:                  -9.380
REMARK INTRA:                  -0.450
REMARK UNBOUND:                -0.450
REMARK  Name = 
REMARK  4 active torsions:
REMARK  status: ('A' for Active; 'I' for Inactive)
REMARK    1  A    between atoms: C_1  and  C_2
REMARK    2  A    between atoms: C_2  and  N_4
REMARK    3  A    between atoms: C_7  and  N_8
REMARK    4  A    between atoms: C_9  and  C_11
REMARK                            x       y       z     vdW  Elec       q    Type
REMARK                         _______ _______ _______ _____ _____    ______ ____
ROOT
ATOM      1  N   UNL     1     -18.983  41.962 -11.459  0.00  0.00    -0.655 N 
ATOM      2  C   UNL     1     -18.179  42.154 -12.572  0.00  0.00    +0.571 C 
ATOM      3  O   UNL     1     -17.081  41.606 -12.702  0.00  0.00    -0.498 OA
ATOM      4  H   UNL     1     -19.947  42.282 -11.476  0.00  0.00    +0.326 HD
ENDROOT
BRANCH   2   5
ATOM      5  C   UNL     1     -18.711  43.012 -13.637  0.00  0.00    -0.159 C 
ATOM      6  C   UNL     1     -18.481  44.292 -13.712  0.00  0.00    +0.289 C 
ATOM      7  N   UNL     1     -18.786  45.422 -14.589  0.00  0.00    -0.571 N 
ATOM      8  C   UNL     1     -19.413  44.956 -15.765  0.00  0.00    +0.413 C 
ATOM      9  N   UNL     1     -19.369  45.597 -17.021  0.00  0.00    -0.490 NA
ATOM     10  C   UNL     1     -19.665  44.808 -17.844  0.00  0.00    +0.529 C 
ATOM     11  N   UNL     1     -20.049  43.557 -18.206  0.00  0.00    -0.452 NA
ATOM     12  C   UNL     1     -20.121  43.096 -17.125  0.00  0.00    +0.332 C 
ATOM     13  C   UNL     1     -19.944  43.478 -15.764  0.00  0.00    -0.122 C 
ATOM     14  C   UNL     1     -19.487  42.722 -14.798  0.00  0.00    +0.117 C 
ATOM     15  H   UNL     1     -18.068  46.107 -14.819  0.00  0.00    +0.335 HD
ENDBRANCH   2   5
BRANCH   1  19
ATOM     16  N   UNL     1     -20.428  40.893  -7.570  0.00  0.00    -0.590 N 
ATOM     17  C   UNL     1     -20.439  40.048  -8.798  0.00  0.00    +0.196 C 
ATOM     18  C   UNL     1     -19.601  40.079 -10.103  0.00  0.00    +0.013 C 
ATOM     19  C   UNL     1     -18.616  41.100 -10.438  0.00  0.00    +0.274 C 
ATOM     20  C   UNL     1     -18.317  41.764  -9.177  0.00  0.00    -0.001 C 
ATOM     21  C   UNL     1     -19.185  41.666  -7.896  0.00  0.00    +0.197 C 
ATOM     22  H   UNL     1     -20.267  40.321  -6.734  0.00  0.00    +0.302 HD
BRANCH  16  24
ATOM     23  C   UNL     1     -22.915  40.961  -7.457  0.00  0.00    +0.278 C 
ATOM     24  C   UNL     1     -21.626  41.768  -7.397  0.00  0.00    +0.298 C 
ATOM     25 CL   UNL     1     -21.484  42.513  -5.786  0.00  0.00    +0.067 Cl
ENDBRANCH  16  24
ENDBRANCH   1  19
TORSDOF 3
ENDMDL
MODEL 2
REMARK VINA RESULT:    -7.402      1.602      2.566
REMARK INTER + INTRA:          -9.150
REMARK INTER:                  -8.681
REMARK INTRA:                  -0.469
REMARK UNBOUND:                -0.450
REMARK  Name = 
REMARK  4 active torsions:
REMARK  status: ('A' for Active; 'I' for Inactive)
REMARK    1  A    between atoms: C_1  and  C_2
REMARK    2  A    between atoms: C_2  and  N_4
REMARK    3  A    between atoms: C_7  and  N_8
REMARK    4  A    between atoms: C_9  and  C_11
REMARK                            x       y       z     vdW  Elec       q    Type
REMARK                         _______ _______ _______ _____ _____    ______ ____
ROOT
ATOM      1  N   UNL     1     -18.432  41.855 -11.130  0.00  0.00    -0.655 N 
ATOM      2  C   UNL     1     -17.745  41.875 -12.334  0.00  0.00    +0.571 C 
ATOM      3  O   UNL     1     -17.086  40.914 -12.740  0.00  0.00    -0.498 OA
ATOM      4  H   UNL     1     -19.103  42.589 -10.924  0.00  0.00    +0.326 HD
ENDROOT
BRANCH   2   5
ATOM      5  C   UNL     1     -17.871  43.086 -13.152  0.00  0.00    -0.159 C 
ATOM      6  C   UNL     1     -18.890  43.328 -13.927  0.00  0.00    +0.289 C 
ATOM      7  N   UNL     1     -19.374  44.377 -14.824  0.00  0.00    -0.571 N 
ATOM      8  C   UNL     1     -18.545  45.516 -14.717  0.00  0.00    +0.413 C 
ATOM      9  N   UNL     1     -18.949  46.844 -14.965  0.00  0.00    -0.490 NA
ATOM     10  C   UNL     1     -18.168  47.564 -14.455  0.00  0.00    +0.529 C 
ATOM     11  N   UNL     1     -17.034  47.769 -13.736  0.00  0.00    -0.452 NA
ATOM     12  C   UNL     1     -16.722  46.641 -13.611  0.00  0.00    +0.332 C 
ATOM     13  C   UNL     1     -17.167  45.340 -13.983  0.00  0.00    -0.122 C 
ATOM     14  C   UNL     1     -17.049  44.245 -13.275  0.00  0.00    +0.117 C 
ATOM     15  H   UNL     1     -20.355  44.653 -14.816  0.00  0.00    +0.335 HD
ENDBRANCH   2   5
BRANCH   1  19
ATOM     16  N   UNL     1     -20.536  40.515  -7.647  0.00  0.00    -0.590 N 
ATOM     17  C   UNL     1     -20.674  39.995  -9.038  0.00  0.00    +0.196 C 
ATOM     18  C   UNL     1     -19.733  40.029 -10.271  0.00  0.00    +0.013 C 
ATOM     19  C   UNL     1     -18.455  40.728 -10.325  0.00  0.00    +0.274 C 
ATOM     20  C   UNL     1     -18.103  40.981  -8.935  0.00  0.00    -0.001 C 
ATOM     21  C   UNL     1     -19.090  40.900  -7.743  0.00  0.00    +0.197 C 
ATOM     22  H   UNL     1     -20.646  39.761  -6.962  0.00  0.00    +0.302 HD
BRANCH  16  24
ATOM     23  C   UNL     1     -22.889  41.263  -7.320  0.00  0.00    +0.278 C 
ATOM     24  C   UNL     1     -21.423  41.671  -7.317  0.00  0.00    +0.298 C 
ATOM     25 CL   UNL     1     -20.974  42.205  -5.678  0.00  0.00    +0.067 Cl
ENDBRANCH  16  24
ENDBRANCH   1  19
TORSDOF 3
ENDMDL
MODEL 3
REMARK VINA RESULT:    -7.145      1.731      2.425
REMARK INTER + INTRA:          -8.848
REMARK INTER:                  -8.499
REMARK INTRA:                  -0.349
REMARK UNBOUND:                -0.450
REMARK  Name = 
REMARK  4 active torsions:
REMARK  status: ('A' for Active; 'I' for Inactive)
REMARK    1  A    between atoms: C_1  and  C_2
REMARK    2  A    between atoms: C_2  and  N_4
REMARK    3  A    between atoms: C_7  and  N_8
REMARK    4  A    between atoms: C_9  and  C_11
REMARK                            x       y       z     vdW  Elec       q    Type
REMARK                         _______ _______ _______ _____ _____    ______ ____
ROOT
ATOM      1  N   UNL     1     -18.261  42.526 -12.713  0.00  0.00    -0.655 N 
ATOM      2  C   UNL     1     -17.982  43.600 -13.543  0.00  0.00    +0.571 C 
ATOM      3  O   UNL     1     -16.993  44.321 -13.387  0.00  0.00    -0.498 OA
ATOM      4  H   UNL     1     -18.975  41.856 -12.984  0.00  0.00    +0.326 HD
ENDROOT
BRANCH   2   5
ATOM      5  C   UNL     1     -18.895  43.827 -14.668  0.00  0.00    -0.159 C 
ATOM      6  C   UNL     1     -19.820  42.981 -15.025  0.00  0.00    +0.289 C 
ATOM      7  N   UNL     1     -20.891  42.865 -16.014  0.00  0.00    -0.571 N 
ATOM      8  C   UNL     1     -21.039  44.089 -16.703  0.00  0.00    +0.413 C 
ATOM      9  N   UNL     1     -22.232  44.550 -17.297  0.00  0.00    -0.490 NA
ATOM     10  C   UNL     1     -22.132  45.713 -17.462  0.00  0.00    +0.529 C 
ATOM     11  N   UNL     1     -21.422  46.868 -17.376  0.00  0.00    -0.452 NA
ATOM     12  C   UNL     1     -20.432  46.411 -16.931  0.00  0.00    +0.332 C 
ATOM     13  C   UNL     1     -19.893  45.151 -16.542  0.00  0.00    -0.122 C 
ATOM     14  C   UNL     1     -19.064  44.932 -15.553  0.00  0.00    +0.117 C 
ATOM     15  H   UNL     1     -21.803  42.497 -15.748  0.00  0.00    +0.335 HD
ENDBRANCH   2   5
BRANCH   1  19
ATOM     16  N   UNL     1     -18.631  41.276  -8.631  0.00  0.00    -0.590 N 
ATOM     17  C   UNL     1     -18.189  40.448  -9.789  0.00  0.00    +0.196 C 
ATOM     18  C   UNL     1     -17.587  40.811 -11.172  0.00  0.00    +0.013 C 
ATOM     19  C   UNL     1     -17.414  42.168 -11.676  0.00  0.00    +0.274 C 
ATOM     20  C   UNL     1     -17.515  43.024 -10.502  0.00  0.00    -0.001 C 
ATOM     21  C   UNL     1     -18.103  42.586  -9.136  0.00  0.00    +0.197 C 
ATOM     22  H   UNL     1     -18.128  41.010  -7.778  0.00  0.00    +0.302 HD
BRANCH  16  24
ATOM     23  C   UNL     1     -20.728  39.934  -8.667  0.00  0.00    +0.278 C 
ATOM     24  C   UNL     1     -20.106  41.297  -8.399  0.00  0.00    +0.298 C 
ATOM     25 CL   UNL     1     -20.346  41.715  -6.684  0.00  0.00    +0.067 Cl
ENDBRANCH  16  24
ENDBRANCH   1  19
TORSDOF 3
ENDMDL
MODEL 4
REMARK VINA RESULT:    -7.003      3.791      8.808
REMARK INTER + INTRA:          -8.682
REMARK INTER:                  -8.195
REMARK INTRA:                  -0.486
REMARK UNBOUND:                -0.450
REMARK  Name = 
REMARK  4 active torsions:
REMARK  status: ('A' for Active; 'I' for Inactive)
REMARK    1  A    between atoms: C_1  and  C_2
REMARK    2  A    between atoms: C_2  and  N_4
REMARK    3  A    between atoms: C_7  and  N_8
REMARK    4  A    between atoms: C_9  and  C_11
REMARK                            x       y       z     vdW  Elec       q    Type
REMARK                         _______ _______ _______ _____ _____    ______ ____
ROOT
ATOM      1  N   UNL     1     -19.138  44.139 -15.791  0.00  0.00    -0.655 N 
ATOM      2  C   UNL     1     -19.846  43.234 -15.016  0.00  0.00    +0.571 C 
ATOM      3  O   UNL     1     -20.950  42.796 -15.348  0.00  0.00    -0.498 OA
ATOM      4  H   UNL     1     -18.164  44.330 -15.575  0.00  0.00    +0.326 HD
ENDROOT
BRANCH   2   5
ATOM      5  C   UNL     1     -19.202  42.767 -13.784  0.00  0.00    -0.159 C 
ATOM      6  C   UNL     1     -18.502  43.538 -13.000  0.00  0.00    +0.289 C 
ATOM      7  N   UNL     1     -17.772  43.462 -11.736  0.00  0.00    -0.571 N 
ATOM      8  C   UNL     1     -17.999  42.207 -11.129  0.00  0.00    +0.413 C 
ATOM      9  N   UNL     1     -17.944  41.950  -9.744  0.00  0.00    -0.490 NA
ATOM     10  C   UNL     1     -18.516  40.940  -9.537  0.00  0.00    +0.529 C 
ATOM     11  N   UNL     1     -19.215  39.860  -9.973  0.00  0.00    -0.452 NA
ATOM     12  C   UNL     1     -19.177  40.104 -11.125  0.00  0.00    +0.332 C 
ATOM     13  C   UNL     1     -18.652  41.085 -12.014  0.00  0.00    -0.122 C 
ATOM     14  C   UNL     1     -19.204  41.502 -13.125  0.00  0.00    +0.117 C 
ATOM     15  H   UNL     1     -17.852  44.207 -11.046  0.00  0.00    +0.335 HD
ENDBRANCH   2   5
BRANCH   1  19
ATOM     16  N   UNL     1     -17.492  45.421 -19.534  0.00  0.00    -0.590 N 
ATOM     17  C   UNL     1     -18.233  44.156 -19.263  0.00  0.00    +0.196 C 
ATOM     18  C   UNL     1     -19.242  43.746 -18.158  0.00  0.00    +0.013 C 
ATOM     19  C   UNL     1     -19.614  44.574 -17.018  0.00  0.00    +0.274 C 
ATOM     20  C   UNL     1     -19.193  45.922 -17.376  0.00  0.00    -0.001 C 
ATOM     21  C   UNL     1     -18.199  46.265 -18.516  0.00  0.00    +0.197 C 
ATOM     22  H   UNL     1     -17.700  45.772 -20.474  0.00  0.00    +0.302 HD
BRANCH  16  24
ATOM     23  C   UNL     1     -15.241  45.731 -20.554  0.00  0.00    +0.278 C 
ATOM     24  C   UNL     1     -16.018  45.348 -19.302  0.00  0.00    +0.298 C 
ATOM     25 CL   UNL     1     -15.647  46.518 -18.011  0.00  0.00    +0.067 Cl
ENDBRANCH  16  24
ENDBRANCH   1  19
TORSDOF 3
ENDMDL
MODEL 5
REMARK VINA RESULT:    -6.497      4.245      8.728
REMARK INTER + INTRA:          -8.086
REMARK INTER:                  -7.481
REMARK INTRA:                  -0.605
REMARK UNBOUND:                -0.450
REMARK  Name = 
REMARK  4 active torsions:
REMARK  status: ('A' for Active; 'I' for Inactive)
REMARK    1  A    between atoms: C_1  and  C_2
REMARK    2  A    between atoms: C_2  and  N_4
REMARK    3  A    between atoms: C_7  and  N_8
REMARK    4  A    between atoms: C_9  and  C_11
REMARK                            x       y       z     vdW  Elec       q    Type
REMARK                         _______ _______ _______ _____ _____    ______ ____
ROOT
ATOM      1  N   UNL     1     -18.767  44.840 -15.606  0.00  0.00    -0.655 N 
ATOM      2  C   UNL     1     -18.465  44.811 -14.254  0.00  0.00    +0.571 C 
ATOM      3  O   UNL     1     -18.577  45.801 -13.526  0.00  0.00    -0.498 OA
ATOM      4  H   UNL     1     -18.836  43.968 -16.123  0.00  0.00    +0.326 HD
ENDROOT
BRANCH   2   5
ATOM      5  C   UNL     1     -18.044  43.522 -13.693  0.00  0.00    -0.159 C 
ATOM      6  C   UNL     1     -16.878  43.321 -13.148  0.00  0.00    +0.289 C 
ATOM      7  N   UNL     1     -16.137  42.250 -12.483  0.00  0.00    -0.571 N 
ATOM      8  C   UNL     1     -16.990  41.147 -12.261  0.00  0.00    +0.413 C 
ATOM      9  N   UNL     1     -16.844  40.199 -11.227  0.00  0.00    -0.490 NA
ATOM     10  C   UNL     1     -17.875  39.644 -11.092  0.00  0.00    +0.529 C 
ATOM     11  N   UNL     1     -19.170  39.442 -11.447  0.00  0.00    -0.452 NA
ATOM     12  C   UNL     1     -19.211  40.212 -12.336  0.00  0.00    +0.332 C 
ATOM     13  C   UNL     1     -18.367  41.134 -13.018  0.00  0.00    -0.122 C 
ATOM     14  C   UNL     1     -18.727  42.280 -13.539  0.00  0.00    +0.117 C 
ATOM     15  H   UNL     1     -15.585  42.443 -11.649  0.00  0.00    +0.335 HD
ENDBRANCH   2   5
BRANCH   1  19
ATOM     16  N   UNL     1     -18.902  46.492 -19.557  0.00  0.00    -0.590 N 
ATOM     17  C   UNL     1     -20.046  45.956 -18.766  0.00  0.00    +0.196 C 
ATOM     18  C   UNL     1     -20.268  45.752 -17.244  0.00  0.00    +0.013 C 
ATOM     19  C   UNL     1     -19.260  45.982 -16.216  0.00  0.00    +0.274 C 
ATOM     20  C   UNL     1     -18.242  46.800 -16.861  0.00  0.00    -0.001 C 
ATOM     21  C   UNL     1     -18.095  46.985 -18.394  0.00  0.00    +0.197 C 
ATOM     22  H   UNL     1     -19.196  47.287 -20.133  0.00  0.00    +0.302 HD
BRANCH  16  24
ATOM     23  C   UNL     1     -16.684  45.777 -20.434  0.00  0.00    +0.278 C 
ATOM     24  C   UNL     1     -18.175  45.477 -20.377  0.00  0.00    +0.298 C 
ATOM     25 CL   UNL     1     -18.419  43.905 -19.576  0.00  0.00    +0.067 Cl
ENDBRANCH  16  24
ENDBRANCH   1  19
TORSDOF 3
ENDMDL
