MODEL 1
REMARK VINA RESULT:    -7.101      0.000      0.000
REMARK INTER + INTRA:          -7.940
REMARK INTER:                  -7.931
REMARK INTRA:                  -0.009
REMARK UNBOUND:                -0.009
REMARK  Name = 
REMARK  3 active torsions:
REMARK  status: ('A' for Active; 'I' for Inactive)
REMARK    1  A    between atoms: C_1  and  C_2
REMARK    2  A    between atoms: C_2  and  C_3
REMARK    3  A    between atoms: C_2  and  N_9
REMARK                            x       y       z     vdW  Elec       q    Type
REMARK                         _______ _______ _______ _____ _____    ______ ____
ROOT
ATOM      1  N   UNL     1     -17.776  40.691 -11.722  0.00  0.00    -0.395 N 
ATOM      2  C   UNL     1     -16.309  40.683 -11.757  0.00  0.00    +0.254 C 
ATOM      3  C   UNL     1     -15.734  42.040 -11.339  0.00  0.00    +0.169 C 
ATOM      4  C   UNL     1     -16.345  43.191 -12.143  0.00  0.00    +0.179 C 
ATOM      5  C   UNL     1     -17.852  43.199 -11.966  0.00  0.00    +0.295 C 
ATOM      6  F   UNL     1     -18.136  43.557 -10.684  0.00  0.00    -0.286 F 
ATOM      7  F   UNL     1     -18.409  44.155 -12.758  0.00  0.00    -0.287 F 
ATOM      8  C   UNL     1     -18.430  41.796 -12.271  0.00  0.00    +0.352 C 
ATOM      9  N   UNL     1     -19.510  41.599 -12.986  0.00  0.00    -0.527 NA
ATOM     10  H   UNL     1     -19.831  42.539 -13.287  0.00  0.00    +0.317 HD
ENDROOT
BRANCH   1  12
ATOM     11  C   UNL     1     -19.552  38.933 -11.792  0.00  0.00    +0.194 C 
ATOM     12  C   UNL     1     -18.539  39.705 -10.938  0.00  0.00    +0.219 C 
BRANCH  12  13
ATOM     13  C   UNL     1     -19.168  40.357  -9.723  0.00  0.00    +0.253 A 
ATOM     14  C   UNL     1     -18.456  41.186  -8.837  0.00  0.00    +0.008 A 
ATOM     15  C   UNL     1     -19.086  41.762  -7.747  0.00  0.00    +0.140 A 
ATOM     16  C   UNL     1     -20.439  41.518  -7.552  0.00  0.00    +0.061 A 
ATOM     17  C   UNL     1     -21.128  40.704  -8.451  0.00  0.00    +0.315 A 
ATOM     18  N   UNL     1     -20.481  40.142  -9.496  0.00  0.00    -0.586 N 
ATOM     19  H   UNL     1     -20.984  39.522 -10.155  0.00  0.00    +0.323 HD
ENDBRANCH  12  13
ENDBRANCH   1  12
TORSDOF 2
ENDMDL
MODEL 2
REMARK VINA RESULT:    -7.010      1.646      2.305
REMARK INTER + INTRA:          -7.839
REMARK INTER:                  -7.336
REMARK INTRA:                  -0.503
REMARK UNBOUND:                -0.009
REMARK  Name = 
REMARK  3 active torsions:
REMARK  status: ('A' for Active; 'I' for Inactive)
REMARK    1  A    between atoms: C_1  and  C_2
REMARK    2  A    between atoms: C_2  and  C_3
REMARK    3  A    between atoms: C_2  and  N_9
REMARK                            x       y       z     vdW  Elec       q    Type
REMARK                         _______ _______ _______ _____ _____    ______ ____
ROOT
ATOM      1  N   UNL     1     -18.548  41.659 -11.236  0.00  0.00    -0.395 N 
ATOM      2  C   UNL     1     -19.627  42.111 -12.122  0.00  0.00    +0.254 C 
ATOM      3  C   UNL     1     -19.175  42.132 -13.585  0.00  0.00    +0.169 C 
ATOM      4  C   UNL     1     -17.878  42.924 -13.772  0.00  0.00    +0.179 C 
ATOM      5  C   UNL     1     -16.783  42.326 -12.909  0.00  0.00    +0.295 C 
ATOM      6  F   UNL     1     -16.452  41.105 -13.410  0.00  0.00    -0.286 F 
ATOM      7  F   UNL     1     -15.657  43.086 -12.992  0.00  0.00    -0.287 F 
ATOM      8  C   UNL     1     -17.273  42.190 -11.447  0.00  0.00    +0.352 C 
ATOM      9  N   UNL     1     -16.547  42.516 -10.407  0.00  0.00    -0.527 NA
ATOM     10  H   UNL     1     -15.651  42.880 -10.785  0.00  0.00    +0.317 HD
ENDROOT
BRANCH   1  12
ATOM     11  C   UNL     1     -19.259  39.272 -11.025  0.00  0.00    +0.194 C 
ATOM     12  C   UNL     1     -18.724  40.522 -10.317  0.00  0.00    +0.219 C 
BRANCH  12  13
ATOM     13  C   UNL     1     -19.561  40.926  -9.119  0.00  0.00    +0.253 A 
ATOM     14  C   UNL     1     -19.088  41.767  -8.095  0.00  0.00    +0.008 A 
ATOM     15  C   UNL     1     -19.901  42.108  -7.029  0.00  0.00    +0.140 A 
ATOM     16  C   UNL     1     -21.199  41.617  -6.995  0.00  0.00    +0.061 A 
ATOM     17  C   UNL     1     -21.652  40.797  -8.028  0.00  0.00    +0.315 A 
ATOM     18  N   UNL     1     -20.828  40.466  -9.048  0.00  0.00    -0.586 N 
ATOM     19  H   UNL     1     -21.153  39.843  -9.807  0.00  0.00    +0.323 HD
ENDBRANCH  12  13
ENDBRANCH   1  12
TORSDOF 2
ENDMDL
MODEL 3
REMARK VINA RESULT:    -6.625      2.614      5.130
REMARK INTER + INTRA:          -7.409
REMARK INTER:                  -6.794
REMARK INTRA:                  -0.615
REMARK UNBOUND:                -0.009
REMARK  Name = 
REMARK  3 active torsions:
REMARK  status: ('A' for Active; 'I' for Inactive)
REMARK    1  A    between atoms: C_1  and  C_2
REMARK    2  A    between atoms: C_2  and  C_3
REMARK    3  A    between atoms: C_2  and  N_9
REMARK                            x       y       z     vdW  Elec       q    Type
REMARK                         _______ _______ _______ _____ _____    ______ ____
ROOT
ATOM      1  N   UNL     1     -17.877  42.172 -11.676  0.00  0.00    -0.395 N 
ATOM      2  C   UNL     1     -18.115  42.297 -10.233  0.00  0.00    +0.254 C 
ATOM      3  C   UNL     1     -18.094  40.929  -9.545  0.00  0.00    +0.169 C 
ATOM      4  C   UNL     1     -19.039  39.933 -10.223  0.00  0.00    +0.179 C 
ATOM      5  C   UNL     1     -18.657  39.775 -11.683  0.00  0.00    +0.295 C 
ATOM      6  F   UNL     1     -17.460  39.132 -11.752  0.00  0.00    -0.286 F 
ATOM      7  F   UNL     1     -19.556  38.970 -12.315  0.00  0.00    -0.287 F 
ATOM      8  C   UNL     1     -18.559  41.163 -12.360  0.00  0.00    +0.352 C 
ATOM      9  N   UNL     1     -19.053  41.427 -13.544  0.00  0.00    -0.527 NA
ATOM     10  H   UNL     1     -19.508  40.551 -13.867  0.00  0.00    +0.317 HD
ENDROOT
BRANCH   1  12
ATOM     11  C   UNL     1     -15.530  43.011 -11.490  0.00  0.00    +0.194 C 
ATOM     12  C   UNL     1     -16.795  42.909 -12.350  0.00  0.00    +0.219 C 
BRANCH  12  13
ATOM     13  C   UNL     1     -17.286  44.257 -12.838  0.00  0.00    +0.253 A 
ATOM     14  C   UNL     1     -17.252  45.422 -12.049  0.00  0.00    +0.008 A 
ATOM     15  C   UNL     1     -17.708  46.629 -12.550  0.00  0.00    +0.140 A 
ATOM     16  C   UNL     1     -18.186  46.673 -13.853  0.00  0.00    +0.061 A 
ATOM     17  C   UNL     1     -18.197  45.509 -14.622  0.00  0.00    +0.315 A 
ATOM     18  N   UNL     1     -17.762  44.342 -14.098  0.00  0.00    -0.586 N 
ATOM     19  H   UNL     1     -17.785  43.471 -14.659  0.00  0.00    +0.323 HD
ENDBRANCH  12  13
ENDBRANCH   1  12
TORSDOF 2
ENDMDL
MODEL 4
REMARK VINA RESULT:    -5.645      3.587      6.583
REMARK INTER + INTRA:          -6.314
REMARK INTER:                  -5.647
REMARK INTRA:                  -0.667
REMARK UNBOUND:                -0.009
REMARK  Name = 
REMARK  3 active torsions:
REMARK  status: ('A' for Active; 'I' for Inactive)
REMARK    1  A    between atoms: C_1  and  C_2
REMARK    2  A    between atoms: C_2  and  C_3
REMARK    3  A    between atoms: C_2  and  N_9
REMARK                            x       y       z     vdW  Elec       q    Type
REMARK                         _______ _______ _______ _____ _____    ______ ____
ROOT
ATOM      1  N   UNL     1     -17.309  43.576 -13.183  0.00  0.00    -0.395 N 
ATOM      2  C   UNL     1     -18.457  42.822 -13.699  0.00  0.00    +0.254 C 
ATOM      3  C   UNL     1     -18.937  41.776 -12.689  0.00  0.00    +0.169 C 
ATOM      4  C   UNL     1     -17.794  40.874 -12.213  0.00  0.00    +0.179 C 
ATOM      5  C   UNL     1     -16.698  41.720 -11.591  0.00  0.00    +0.295 C 
ATOM      6  F   UNL     1     -17.162  42.242 -10.423  0.00  0.00    -0.286 F 
ATOM      7  F   UNL     1     -15.636  40.935 -11.260  0.00  0.00    -0.287 F 
ATOM      8  C   UNL     1     -16.289  42.855 -12.560  0.00  0.00    +0.352 C 
ATOM      9  N   UNL     1     -15.045  43.190 -12.797  0.00  0.00    -0.527 NA
ATOM     10  H   UNL     1     -14.460  42.538 -12.239  0.00  0.00    +0.317 HD
ENDROOT
BRANCH   1  12
ATOM     11  C   UNL     1     -18.571  45.585 -12.395  0.00  0.00    +0.194 C 
ATOM     12  C   UNL     1     -17.321  45.047 -13.101  0.00  0.00    +0.219 C 
BRANCH  12  13
ATOM     13  C   UNL     1     -17.106  45.662 -14.469  0.00  0.00    +0.253 A 
ATOM     14  C   UNL     1     -18.145  46.218 -15.238  0.00  0.00    +0.008 A 
ATOM     15  C   UNL     1     -17.887  46.774 -16.479  0.00  0.00    +0.140 A 
ATOM     16  C   UNL     1     -16.580  46.788 -16.945  0.00  0.00    +0.061 A 
ATOM     17  C   UNL     1     -15.563  46.244 -16.161  0.00  0.00    +0.315 A 
ATOM     18  N   UNL     1     -15.849  45.692 -14.960  0.00  0.00    -0.586 N 
ATOM     19  H   UNL     1     -15.100  45.271 -14.383  0.00  0.00    +0.323 HD
ENDBRANCH  12  13
ENDBRANCH   1  12
TORSDOF 2
ENDMDL
MODEL 5
REMARK VINA RESULT:    -5.496     12.368     14.875
REMARK INTER + INTRA:          -6.147
REMARK INTER:                  -5.577
REMARK INTRA:                  -0.570
REMARK UNBOUND:                -0.009
REMARK  Name = 
REMARK  3 active torsions:
REMARK  status: ('A' for Active; 'I' for Inactive)
REMARK    1  A    between atoms: C_1  and  C_2
REMARK    2  A    between atoms: C_2  and  C_3
REMARK    3  A    between atoms: C_2  and  N_9
REMARK                            x       y       z     vdW  Elec       q    Type
REMARK                         _______ _______ _______ _____ _____    ______ ____
ROOT
ATOM      1  N   UNL     1     -20.917  34.607   2.010  0.00  0.00    -0.395 N 
ATOM      2  C   UNL     1     -21.641  35.153   3.164  0.00  0.00    +0.254 C 
ATOM      3  C   UNL     1     -22.319  34.043   3.973  0.00  0.00    +0.169 C 
ATOM      4  C   UNL     1     -23.190  33.143   3.091  0.00  0.00    +0.179 C 
ATOM      5  C   UNL     1     -22.345  32.530   1.990  0.00  0.00    +0.295 C 
ATOM      6  F   UNL     1     -21.482  31.639   2.551  0.00  0.00    -0.286 F 
ATOM      7  F   UNL     1     -23.133  31.812   1.143  0.00  0.00    -0.287 F 
ATOM      8  C   UNL     1     -21.562  33.635   1.242  0.00  0.00    +0.352 C 
ATOM      9  N   UNL     1     -21.450  33.686  -0.062  0.00  0.00    -0.527 NA
ATOM     10  H   UNL     1     -21.994  32.882  -0.429  0.00  0.00    +0.317 HD
ENDROOT
BRANCH   1  12
ATOM     11  C   UNL     1     -18.665  34.774   3.083  0.00  0.00    +0.194 C 
ATOM     12  C   UNL     1     -19.486  34.880   1.793  0.00  0.00    +0.219 C 
BRANCH  12  13
ATOM     13  C   UNL     1     -19.295  36.204   1.080  0.00  0.00    +0.253 A 
ATOM     14  C   UNL     1     -18.135  36.990   1.209  0.00  0.00    +0.008 A 
ATOM     15  C   UNL     1     -18.013  38.188   0.527  0.00  0.00    +0.140 A 
ATOM     16  C   UNL     1     -19.052  38.594  -0.300  0.00  0.00    +0.061 A 
ATOM     17  C   UNL     1     -20.187  37.793  -0.424  0.00  0.00    +0.315 A 
ATOM     18  N   UNL     1     -20.284  36.636   0.269  0.00  0.00    -0.586 N 
ATOM     19  H   UNL     1     -21.132  36.048   0.195  0.00  0.00    +0.323 HD
ENDBRANCH  12  13
ENDBRANCH   1  12
TORSDOF 2
ENDMDL
