MODEL 1
REMARK VINA RESULT:    -7.112      0.000      0.000
REMARK INTER + INTRA:         -10.610
REMARK INTER:                  -9.399
REMARK INTRA:                  -1.212
REMARK UNBOUND:                -1.212
REMARK  Name = 
REMARK  7 active torsions:
REMARK  status: ('A' for Active; 'I' for Inactive)
REMARK    1  A    between atoms: C_1  and  C_2
REMARK    2  A    between atoms: C_6  and  C_7
REMARK    3  A    between atoms: C_10  and  N_11
REMARK    4  A    between atoms: C_14  and  C_15
REMARK    5  A    between atoms: N_17  and  C_18
REMARK    6  A    between atoms: C_18  and  C_19
REMARK    7  A    between atoms: C_25  and  N_26
REMARK                            x       y       z     vdW  Elec       q    Type
REMARK                         _______ _______ _______ _____ _____    ______ ____
ROOT
ATOM      1  C   UNL     1     -35.168  42.576   6.648  0.00  0.00    +0.460 C 
ATOM      2  O   UNL     1     -36.069  42.184   7.398  0.00  0.00    -0.531 OA
ATOM      3  N   UNL     1     -33.958  41.848   6.447  0.00  0.00    -0.548 N 
ATOM      4  C   UNL     1     -33.839  40.539   6.928  0.00  0.00    +0.505 C 
ATOM      5  C   UNL     1     -32.674  39.877   6.843  0.00  0.00    -0.057 C 
ATOM      6  C   UNL     1     -31.411  40.378   6.238  0.00  0.00    +0.160 C 
ATOM      7  C   UNL     1     -31.582  41.671   5.460  0.00  0.00    -0.009 C 
ATOM      8  C   UNL     1     -32.765  42.535   5.903  0.00  0.00    +0.324 C 
ENDROOT
BRANCH   1  14
ATOM      9  C   UNL     1     -35.873  45.071   2.978  0.00  0.00    +0.107 C 
ATOM     10  C   UNL     1     -36.905  44.948   4.103  0.00  0.00    +0.110 C 
ATOM     11  C   UNL     1     -36.978  46.206   4.973  0.00  0.00    +0.051 C 
ATOM     12  C   UNL     1     -35.759  46.373   5.876  0.00  0.00    +0.080 C 
ATOM     13  C   UNL     1     -35.483  45.119   6.711  0.00  0.00    +0.131 C 
ATOM     14  C   UNL     1     -35.371  43.863   5.829  0.00  0.00    +0.030 C 
ATOM     15  C   UNL     1     -36.641  43.717   4.977  0.00  0.00    +0.090 C 
ENDBRANCH   1  14
BRANCH   7  16
ATOM     16  C   UNL     1     -31.630  41.423   3.962  0.00  0.00    +0.493 C 
ATOM     17  O   UNL     1     -32.033  42.297   3.198  0.00  0.00    -0.522 OA
ATOM     18  N   UNL     1     -31.209  40.192   3.526  0.00  0.00    -0.644 N 
ATOM     19  H   UNL     1     -30.950  39.470   4.187  0.00  0.00    +0.289 HD
BRANCH  18  20
ATOM     20  C   UNL     1     -31.184  39.864   2.116  0.00  0.00    +0.276 C 
BRANCH  20  21
ATOM     21  C   UNL     1     -29.814  40.012   1.527  0.00  0.00    +0.003 C 
ATOM     22  C   UNL     1     -29.441  41.202   0.895  0.00  0.00    -0.014 C 
ATOM     23  C   UNL     1     -28.167  41.349   0.353  0.00  0.00    -0.021 C 
ATOM     24  C   UNL     1     -27.252  40.303   0.440  0.00  0.00    -0.032 C 
ATOM     25  C   UNL     1     -27.611  39.117   1.073  0.00  0.00    -0.037 C 
ATOM     26  C   UNL     1     -28.887  38.970   1.611  0.00  0.00    -0.033 C 
ENDBRANCH  20  21
ENDBRANCH  18  20
ENDBRANCH   7  16
BRANCH   4  27
ATOM     27  N   UNL     1     -34.904  39.861   7.473  0.00  0.00    -0.827 N 
ATOM     28  H   UNL     1     -35.510  39.478   6.736  0.00  0.00    +0.362 HD
ATOM     29  H   UNL     1     -35.440  40.393   8.152  0.00  0.00    +0.308 HD
ENDBRANCH   4  27
BRANCH   8  30
ATOM     30  N   UNL     1     -32.315  43.598   6.829  0.00  0.00    -0.301 NA
ATOM     31  N   UNL     1     -31.877  44.643   6.320  0.00  0.00    +0.008 NA
ATOM     32  N   UNL     1     -31.496  45.614   5.863  0.00  0.00    -0.214 NA
ENDBRANCH   8  30
TORSDOF 6
ENDMDL
MODEL 2
REMARK VINA RESULT:    -6.791     21.753     24.236
REMARK INTER + INTRA:         -10.187
REMARK INTER:                  -8.952
REMARK INTRA:                  -1.235
REMARK UNBOUND:                -1.212
REMARK  Name = 
REMARK  7 active torsions:
REMARK  status: ('A' for Active; 'I' for Inactive)
REMARK    1  A    between atoms: C_1  and  C_2
REMARK    2  A    between atoms: C_6  and  C_7
REMARK    3  A    between atoms: C_10  and  N_11
REMARK    4  A    between atoms: C_14  and  C_15
REMARK    5  A    between atoms: N_17  and  C_18
REMARK    6  A    between atoms: C_18  and  C_19
REMARK    7  A    between atoms: C_25  and  N_26
REMARK                            x       y       z     vdW  Elec       q    Type
REMARK                         _______ _______ _______ _____ _____    ______ ____
ROOT
ATOM      1  C   UNL     1     -16.193  44.663 -12.004  0.00  0.00    +0.460 C 
ATOM      2  O   UNL     1     -15.098  44.399 -11.495  0.00  0.00    -0.531 OA
ATOM      3  N   UNL     1     -16.458  45.892 -12.676  0.00  0.00    -0.548 N 
ATOM      4  C   UNL     1     -15.407  46.765 -12.981  0.00  0.00    +0.505 C 
ATOM      5  C   UNL     1     -15.647  47.973 -13.516  0.00  0.00    -0.057 C 
ATOM      6  C   UNL     1     -16.976  48.534 -13.879  0.00  0.00    +0.160 C 
ATOM      7  C   UNL     1     -18.101  47.513 -13.828  0.00  0.00    -0.009 C 
ATOM      8  C   UNL     1     -17.856  46.335 -12.882  0.00  0.00    +0.324 C 
ENDROOT
BRANCH   1  14
ATOM      9  C   UNL     1     -19.604  42.228 -13.625  0.00  0.00    +0.107 C 
ATOM     10  C   UNL     1     -18.240  41.618 -13.289  0.00  0.00    +0.110 C 
ATOM     11  C   UNL     1     -18.268  40.795 -11.997  0.00  0.00    +0.051 C 
ATOM     12  C   UNL     1     -18.380  41.662 -10.746  0.00  0.00    +0.080 C 
ATOM     13  C   UNL     1     -17.308  42.755 -10.704  0.00  0.00    +0.131 C 
ATOM     14  C   UNL     1     -17.310  43.604 -11.987  0.00  0.00    +0.030 C 
ATOM     15  C   UNL     1     -17.148  42.688 -13.209  0.00  0.00    +0.090 C 
ENDBRANCH   1  14
BRANCH   7  16
ATOM     16  C   UNL     1     -18.473  47.019 -15.215  0.00  0.00    +0.493 C 
ATOM     17  O   UNL     1     -18.395  47.769 -16.186  0.00  0.00    -0.522 OA
ATOM     18  N   UNL     1     -18.894  45.717 -15.316  0.00  0.00    -0.644 N 
ATOM     19  H   UNL     1     -19.016  45.147 -14.487  0.00  0.00    +0.289 HD
BRANCH  18  20
ATOM     20  C   UNL     1     -19.242  45.138 -16.596  0.00  0.00    +0.276 C 
BRANCH  20  21
ATOM     21  C   UNL     1     -20.726  45.080 -16.805  0.00  0.00    +0.003 C 
ATOM     22  C   UNL     1     -21.438  43.918 -16.493  0.00  0.00    -0.014 C 
ATOM     23  C   UNL     1     -22.817  43.862 -16.677  0.00  0.00    -0.021 C 
ATOM     24  C   UNL     1     -23.496  44.970 -17.173  0.00  0.00    -0.032 C 
ATOM     25  C   UNL     1     -22.798  46.134 -17.479  0.00  0.00    -0.037 C 
ATOM     26  C   UNL     1     -21.418  46.188 -17.300  0.00  0.00    -0.033 C 
ENDBRANCH  20  21
ENDBRANCH  18  20
ENDBRANCH   7  16
BRANCH   4  27
ATOM     27  N   UNL     1     -14.090  46.421 -12.781  0.00  0.00    -0.827 N 
ATOM     28  H   UNL     1     -13.470  47.214 -12.988  0.00  0.00    +0.362 HD
ATOM     29  H   UNL     1     -13.795  45.583 -13.272  0.00  0.00    +0.308 HD
ENDBRANCH   4  27
BRANCH   8  30
ATOM     30  N   UNL     1     -18.520  46.567 -11.580  0.00  0.00    -0.301 NA
ATOM     31  N   UNL     1     -18.825  47.738 -11.302  0.00  0.00    +0.008 NA
ATOM     32  N   UNL     1     -19.130  48.805 -11.048  0.00  0.00    -0.214 NA
ENDBRANCH   8  30
TORSDOF 6
ENDMDL
MODEL 3
REMARK VINA RESULT:    -6.591     22.568     25.171
REMARK INTER + INTRA:          -9.922
REMARK INTER:                  -7.628
REMARK INTRA:                  -2.294
REMARK UNBOUND:                -1.212
REMARK  Name = 
REMARK  7 active torsions:
REMARK  status: ('A' for Active; 'I' for Inactive)
REMARK    1  A    between atoms: C_1  and  C_2
REMARK    2  A    between atoms: C_6  and  C_7
REMARK    3  A    between atoms: C_10  and  N_11
REMARK    4  A    between atoms: C_14  and  C_15
REMARK    5  A    between atoms: N_17  and  C_18
REMARK    6  A    between atoms: C_18  and  C_19
REMARK    7  A    between atoms: C_25  and  N_26
REMARK                            x       y       z     vdW  Elec       q    Type
REMARK                         _______ _______ _______ _____ _____    ______ ____
ROOT
ATOM      1  C   UNL     1     -17.138  47.052 -15.988  0.00  0.00    +0.460 C 
ATOM      2  O   UNL     1     -16.113  47.572 -16.443  0.00  0.00    -0.531 OA
ATOM      3  N   UNL     1     -17.916  46.108 -16.720  0.00  0.00    -0.548 N 
ATOM      4  C   UNL     1     -17.420  45.562 -17.909  0.00  0.00    +0.505 C 
ATOM      5  C   UNL     1     -18.179  44.755 -18.667  0.00  0.00    -0.057 C 
ATOM      6  C   UNL     1     -19.569  44.310 -18.374  0.00  0.00    +0.160 C 
ATOM      7  C   UNL     1     -20.029  44.649 -16.966  0.00  0.00    -0.009 C 
ATOM      8  C   UNL     1     -19.320  45.847 -16.329  0.00  0.00    +0.324 C 
ENDROOT
BRANCH   1  14
ATOM      9  C   UNL     1     -18.089  46.199 -11.680  0.00  0.00    +0.107 C 
ATOM     10  C   UNL     1     -16.886  47.044 -12.108  0.00  0.00    +0.110 C 
ATOM     11  C   UNL     1     -17.102  48.540 -11.859  0.00  0.00    +0.051 C 
ATOM     12  C   UNL     1     -18.103  49.163 -12.829  0.00  0.00    +0.080 C 
ATOM     13  C   UNL     1     -17.746  48.874 -14.291  0.00  0.00    +0.131 C 
ATOM     14  C   UNL     1     -17.569  47.367 -14.545  0.00  0.00    +0.030 C 
ATOM     15  C   UNL     1     -16.520  46.801 -13.576  0.00  0.00    +0.090 C 
ENDBRANCH   1  14
BRANCH   7  16
ATOM     16  C   UNL     1     -19.967  43.439 -16.049  0.00  0.00    +0.493 C 
ATOM     17  O   UNL     1     -20.112  42.306 -16.502  0.00  0.00    -0.522 OA
ATOM     18  N   UNL     1     -19.750  43.683 -14.717  0.00  0.00    -0.644 N 
ATOM     19  H   UNL     1     -19.706  44.633 -14.365  0.00  0.00    +0.289 HD
BRANCH  18  20
ATOM     20  C   UNL     1     -19.642  42.599 -13.763  0.00  0.00    +0.276 C 
BRANCH  20  21
ATOM     21  C   UNL     1     -18.405  42.707 -12.924  0.00  0.00    +0.003 C 
ATOM     22  C   UNL     1     -17.201  43.137 -13.491  0.00  0.00    -0.014 C 
ATOM     23  C   UNL     1     -16.051  43.248 -12.714  0.00  0.00    -0.021 C 
ATOM     24  C   UNL     1     -16.096  42.930 -11.360  0.00  0.00    -0.032 C 
ATOM     25  C   UNL     1     -17.291  42.509 -10.784  0.00  0.00    -0.037 C 
ATOM     26  C   UNL     1     -18.440  42.394 -11.563  0.00  0.00    -0.033 C 
ENDBRANCH  20  21
ENDBRANCH  18  20
ENDBRANCH   7  16
BRANCH   4  27
ATOM     27  N   UNL     1     -16.134  45.795 -18.340  0.00  0.00    -0.827 N 
ATOM     28  H   UNL     1     -15.534  46.089 -17.559  0.00  0.00    +0.362 HD
ATOM     29  H   UNL     1     -16.062  46.436 -19.124  0.00  0.00    +0.308 HD
ENDBRANCH   4  27
BRANCH   8  30
ATOM     30  N   UNL     1     -20.134  47.073 -16.480  0.00  0.00    -0.301 NA
ATOM     31  N   UNL     1     -20.310  47.496 -17.635  0.00  0.00    +0.008 NA
ATOM     32  N   UNL     1     -20.497  47.877 -18.691  0.00  0.00    -0.214 NA
ENDBRANCH   8  30
TORSDOF 6
ENDMDL
MODEL 4
REMARK VINA RESULT:    -6.584     21.352     25.790
REMARK INTER + INTRA:          -9.912
REMARK INTER:                  -8.780
REMARK INTRA:                  -1.132
REMARK UNBOUND:                -1.212
REMARK  Name = 
REMARK  7 active torsions:
REMARK  status: ('A' for Active; 'I' for Inactive)
REMARK    1  A    between atoms: C_1  and  C_2
REMARK    2  A    between atoms: C_6  and  C_7
REMARK    3  A    between atoms: C_10  and  N_11
REMARK    4  A    between atoms: C_14  and  C_15
REMARK    5  A    between atoms: N_17  and  C_18
REMARK    6  A    between atoms: C_18  and  C_19
REMARK    7  A    between atoms: C_25  and  N_26
REMARK                            x       y       z     vdW  Elec       q    Type
REMARK                         _______ _______ _______ _____ _____    ______ ____
ROOT
ATOM      1  C   UNL     1     -17.816  45.850 -18.444  0.00  0.00    +0.460 C 
ATOM      2  O   UNL     1     -17.851  45.671 -19.667  0.00  0.00    -0.531 OA
ATOM      3  N   UNL     1     -18.551  45.046 -17.524  0.00  0.00    -0.548 N 
ATOM      4  C   UNL     1     -19.172  43.871 -17.960  0.00  0.00    +0.505 C 
ATOM      5  C   UNL     1     -19.956  43.158 -17.135  0.00  0.00    -0.057 C 
ATOM      6  C   UNL     1     -20.249  43.460 -15.708  0.00  0.00    +0.160 C 
ATOM      7  C   UNL     1     -19.372  44.557 -15.128  0.00  0.00    -0.009 C 
ATOM      8  C   UNL     1     -18.818  45.546 -16.156  0.00  0.00    +0.324 C 
ENDROOT
BRANCH   1  14
ATOM      9  C   UNL     1     -14.807  47.640 -15.627  0.00  0.00    +0.107 C 
ATOM     10  C   UNL     1     -14.494  47.356 -17.099  0.00  0.00    +0.110 C 
ATOM     11  C   UNL     1     -14.457  48.630 -17.948  0.00  0.00    +0.051 C 
ATOM     12  C   UNL     1     -15.842  49.227 -18.181  0.00  0.00    +0.080 C 
ATOM     13  C   UNL     1     -16.827  48.196 -18.741  0.00  0.00    +0.131 C 
ATOM     14  C   UNL     1     -16.890  46.934 -17.864  0.00  0.00    +0.030 C 
ATOM     15  C   UNL     1     -15.479  46.349 -17.702  0.00  0.00    +0.090 C 
ENDBRANCH   1  14
BRANCH   7  16
ATOM     16  C   UNL     1     -18.254  43.988 -14.272  0.00  0.00    +0.493 C 
ATOM     17  O   UNL     1     -17.337  44.710 -13.885  0.00  0.00    -0.522 OA
ATOM     18  N   UNL     1     -18.326  42.653 -13.968  0.00  0.00    -0.644 N 
ATOM     19  H   UNL     1     -19.056  42.071 -14.362  0.00  0.00    +0.289 HD
BRANCH  18  20
ATOM     20  C   UNL     1     -17.328  42.019 -13.133  0.00  0.00    +0.276 C 
BRANCH  20  21
ATOM     21  C   UNL     1     -17.908  41.515 -11.845  0.00  0.00    +0.003 C 
ATOM     22  C   UNL     1     -18.607  40.305 -11.810  0.00  0.00    -0.014 C 
ATOM     23  C   UNL     1     -19.140  39.828 -10.616  0.00  0.00    -0.021 C 
ATOM     24  C   UNL     1     -18.976  40.559  -9.443  0.00  0.00    -0.032 C 
ATOM     25  C   UNL     1     -18.275  41.761  -9.465  0.00  0.00    -0.037 C 
ATOM     26  C   UNL     1     -17.747  42.239 -10.662  0.00  0.00    -0.033 C 
ENDBRANCH  20  21
ENDBRANCH  18  20
ENDBRANCH   7  16
BRANCH   4  27
ATOM     27  N   UNL     1     -18.988  43.374 -19.229  0.00  0.00    -0.827 N 
ATOM     28  H   UNL     1     -19.351  42.416 -19.304  0.00  0.00    +0.362 HD
ATOM     29  H   UNL     1     -18.033  43.435 -19.571  0.00  0.00    +0.308 HD
ENDBRANCH   4  27
BRANCH   8  30
ATOM     30  N   UNL     1     -19.653  46.767 -16.207  0.00  0.00    -0.301 NA
ATOM     31  N   UNL     1     -19.371  47.679 -15.412  0.00  0.00    +0.008 NA
ATOM     32  N   UNL     1     -19.105  48.529 -14.705  0.00  0.00    -0.214 NA
ENDBRANCH   8  30
TORSDOF 6
ENDMDL
MODEL 5
REMARK VINA RESULT:    -6.508      3.419      7.351
REMARK INTER + INTRA:          -9.813
REMARK INTER:                  -7.533
REMARK INTRA:                  -2.280
REMARK UNBOUND:                -1.212
REMARK  Name = 
REMARK  7 active torsions:
REMARK  status: ('A' for Active; 'I' for Inactive)
REMARK    1  A    between atoms: C_1  and  C_2
REMARK    2  A    between atoms: C_6  and  C_7
REMARK    3  A    between atoms: C_10  and  N_11
REMARK    4  A    between atoms: C_14  and  C_15
REMARK    5  A    between atoms: N_17  and  C_18
REMARK    6  A    between atoms: C_18  and  C_19
REMARK    7  A    between atoms: C_25  and  N_26
REMARK                            x       y       z     vdW  Elec       q    Type
REMARK                         _______ _______ _______ _____ _____    ______ ____
ROOT
ATOM      1  C   UNL     1     -28.071  44.833   1.378  0.00  0.00    +0.460 C 
ATOM      2  O   UNL     1     -27.694  45.369   0.330  0.00  0.00    -0.531 OA
ATOM      3  N   UNL     1     -29.320  45.138   1.995  0.00  0.00    -0.548 N 
ATOM      4  C   UNL     1     -30.272  45.903   1.312  0.00  0.00    +0.505 C 
ATOM      5  C   UNL     1     -31.407  46.290   1.915  0.00  0.00    -0.057 C 
ATOM      6  C   UNL     1     -31.829  45.968   3.305  0.00  0.00    +0.160 C 
ATOM      7  C   UNL     1     -30.961  44.913   3.973  0.00  0.00    -0.009 C 
ATOM      8  C   UNL     1     -29.536  44.813   3.424  0.00  0.00    +0.324 C 
ENDROOT
BRANCH   1  14
ATOM      9  C   UNL     1     -27.206  40.970   3.503  0.00  0.00    +0.107 C 
ATOM     10  C   UNL     1     -26.818  41.214   2.042  0.00  0.00    +0.110 C 
ATOM     11  C   UNL     1     -25.316  41.453   1.865  0.00  0.00    +0.051 C 
ATOM     12  C   UNL     1     -24.867  42.814   2.390  0.00  0.00    +0.080 C 
ATOM     13  C   UNL     1     -25.700  43.960   1.807  0.00  0.00    +0.131 C 
ATOM     14  C   UNL     1     -27.207  43.735   2.020  0.00  0.00    +0.030 C 
ATOM     15  C   UNL     1     -27.612  42.374   1.433  0.00  0.00    +0.090 C 
ENDBRANCH   1  14
BRANCH   7  16
ATOM     16  C   UNL     1     -31.633  43.551   3.972  0.00  0.00    +0.493 C 
ATOM     17  O   UNL     1     -32.753  43.409   3.486  0.00  0.00    -0.522 OA
ATOM     18  N   UNL     1     -30.933  42.516   4.537  0.00  0.00    -0.644 N 
ATOM     19  H   UNL     1     -30.043  42.681   4.992  0.00  0.00    +0.289 HD
BRANCH  18  20
ATOM     20  C   UNL     1     -31.469  41.171   4.559  0.00  0.00    +0.276 C 
BRANCH  20  21
ATOM     21  C   UNL     1     -30.837  40.294   3.521  0.00  0.00    +0.003 C 
ATOM     22  C   UNL     1     -30.249  39.079   3.885  0.00  0.00    -0.014 C 
ATOM     23  C   UNL     1     -29.668  38.256   2.925  0.00  0.00    -0.021 C 
ATOM     24  C   UNL     1     -29.672  38.642   1.588  0.00  0.00    -0.032 C 
ATOM     25  C   UNL     1     -30.262  39.845   1.213  0.00  0.00    -0.037 C 
ATOM     26  C   UNL     1     -30.838  40.670   2.176  0.00  0.00    -0.033 C 
ENDBRANCH  20  21
ENDBRANCH  18  20
ENDBRANCH   7  16
BRANCH   4  27
ATOM     27  N   UNL     1     -30.112  46.262  -0.006  0.00  0.00    -0.827 N 
ATOM     28  H   UNL     1     -29.390  45.686  -0.457  0.00  0.00    +0.362 HD
ATOM     29  H   UNL     1     -29.942  47.252  -0.155  0.00  0.00    +0.308 HD
ENDBRANCH   4  27
BRANCH   8  30
ATOM     30  N   UNL     1     -28.596  45.577   4.275  0.00  0.00    -0.301 NA
ATOM     31  N   UNL     1     -28.583  46.812   4.135  0.00  0.00    +0.008 NA
ATOM     32  N   UNL     1     -28.580  47.945   4.030  0.00  0.00    -0.214 NA
ENDBRANCH   8  30
TORSDOF 6
ENDMDL
