MODEL 1
REMARK VINA RESULT:    -8.595      0.000      0.000
REMARK INTER + INTRA:         -11.090
REMARK INTER:                 -10.856
REMARK INTRA:                  -0.234
REMARK UNBOUND:                -0.234
REMARK  Name = 
REMARK  5 active torsions:
REMARK  status: ('A' for Active; 'I' for Inactive)
REMARK    1  A    between atoms: N_1  and  C_2
REMARK    2  A    between atoms: C_2  and  C_4
REMARK    3  A    between atoms: N_8  and  C_9
REMARK    4  A    between atoms: N_12  and  C_13
REMARK    5  A    between atoms: N_15  and  C_16
REMARK                            x       y       z     vdW  Elec       q    Type
REMARK                         _______ _______ _______ _____ _____    ______ ____
ROOT
ATOM      1  C   UNL     1     -17.712  41.246 -10.607  0.00  0.00    +0.280 C 
ATOM      2  C   UNL     1     -17.813  42.683 -10.441  0.00  0.00    -0.020 C 
ATOM      3  C   UNL     1     -18.092  43.675 -11.587  0.00  0.00    +0.208 C 
ATOM      4  N   UNL     1     -18.250  43.292 -12.988  0.00  0.00    -0.723 NA
ATOM      5  C   UNL     1     -17.491  42.016 -13.094  0.00  0.00    +0.239 C 
ATOM      6  C   UNL     1     -17.243  41.000 -11.956  0.00  0.00    -0.034 C 
ATOM      7  H   UNL     1     -19.196  42.881 -13.052  0.00  0.00    +0.306 HD
ENDROOT
BRANCH   1  12
ATOM      8  C   UNL     1     -21.028  41.433  -6.939  0.00  0.00    +0.037 C 
ATOM      9  C   UNL     1     -21.637  40.684  -8.136  0.00  0.00    +0.218 C 
ATOM     10  C   UNL     1     -20.620  39.743  -8.783  0.00  0.00    +0.069 C 
ATOM     11  C   UNL     1     -19.338  40.463  -9.012  0.00  0.00    +0.537 C 
ATOM     12  N   UNL     1     -18.792  40.455 -10.223  0.00  0.00    -0.698 N 
ATOM     13  N   UNL     1     -18.823  41.094  -7.970  0.00  0.00    -0.624 N 
ATOM     14  C   UNL     1     -19.707  42.093  -7.290  0.00  0.00    +0.333 C 
ATOM     15  H   UNL     1     -19.251  39.894 -10.938  0.00  0.00    +0.312 HD
ATOM     16  H   UNL     1     -18.519  40.483  -7.211  0.00  0.00    +0.301 HD
BRANCH   8  17
ATOM     17  C   UNL     1     -21.938  42.509  -6.405  0.00  0.00    +0.539 C 
ATOM     18  O   UNL     1     -23.002  42.770  -6.937  0.00  0.00    -0.479 OA
BRANCH  17  19
ATOM     19  N   UNL     1     -21.459  43.057  -5.289  0.00  0.00    -0.579 NA
ATOM     20  H   UNL     1     -22.282  43.256  -4.708  0.00  0.00    +0.330 HD
ENDBRANCH  17  19
ENDBRANCH   8  17
ENDBRANCH   1  12
BRANCH   4  21
ATOM     21  C   UNL     1     -18.453  44.121 -14.088  0.00  0.00    +0.773 C 
ATOM     22  O   UNL     1     -17.475  44.817 -14.286  0.00  0.00    -0.521 OA
ATOM     23  N   UNL     1     -19.554  43.965 -14.880  0.00  0.00    -0.739 N 
ATOM     24  H   UNL     1     -20.417  43.629 -14.469  0.00  0.00    +0.331 HD
BRANCH  23  25
ATOM     25  C   UNL     1     -19.624  44.440 -16.204  0.00  0.00    +0.338 A 
ATOM     26  C   UNL     1     -19.588  43.585 -17.315  0.00  0.00    +0.074 A 
ATOM     27  C   UNL     1     -19.554  44.107 -18.608  0.00  0.00    +0.151 A 
ATOM     28  C   UNL     1     -19.564  45.486 -18.798  0.00  0.00    +0.100 A 
ATOM     29  C   UNL     1     -19.666  46.331 -17.696  0.00  0.00    +0.225 A 
ATOM     30 BR   UNL     1     -19.651  48.204 -17.948  0.00  0.00    -0.316 Br
ATOM     31  C   UNL     1     -19.731  45.816 -16.400  0.00  0.00    +0.031 A 
ENDBRANCH  23  25
ENDBRANCH   4  21
TORSDOF 5
ENDMDL
MODEL 2
REMARK VINA RESULT:    -7.235      5.107      9.421
REMARK INTER + INTRA:          -9.373
REMARK INTER:                  -8.809
REMARK INTRA:                  -0.564
REMARK UNBOUND:                -0.234
REMARK  Name = 
REMARK  5 active torsions:
REMARK  status: ('A' for Active; 'I' for Inactive)
REMARK    1  A    between atoms: N_1  and  C_2
REMARK    2  A    between atoms: C_2  and  C_4
REMARK    3  A    between atoms: N_8  and  C_9
REMARK    4  A    between atoms: N_12  and  C_13
REMARK    5  A    between atoms: N_15  and  C_16
REMARK                            x       y       z     vdW  Elec       q    Type
REMARK                         _______ _______ _______ _____ _____    ______ ____
ROOT
ATOM      1  C   UNL     1     -22.200  44.775 -17.708  0.00  0.00    +0.280 C 
ATOM      2  C   UNL     1     -22.608  43.956 -16.583  0.00  0.00    -0.020 C 
ATOM      3  C   UNL     1     -21.649  43.423 -15.500  0.00  0.00    +0.208 C 
ATOM      4  N   UNL     1     -20.206  43.647 -15.496  0.00  0.00    -0.723 NA
ATOM      5  C   UNL     1     -19.878  43.867 -16.931  0.00  0.00    +0.239 C 
ATOM      6  C   UNL     1     -20.824  44.437 -18.011  0.00  0.00    -0.034 C 
ATOM      7  H   UNL     1     -20.083  44.626 -15.189  0.00  0.00    +0.306 HD
ENDROOT
BRANCH   1  12
ATOM      8  C   UNL     1     -26.301  47.541 -17.559  0.00  0.00    +0.037 C 
ATOM      9  C   UNL     1     -25.145  48.313 -16.904  0.00  0.00    +0.218 C 
ATOM     10  C   UNL     1     -23.843  48.143 -17.690  0.00  0.00    +0.069 C 
ATOM     11  C   UNL     1     -23.617  46.704 -17.989  0.00  0.00    +0.537 C 
ATOM     12  N   UNL     1     -22.457  46.143 -17.661  0.00  0.00    -0.698 N 
ATOM     13  N   UNL     1     -24.617  46.057 -18.561  0.00  0.00    -0.624 N 
ATOM     14  C   UNL     1     -25.933  46.096 -17.848  0.00  0.00    +0.333 C 
ATOM     15  H   UNL     1     -21.739  46.750 -17.269  0.00  0.00    +0.312 HD
ATOM     16  H   UNL     1     -24.844  46.373 -19.504  0.00  0.00    +0.301 HD
BRANCH   8  17
ATOM     17  C   UNL     1     -27.544  47.525 -16.707  0.00  0.00    +0.539 C 
ATOM     18  O   UNL     1     -27.822  48.448 -15.963  0.00  0.00    -0.479 OA
BRANCH  17  19
ATOM     19  N   UNL     1     -28.283  46.438 -16.925  0.00  0.00    -0.579 NA
ATOM     20  H   UNL     1     -29.189  46.787 -17.260  0.00  0.00    +0.330 HD
ENDBRANCH  17  19
ENDBRANCH   8  17
ENDBRANCH   1  12
BRANCH   4  21
ATOM     21  C   UNL     1     -19.264  43.165 -14.592  0.00  0.00    +0.773 C 
ATOM     22  O   UNL     1     -18.588  44.075 -14.149  0.00  0.00    -0.521 OA
ATOM     23  N   UNL     1     -19.297  41.862 -14.184  0.00  0.00    -0.739 N 
ATOM     24  H   UNL     1     -19.641  41.152 -14.821  0.00  0.00    +0.331 HD
BRANCH  23  25
ATOM     25  C   UNL     1     -18.689  41.410 -12.997  0.00  0.00    +0.338 A 
ATOM     26  C   UNL     1     -17.316  41.134 -12.911  0.00  0.00    +0.074 A 
ATOM     27  C   UNL     1     -16.778  40.587 -11.745  0.00  0.00    +0.151 A 
ATOM     28  C   UNL     1     -17.605  40.321 -10.659  0.00  0.00    +0.100 A 
ATOM     29  C   UNL     1     -18.956  40.657 -10.725  0.00  0.00    +0.225 A 
ATOM     30 BR   UNL     1     -20.088  40.272  -9.262  0.00  0.00    -0.316 Br
ATOM     31  C   UNL     1     -19.497  41.232 -11.875  0.00  0.00    +0.031 A 
ENDBRANCH  23  25
ENDBRANCH   4  21
TORSDOF 5
ENDMDL
MODEL 3
REMARK VINA RESULT:    -7.137      2.300      3.276
REMARK INTER + INTRA:          -9.249
REMARK INTER:                  -8.865
REMARK INTRA:                  -0.384
REMARK UNBOUND:                -0.234
REMARK  Name = 
REMARK  5 active torsions:
REMARK  status: ('A' for Active; 'I' for Inactive)
REMARK    1  A    between atoms: N_1  and  C_2
REMARK    2  A    between atoms: C_2  and  C_4
REMARK    3  A    between atoms: N_8  and  C_9
REMARK    4  A    between atoms: N_12  and  C_13
REMARK    5  A    between atoms: N_15  and  C_16
REMARK                            x       y       z     vdW  Elec       q    Type
REMARK                         _______ _______ _______ _____ _____    ______ ____
ROOT
ATOM      1  C   UNL     1     -16.534  43.881 -12.038  0.00  0.00    +0.280 C 
ATOM      2  C   UNL     1     -17.709  44.721 -11.915  0.00  0.00    -0.020 C 
ATOM      3  C   UNL     1     -18.357  45.491 -13.082  0.00  0.00    +0.208 C 
ATOM      4  N   UNL     1     -17.842  45.499 -14.449  0.00  0.00    -0.723 NA
ATOM      5  C   UNL     1     -16.392  45.209 -14.283  0.00  0.00    +0.239 C 
ATOM      6  C   UNL     1     -15.743  44.403 -13.134  0.00  0.00    -0.034 C 
ATOM      7  H   UNL     1     -18.108  44.582 -14.845  0.00  0.00    +0.306 HD
ENDROOT
BRANCH   1  12
ATOM      8  C   UNL     1     -18.872  40.613  -9.150  0.00  0.00    +0.037 C 
ATOM      9  C   UNL     1     -18.788  40.057 -10.581  0.00  0.00    +0.218 C 
ATOM     10  C   UNL     1     -17.422  40.336 -11.210  0.00  0.00    +0.069 C 
ATOM     11  C   UNL     1     -17.057  41.764 -11.014  0.00  0.00    +0.537 C 
ATOM     12  N   UNL     1     -16.704  42.499 -12.063  0.00  0.00    -0.698 N 
ATOM     13  N   UNL     1     -17.124  42.224  -9.776  0.00  0.00    -0.624 N 
ATOM     14  C   UNL     1     -18.438  42.066  -9.076  0.00  0.00    +0.333 C 
ATOM     15  H   UNL     1     -16.639  42.026 -12.963  0.00  0.00    +0.312 HD
ATOM     16  H   UNL     1     -16.454  41.807  -9.130  0.00  0.00    +0.301 HD
BRANCH   8  17
ATOM     17  C   UNL     1     -20.263  40.530  -8.576  0.00  0.00    +0.539 C 
ATOM     18  O   UNL     1     -20.705  41.396  -7.842  0.00  0.00    -0.479 OA
BRANCH  17  19
ATOM     19  N   UNL     1     -20.920  39.459  -9.018  0.00  0.00    -0.579 NA
ATOM     20  H   UNL     1     -20.385  38.652  -8.679  0.00  0.00    +0.330 HD
ENDBRANCH  17  19
ENDBRANCH   8  17
ENDBRANCH   1  12
BRANCH   4  21
ATOM     21  C   UNL     1     -18.331  46.201 -15.547  0.00  0.00    +0.773 C 
ATOM     22  O   UNL     1     -17.430  46.475 -16.317  0.00  0.00    -0.521 OA
ATOM     23  N   UNL     1     -19.675  46.349 -15.734  0.00  0.00    -0.739 N 
ATOM     24  H   UNL     1     -20.286  46.395 -14.926  0.00  0.00    +0.331 HD
BRANCH  23  25
ATOM     25  C   UNL     1     -20.252  46.649 -16.983  0.00  0.00    +0.338 A 
ATOM     26  C   UNL     1     -21.030  47.797 -17.198  0.00  0.00    +0.074 A 
ATOM     27  C   UNL     1     -21.667  47.998 -18.423  0.00  0.00    +0.151 A 
ATOM     28  C   UNL     1     -21.526  47.059 -19.440  0.00  0.00    +0.100 A 
ATOM     29  C   UNL     1     -20.700  45.954 -19.245  0.00  0.00    +0.225 A 
ATOM     30 BR   UNL     1     -20.527  44.663 -20.614  0.00  0.00    -0.316 Br
ATOM     31  C   UNL     1     -20.034  45.761 -18.035  0.00  0.00    +0.031 A 
ENDBRANCH  23  25
ENDBRANCH   4  21
TORSDOF 5
ENDMDL
MODEL 4
REMARK VINA RESULT:    -7.136      3.546      4.402
REMARK INTER + INTRA:          -9.247
REMARK INTER:                  -8.895
REMARK INTRA:                  -0.353
REMARK UNBOUND:                -0.234
REMARK  Name = 
REMARK  5 active torsions:
REMARK  status: ('A' for Active; 'I' for Inactive)
REMARK    1  A    between atoms: N_1  and  C_2
REMARK    2  A    between atoms: C_2  and  C_4
REMARK    3  A    between atoms: N_8  and  C_9
REMARK    4  A    between atoms: N_12  and  C_13
REMARK    5  A    between atoms: N_15  and  C_16
REMARK                            x       y       z     vdW  Elec       q    Type
REMARK                         _______ _______ _______ _____ _____    ______ ____
ROOT
ATOM      1  C   UNL     1     -17.564  44.207 -12.459  0.00  0.00    +0.280 C 
ATOM      2  C   UNL     1     -18.389  44.941 -13.397  0.00  0.00    -0.020 C 
ATOM      3  C   UNL     1     -17.857  45.650 -14.658  0.00  0.00    +0.208 C 
ATOM      4  N   UNL     1     -16.448  45.700 -15.041  0.00  0.00    -0.723 NA
ATOM      5  C   UNL     1     -15.725  45.538 -13.750  0.00  0.00    +0.239 C 
ATOM      6  C   UNL     1     -16.240  44.794 -12.497  0.00  0.00    -0.034 C 
ATOM      7  H   UNL     1     -16.236  44.763 -15.421  0.00  0.00    +0.306 HD
ENDROOT
BRANCH   1  12
ATOM      8  C   UNL     1     -18.629  40.610  -9.231  0.00  0.00    +0.037 C 
ATOM      9  C   UNL     1     -18.876  40.099 -10.659  0.00  0.00    +0.218 C 
ATOM     10  C   UNL     1     -17.776  40.561 -11.617  0.00  0.00    +0.069 C 
ATOM     11  C   UNL     1     -17.538  42.020 -11.448  0.00  0.00    +0.537 C 
ATOM     12  N   UNL     1     -17.574  42.815 -12.512  0.00  0.00    -0.698 N 
ATOM     13  N   UNL     1     -17.318  42.441 -10.215  0.00  0.00    -0.624 N 
ATOM     14  C   UNL     1     -18.362  42.104  -9.197  0.00  0.00    +0.333 C 
ATOM     15  H   UNL     1     -17.704  42.373 -13.421  0.00  0.00    +0.312 HD
ATOM     16  H   UNL     1     -16.453  42.098  -9.797  0.00  0.00    +0.301 HD
BRANCH   8  17
ATOM     17  C   UNL     1     -19.790  40.341  -8.309  0.00  0.00    +0.539 C 
ATOM     18  O   UNL     1     -19.800  40.740  -7.159  0.00  0.00    -0.479 OA
BRANCH  17  19
ATOM     19  N   UNL     1     -20.775  39.691  -8.928  0.00  0.00    -0.579 NA
ATOM     20  H   UNL     1     -21.622  39.900  -8.386  0.00  0.00    +0.330 HD
ENDBRANCH  17  19
ENDBRANCH   8  17
ENDBRANCH   1  12
BRANCH   4  21
ATOM     21  C   UNL     1     -15.875  46.355 -16.127  0.00  0.00    +0.773 C 
ATOM     22  O   UNL     1     -14.927  47.029 -15.771  0.00  0.00    -0.521 OA
ATOM     23  N   UNL     1     -16.277  46.070 -17.400  0.00  0.00    -0.739 N 
ATOM     24  H   UNL     1     -17.236  45.785 -17.565  0.00  0.00    +0.331 HD
BRANCH  23  25
ATOM     25  C   UNL     1     -15.493  46.344 -18.537  0.00  0.00    +0.338 A 
ATOM     26  C   UNL     1     -14.921  45.331 -19.321  0.00  0.00    +0.074 A 
ATOM     27  C   UNL     1     -14.065  45.653 -20.375  0.00  0.00    +0.151 A 
ATOM     28  C   UNL     1     -13.781  46.986 -20.655  0.00  0.00    +0.100 A 
ATOM     29  C   UNL     1     -14.402  47.990 -19.916  0.00  0.00    +0.225 A 
ATOM     30 BR   UNL     1     -13.998  49.802 -20.275  0.00  0.00    -0.316 Br
ATOM     31  C   UNL     1     -15.283  47.679 -18.880  0.00  0.00    +0.031 A 
ENDBRANCH  23  25
ENDBRANCH   4  21
TORSDOF 5
ENDMDL
MODEL 5
REMARK VINA RESULT:    -6.919      5.530      9.034
REMARK INTER + INTRA:          -8.974
REMARK INTER:                  -8.796
REMARK INTRA:                  -0.178
REMARK UNBOUND:                -0.234
REMARK  Name = 
REMARK  5 active torsions:
REMARK  status: ('A' for Active; 'I' for Inactive)
REMARK    1  A    between atoms: N_1  and  C_2
REMARK    2  A    between atoms: C_2  and  C_4
REMARK    3  A    between atoms: N_8  and  C_9
REMARK    4  A    between atoms: N_12  and  C_13
REMARK    5  A    between atoms: N_15  and  C_16
REMARK                            x       y       z     vdW  Elec       q    Type
REMARK                         _______ _______ _______ _____ _____    ______ ____
ROOT
ATOM      1  C   UNL     1     -18.820  43.430 -13.984  0.00  0.00    +0.280 C 
ATOM      2  C   UNL     1     -18.292  44.599 -13.310  0.00  0.00    -0.020 C 
ATOM      3  C   UNL     1     -16.879  44.691 -12.702  0.00  0.00    +0.208 C 
ATOM      4  N   UNL     1     -15.912  43.596 -12.698  0.00  0.00    -0.723 NA
ATOM      5  C   UNL     1     -16.759  42.375 -12.775  0.00  0.00    +0.239 C 
ATOM      6  C   UNL     1     -18.161  42.271 -13.419  0.00  0.00    -0.034 C 
ATOM      7  H   UNL     1     -15.545  43.554 -13.663  0.00  0.00    +0.306 HD
ENDROOT
BRANCH   1  12
ATOM      8  C   UNL     1     -22.384  44.247 -17.320  0.00  0.00    +0.037 C 
ATOM      9  C   UNL     1     -21.019  44.588 -17.941  0.00  0.00    +0.218 C 
ATOM     10  C   UNL     1     -19.956  43.559 -17.554  0.00  0.00    +0.069 C 
ATOM     11  C   UNL     1     -19.994  43.320 -16.086  0.00  0.00    +0.537 C 
ATOM     12  N   UNL     1     -18.876  43.434 -15.376  0.00  0.00    -0.698 N 
ATOM     13  N   UNL     1     -21.173  43.019 -15.569  0.00  0.00    -0.624 N 
ATOM     14  C   UNL     1     -22.283  43.989 -15.827  0.00  0.00    +0.333 C 
ATOM     15  H   UNL     1     -18.016  43.622 -15.888  0.00  0.00    +0.312 HD
ATOM     16  H   UNL     1     -21.556  42.125 -15.877  0.00  0.00    +0.301 HD
BRANCH   8  17
ATOM     17  C   UNL     1     -23.401  45.341 -17.518  0.00  0.00    +0.539 C 
ATOM     18  O   UNL     1     -23.113  46.392 -18.062  0.00  0.00    -0.479 OA
BRANCH  17  19
ATOM     19  N   UNL     1     -24.609  44.981 -17.089  0.00  0.00    -0.579 NA
ATOM     20  H   UNL     1     -24.766  44.041 -17.472  0.00  0.00    +0.330 HD
ENDBRANCH  17  19
ENDBRANCH   8  17
ENDBRANCH   1  12
BRANCH   4  21
ATOM     21  C   UNL     1     -14.640  43.574 -12.132  0.00  0.00    +0.773 C 
ATOM     22  O   UNL     1     -14.234  44.706 -11.944  0.00  0.00    -0.521 OA
ATOM     23  N   UNL     1     -14.089  42.399 -11.710  0.00  0.00    -0.739 N 
ATOM     24  H   UNL     1     -14.327  41.539 -12.191  0.00  0.00    +0.331 HD
BRANCH  23  25
ATOM     25  C   UNL     1     -13.043  42.331 -10.770  0.00  0.00    +0.338 A 
ATOM     26  C   UNL     1     -12.863  43.300  -9.771  0.00  0.00    +0.074 A 
ATOM     27  C   UNL     1     -11.752  43.248  -8.928  0.00  0.00    +0.151 A 
ATOM     28  C   UNL     1     -10.820  42.225  -9.074  0.00  0.00    +0.100 A 
ATOM     29  C   UNL     1     -11.036  41.229 -10.024  0.00  0.00    +0.225 A 
ATOM     30 BR   UNL     1      -9.758  39.853 -10.244  0.00  0.00    -0.316 Br
ATOM     31  C   UNL     1     -12.160  41.256 -10.850  0.00  0.00    +0.031 A 
ENDBRANCH  23  25
ENDBRANCH   4  21
TORSDOF 5
ENDMDL
