MODEL 1
REMARK VINA RESULT:    -8.563      0.000      0.000
REMARK INTER + INTRA:         -10.784
REMARK INTER:                 -10.315
REMARK INTRA:                  -0.470
REMARK UNBOUND:                -0.470
REMARK  Name = 
REMARK  4 active torsions:
REMARK  status: ('A' for Active; 'I' for Inactive)
REMARK    1  A    between atoms: C_7  and  C_8
REMARK    2  A    between atoms: C_8  and  O_9
REMARK    3  A    between atoms: N_10  and  C_11
REMARK    4  A    between atoms: C_11  and  C_12
REMARK                            x       y       z     vdW  Elec       q    Type
REMARK                         _______ _______ _______ _____ _____    ______ ____
ROOT
ATOM      1  C   UNL     1     -19.190  39.694 -10.904  0.00  0.00    +0.445 C 
ATOM      2  N   UNL     1     -19.585  39.655  -9.680  0.00  0.00    -0.400 NA
ENDROOT
BRANCH   1   9
ATOM      3  N   UNL     1     -16.233  40.434 -10.674  0.00  0.00    -0.639 NA
ATOM      4  C   UNL     1     -16.934  41.054 -11.579  0.00  0.00    +0.466 C 
ATOM      5  N   UNL     1     -16.348  42.002 -12.444  0.00  0.00    -0.662 N 
ATOM      6  C   UNL     1     -17.340  42.706 -13.259  0.00  0.00    +0.208 C 
ATOM      7  C   UNL     1     -18.517  42.646 -13.449  0.00  0.00    -0.101 C 
ATOM      8  C   UNL     1     -19.011  41.532 -12.545  0.00  0.00    +0.021 C 
ATOM      9  C   UNL     1     -18.452  40.730 -11.677  0.00  0.00    -0.155 C 
ATOM     10  H   UNL     1     -15.256  40.749 -10.737  0.00  0.00    +0.293 HD
ATOM     11  H   UNL     1     -15.456  42.417 -12.214  0.00  0.00    +0.293 HD
ENDBRANCH   1   9
BRANCH   1  12
ATOM     12  O   UNL     1     -19.486  38.610 -11.658  0.00  0.00    -0.579 OA
ATOM     13  H   UNL     1     -19.738  38.835 -12.581  0.00  0.00    +0.353 HD
ENDBRANCH   1  12
BRANCH   2  14
ATOM     14  C   UNL     1     -19.278  40.817  -8.847  0.00  0.00    +0.198 C 
BRANCH  14  15
ATOM     15  C   UNL     1     -20.312  41.257  -7.844  0.00  0.00    +0.058 A 
ATOM     16  C   UNL     1     -20.029  42.028  -6.716  0.00  0.00    +0.065 A 
ATOM     17  C   UNL     1     -21.062  42.406  -5.852  0.00  0.00    +0.049 A 
ATOM     18  C   UNL     1     -22.378  42.016  -6.108  0.00  0.00    +0.037 A 
ATOM     19  C   UNL     1     -22.668  41.236  -7.223  0.00  0.00    +0.048 A 
ATOM     20  C   UNL     1     -21.640  40.856  -8.080  0.00  0.00    +0.002 A 
ENDBRANCH  14  15
ENDBRANCH   2  14
TORSDOF 4
ENDMDL
MODEL 2
REMARK VINA RESULT:    -8.366      1.677      2.242
REMARK INTER + INTRA:         -10.547
REMARK INTER:                 -10.088
REMARK INTRA:                  -0.459
REMARK UNBOUND:                -0.470
REMARK  Name = 
REMARK  4 active torsions:
REMARK  status: ('A' for Active; 'I' for Inactive)
REMARK    1  A    between atoms: C_7  and  C_8
REMARK    2  A    between atoms: C_8  and  O_9
REMARK    3  A    between atoms: N_10  and  C_11
REMARK    4  A    between atoms: C_11  and  C_12
REMARK                            x       y       z     vdW  Elec       q    Type
REMARK                         _______ _______ _______ _____ _____    ______ ____
ROOT
ATOM      1  C   UNL     1     -17.979  40.589 -10.257  0.00  0.00    +0.445 C 
ATOM      2  N   UNL     1     -18.651  40.067  -9.291  0.00  0.00    -0.400 NA
ENDROOT
BRANCH   1   9
ATOM      3  N   UNL     1     -19.636  39.664 -12.654  0.00  0.00    -0.639 NA
ATOM      4  C   UNL     1     -19.285  40.918 -12.618  0.00  0.00    +0.466 C 
ATOM      5  N   UNL     1     -19.684  41.822 -13.625  0.00  0.00    -0.662 N 
ATOM      6  C   UNL     1     -19.038  43.130 -13.491  0.00  0.00    +0.208 C 
ATOM      7  C   UNL     1     -18.316  43.672 -12.711  0.00  0.00    -0.101 C 
ATOM      8  C   UNL     1     -18.044  42.639 -11.634  0.00  0.00    +0.021 C 
ATOM      9  C   UNL     1     -18.398  41.396 -11.435  0.00  0.00    -0.155 C 
ATOM     10  H   UNL     1     -20.219  39.504 -13.486  0.00  0.00    +0.293 HD
ATOM     11  H   UNL     1     -20.011  41.479 -14.518  0.00  0.00    +0.293 HD
ENDBRANCH   1   9
BRANCH   1  12
ATOM     12  O   UNL     1     -16.641  40.386 -10.227  0.00  0.00    -0.579 OA
ATOM     13  H   UNL     1     -16.351  39.625 -10.778  0.00  0.00    +0.353 HD
ENDBRANCH   1  12
BRANCH   2  14
ATOM     14  C   UNL     1     -20.098  40.273  -9.304  0.00  0.00    +0.198 C 
BRANCH  14  15
ATOM     15  C   UNL     1     -20.719  40.978  -8.127  0.00  0.00    +0.058 A 
ATOM     16  C   UNL     1     -22.087  40.983  -7.849  0.00  0.00    +0.065 A 
ATOM     17  C   UNL     1     -22.567  41.649  -6.718  0.00  0.00    +0.049 A 
ATOM     18  C   UNL     1     -21.688  42.312  -5.859  0.00  0.00    +0.037 A 
ATOM     19  C   UNL     1     -20.324  42.325  -6.134  0.00  0.00    +0.048 A 
ATOM     20  C   UNL     1     -19.847  41.666  -7.263  0.00  0.00    +0.002 A 
ENDBRANCH  14  15
ENDBRANCH   2  14
TORSDOF 4
ENDMDL
MODEL 3
REMARK VINA RESULT:    -7.193      2.062      5.586
REMARK INTER + INTRA:          -9.134
REMARK INTER:                  -8.471
REMARK INTRA:                  -0.663
REMARK UNBOUND:                -0.470
REMARK  Name = 
REMARK  4 active torsions:
REMARK  status: ('A' for Active; 'I' for Inactive)
REMARK    1  A    between atoms: C_7  and  C_8
REMARK    2  A    between atoms: C_8  and  O_9
REMARK    3  A    between atoms: N_10  and  C_11
REMARK    4  A    between atoms: C_11  and  C_12
REMARK                            x       y       z     vdW  Elec       q    Type
REMARK                         _______ _______ _______ _____ _____    ______ ____
ROOT
ATOM      1  C   UNL     1     -16.917  40.736 -11.328  0.00  0.00    +0.445 C 
ATOM      2  N   UNL     1     -16.769  41.329 -12.460  0.00  0.00    -0.400 NA
ENDROOT
BRANCH   1   9
ATOM      3  N   UNL     1     -19.357  38.911 -11.579  0.00  0.00    -0.639 NA
ATOM      4  C   UNL     1     -19.284  39.668 -10.522  0.00  0.00    +0.466 C 
ATOM      5  N   UNL     1     -20.270  39.624  -9.514  0.00  0.00    -0.662 N 
ATOM      6  C   UNL     1     -20.093  40.674  -8.509  0.00  0.00    +0.208 C 
ATOM      7  C   UNL     1     -19.290  41.522  -8.263  0.00  0.00    -0.101 C 
ATOM      8  C   UNL     1     -18.238  41.403  -9.350  0.00  0.00    +0.021 C 
ATOM      9  C   UNL     1     -18.078  40.642 -10.401  0.00  0.00    -0.155 C 
ATOM     10  H   UNL     1     -20.200  38.326 -11.512  0.00  0.00    +0.293 HD
ATOM     11  H   UNL     1     -21.176  39.217  -9.705  0.00  0.00    +0.293 HD
ENDBRANCH   1   9
BRANCH   1  12
ATOM     12  O   UNL     1     -15.837  40.066 -10.863  0.00  0.00    -0.579 OA
ATOM     13  H   UNL     1     -15.124  39.966 -11.531  0.00  0.00    +0.353 HD
ENDBRANCH   1  12
BRANCH   2  14
ATOM     14  C   UNL     1     -17.922  42.061 -12.982  0.00  0.00    +0.198 C 
BRANCH  14  15
ATOM     15  C   UNL     1     -17.955  43.554 -12.788  0.00  0.00    +0.058 A 
ATOM     16  C   UNL     1     -17.616  44.196 -11.596  0.00  0.00    +0.065 A 
ATOM     17  C   UNL     1     -17.656  45.591 -11.519  0.00  0.00    +0.049 A 
ATOM     18  C   UNL     1     -18.033  46.352 -12.628  0.00  0.00    +0.037 A 
ATOM     19  C   UNL     1     -18.385  45.721 -13.817  0.00  0.00    +0.048 A 
ATOM     20  C   UNL     1     -18.350  44.332 -13.892  0.00  0.00    +0.002 A 
ENDBRANCH  14  15
ENDBRANCH   2  14
TORSDOF 4
ENDMDL
MODEL 4
REMARK VINA RESULT:    -6.605      2.260      6.285
REMARK INTER + INTRA:          -8.426
REMARK INTER:                  -7.891
REMARK INTRA:                  -0.535
REMARK UNBOUND:                -0.470
REMARK  Name = 
REMARK  4 active torsions:
REMARK  status: ('A' for Active; 'I' for Inactive)
REMARK    1  A    between atoms: C_7  and  C_8
REMARK    2  A    between atoms: C_8  and  O_9
REMARK    3  A    between atoms: N_10  and  C_11
REMARK    4  A    between atoms: C_11  and  C_12
REMARK                            x       y       z     vdW  Elec       q    Type
REMARK                         _______ _______ _______ _____ _____    ______ ____
ROOT
ATOM      1  C   UNL     1     -17.048  41.406 -11.789  0.00  0.00    +0.445 C 
ATOM      2  N   UNL     1     -17.004  42.415 -12.587  0.00  0.00    -0.400 NA
ENDROOT
BRANCH   1   9
ATOM      3  N   UNL     1     -19.610  39.840 -12.368  0.00  0.00    -0.639 NA
ATOM      4  C   UNL     1     -19.347  40.117 -11.123  0.00  0.00    +0.466 C 
ATOM      5  N   UNL     1     -20.190  39.682 -10.079  0.00  0.00    -0.662 N 
ATOM      6  C   UNL     1     -19.814  40.248  -8.781  0.00  0.00    +0.208 C 
ATOM      7  C   UNL     1     -18.934  40.927  -8.346  0.00  0.00    -0.101 C 
ATOM      8  C   UNL     1     -18.047  41.242  -9.537  0.00  0.00    +0.021 C 
ATOM      9  C   UNL     1     -18.078  40.958 -10.812  0.00  0.00    -0.155 C 
ATOM     10  H   UNL     1     -20.471  39.280 -12.411  0.00  0.00    +0.293 HD
ATOM     11  H   UNL     1     -21.137  39.388 -10.277  0.00  0.00    +0.293 HD
ENDBRANCH   1   9
BRANCH   1  12
ATOM     12  O   UNL     1     -15.977  40.580 -11.818  0.00  0.00    -0.579 OA
ATOM     13  H   UNL     1     -15.628  40.427 -12.723  0.00  0.00    +0.353 HD
ENDBRANCH   1  12
BRANCH   2  14
ATOM     14  C   UNL     1     -18.150  43.323 -12.573  0.00  0.00    +0.198 C 
BRANCH  14  15
ATOM     15  C   UNL     1     -18.688  43.800 -13.896  0.00  0.00    +0.058 A 
ATOM     16  C   UNL     1     -18.415  45.052 -14.447  0.00  0.00    +0.065 A 
ATOM     17  C   UNL     1     -18.943  45.396 -15.695  0.00  0.00    +0.049 A 
ATOM     18  C   UNL     1     -19.746  44.495 -16.398  0.00  0.00    +0.037 A 
ATOM     19  C   UNL     1     -20.035  43.249 -15.851  0.00  0.00    +0.048 A 
ATOM     20  C   UNL     1     -19.513  42.908 -14.607  0.00  0.00    +0.002 A 
ENDBRANCH  14  15
ENDBRANCH   2  14
TORSDOF 4
ENDMDL
MODEL 5
REMARK VINA RESULT:    -6.272      2.173      5.816
REMARK INTER + INTRA:          -8.025
REMARK INTER:                  -7.413
REMARK INTRA:                  -0.612
REMARK UNBOUND:                -0.470
REMARK  Name = 
REMARK  4 active torsions:
REMARK  status: ('A' for Active; 'I' for Inactive)
REMARK    1  A    between atoms: C_7  and  C_8
REMARK    2  A    between atoms: C_8  and  O_9
REMARK    3  A    between atoms: N_10  and  C_11
REMARK    4  A    between atoms: C_11  and  C_12
REMARK                            x       y       z     vdW  Elec       q    Type
REMARK                         _______ _______ _______ _____ _____    ______ ____
ROOT
ATOM      1  C   UNL     1     -18.193  40.442 -12.301  0.00  0.00    +0.445 C 
ATOM      2  N   UNL     1     -18.623  40.978 -13.390  0.00  0.00    -0.400 NA
ENDROOT
BRANCH   1   9
ATOM      3  N   UNL     1     -16.844  42.472 -10.455  0.00  0.00    -0.639 NA
ATOM      4  C   UNL     1     -17.838  41.788  -9.966  0.00  0.00    +0.466 C 
ATOM      5  N   UNL     1     -18.300  41.999  -8.650  0.00  0.00    -0.662 N 
ATOM      6  C   UNL     1     -19.300  41.010  -8.241  0.00  0.00    +0.208 C 
ATOM      7  C   UNL     1     -19.895  40.108  -8.747  0.00  0.00    -0.101 C 
ATOM      8  C   UNL     1     -19.388  40.048 -10.176  0.00  0.00    +0.021 C 
ATOM      9  C   UNL     1     -18.503  40.714 -10.871  0.00  0.00    -0.155 C 
ATOM     10  H   UNL     1     -16.516  43.139  -9.744  0.00  0.00    +0.293 HD
ATOM     11  H   UNL     1     -17.717  42.477  -7.976  0.00  0.00    +0.293 HD
ENDBRANCH   1   9
BRANCH   1  12
ATOM     12  O   UNL     1     -17.289  39.445 -12.447  0.00  0.00    -0.579 OA
ATOM     13  H   UNL     1     -16.524  39.693 -13.011  0.00  0.00    +0.353 HD
ENDBRANCH   1  12
BRANCH   2  14
ATOM     14  C   UNL     1     -19.599  42.058 -13.256  0.00  0.00    +0.198 C 
BRANCH  14  15
ATOM     15  C   UNL     1     -19.204  43.428 -13.744  0.00  0.00    +0.058 A 
ATOM     16  C   UNL     1     -18.637  44.413 -12.935  0.00  0.00    +0.065 A 
ATOM     17  C   UNL     1     -18.283  45.649 -13.485  0.00  0.00    +0.049 A 
ATOM     18  C   UNL     1     -18.492  45.907 -14.842  0.00  0.00    +0.037 A 
ATOM     19  C   UNL     1     -19.069  44.936 -15.654  0.00  0.00    +0.048 A 
ATOM     20  C   UNL     1     -19.426  43.708 -15.105  0.00  0.00    +0.002 A 
ENDBRANCH  14  15
ENDBRANCH   2  14
TORSDOF 4
ENDMDL
