MODEL 1
REMARK VINA RESULT:    -7.411      0.000      0.000
REMARK INTER + INTRA:         -10.973
REMARK INTER:                 -10.228
REMARK INTRA:                  -0.745
REMARK UNBOUND:                -0.745
REMARK  Name = 
REMARK  7 active torsions:
REMARK  status: ('A' for Active; 'I' for Inactive)
REMARK    1  A    between atoms: N_1  and  C_2
REMARK    2  A    between atoms: C_2  and  C_4
REMARK    3  A    between atoms: C_7  and  N_8
REMARK    4  A    between atoms: N_8  and  C_9
REMARK    5  A    between atoms: N_17  and  C_18
REMARK    6  A    between atoms: C_18  and  C_19
REMARK    7  A    between atoms: C_19  and  C_20
REMARK                            x       y       z     vdW  Elec       q    Type
REMARK                         _______ _______ _______ _____ _____    ______ ____
ROOT
ATOM      1  C   UNL     1     -17.559  43.603 -13.414  0.00  0.00    -0.087 C 
ATOM      2  C   UNL     1     -16.373  43.605 -12.413  0.00  0.00    +0.104 C 
ATOM      3  C   UNL     1     -16.389  42.576 -11.311  0.00  0.00    -0.148 C 
ATOM      4  C   UNL     1     -17.412  41.727 -11.129  0.00  0.00    +0.490 C 
ATOM      5  N   UNL     1     -18.481  41.791 -11.957  0.00  0.00    -0.751 N 
ATOM      6  C   UNL     1     -18.623  42.537 -13.098  0.00  0.00    +0.477 C 
ATOM      7  N   UNL     1     -19.631  42.187 -13.856  0.00  0.00    -0.522 NA
ATOM      8  H   UNL     1     -19.137  41.032 -11.861  0.00  0.00    +0.310 HD
ENDROOT
BRANCH   1   9
ATOM      9  C   UNL     1     -18.108  45.027 -13.490  0.00  0.00    +0.524 C 
ATOM     10  O   UNL     1     -17.695  45.863 -14.286  0.00  0.00    -0.546 OA
BRANCH   9  11
ATOM     11  N   UNL     1     -19.114  45.220 -12.637  0.00  0.00    -0.663 NA
ATOM     12  H   UNL     1     -19.512  44.293 -12.450  0.00  0.00    +0.281 HD
ENDBRANCH   9  11
ENDBRANCH   1   9
BRANCH   4  13
ATOM     13  N   UNL     1     -17.376  40.723 -10.181  0.00  0.00    -0.704 N 
ATOM     14  H   UNL     1     -16.453  40.744  -9.751  0.00  0.00    +0.247 HD
BRANCH  13  15
ATOM     15  C   UNL     1     -18.375  40.661  -9.104  0.00  0.00    +0.221 C 
ATOM     16  C   UNL     1     -18.680  42.019  -8.468  0.00  0.00    +0.033 C 
ATOM     17  C   UNL     1     -19.814  41.875  -7.450  0.00  0.00    +0.146 C 
ATOM     18  N   UNL     1     -21.028  41.296  -8.040  0.00  0.00    -0.567 NA
ATOM     19  C   UNL     1     -20.748  39.994  -8.646  0.00  0.00    +0.132 C 
ATOM     20  C   UNL     1     -19.665  40.094  -9.710  0.00  0.00    -0.019 C 
ATOM     21  H   UNL     1     -21.368  41.932  -8.763  0.00  0.00    +0.233 HD
ENDBRANCH  13  15
ENDBRANCH   4  13
BRANCH   7  22
ATOM     22  C   UNL     1     -19.831  42.820 -15.007  0.00  0.00    +0.169 C 
BRANCH  22  23
ATOM     23  C   UNL     1     -20.050  43.533 -16.339  0.00  0.00    -0.087 C 
BRANCH  23  24
ATOM     24  C   UNL     1     -20.179  44.235 -17.559  0.00  0.00    +0.007 C 
ATOM     25  C   UNL     1     -21.224  45.143 -17.707  0.00  0.00    -0.034 C 
ATOM     26  C   UNL     1     -21.359  45.859 -18.890  0.00  0.00    -0.059 C 
ATOM     27  C   UNL     1     -20.446  45.667 -19.924  0.00  0.00    -0.065 C 
ATOM     28  C   UNL     1     -19.399  44.757 -19.777  0.00  0.00    -0.063 C 
ATOM     29  C   UNL     1     -19.263  44.037 -18.591  0.00  0.00    -0.060 C 
ENDBRANCH  23  24
ENDBRANCH  22  23
ENDBRANCH   7  22
TORSDOF 7
ENDMDL
MODEL 2
REMARK VINA RESULT:    -6.766      2.826      3.990
REMARK INTER + INTRA:         -10.082
REMARK INTER:                  -9.873
REMARK INTRA:                  -0.209
REMARK UNBOUND:                -0.745
REMARK  Name = 
REMARK  7 active torsions:
REMARK  status: ('A' for Active; 'I' for Inactive)
REMARK    1  A    between atoms: N_1  and  C_2
REMARK    2  A    between atoms: C_2  and  C_4
REMARK    3  A    between atoms: C_7  and  N_8
REMARK    4  A    between atoms: N_8  and  C_9
REMARK    5  A    between atoms: N_17  and  C_18
REMARK    6  A    between atoms: C_18  and  C_19
REMARK    7  A    between atoms: C_19  and  C_20
REMARK                            x       y       z     vdW  Elec       q    Type
REMARK                         _______ _______ _______ _____ _____    ______ ____
ROOT
ATOM      1  C   UNL     1     -18.825  41.679 -11.925  0.00  0.00    -0.087 C 
ATOM      2  C   UNL     1     -19.652  40.427 -11.528  0.00  0.00    +0.104 C 
ATOM      3  C   UNL     1     -19.699  40.056 -10.068  0.00  0.00    -0.148 C 
ATOM      4  C   UNL     1     -19.001  40.716  -9.131  0.00  0.00    +0.490 C 
ATOM      5  N   UNL     1     -18.215  41.756  -9.500  0.00  0.00    -0.751 N 
ATOM      6  C   UNL     1     -18.128  42.354 -10.730  0.00  0.00    +0.477 C 
ATOM      7  N   UNL     1     -17.517  43.512 -10.731  0.00  0.00    -0.522 NA
ATOM      8  H   UNL     1     -17.845  42.298  -8.737  0.00  0.00    +0.310 HD
ENDROOT
BRANCH   1   9
ATOM      9  C   UNL     1     -17.876  41.274 -13.052  0.00  0.00    +0.524 C 
ATOM     10  O   UNL     1     -16.861  40.612 -12.868  0.00  0.00    -0.546 OA
BRANCH   9  11
ATOM     11  N   UNL     1     -18.317  41.676 -14.244  0.00  0.00    -0.663 NA
ATOM     12  H   UNL     1     -18.882  42.515 -14.072  0.00  0.00    +0.281 HD
ENDBRANCH   9  11
ENDBRANCH   1   9
BRANCH   4  13
ATOM     13  N   UNL     1     -19.126  40.435  -7.784  0.00  0.00    -0.704 N 
ATOM     14  H   UNL     1     -18.324  40.849  -7.312  0.00  0.00    +0.247 HD
BRANCH  13  15
ATOM     15  C   UNL     1     -20.336  40.816  -7.041  0.00  0.00    +0.221 C 
ATOM     16  C   UNL     1     -20.267  42.217  -6.429  0.00  0.00    +0.033 C 
ATOM     17  C   UNL     1     -21.610  42.571  -5.785  0.00  0.00    +0.146 C 
ATOM     18  N   UNL     1     -22.729  42.474  -6.731  0.00  0.00    -0.567 NA
ATOM     19  C   UNL     1     -22.807  41.136  -7.317  0.00  0.00    +0.132 C 
ATOM     20  C   UNL     1     -21.512  40.758  -8.022  0.00  0.00    -0.019 C 
ATOM     21  H   UNL     1     -22.579  43.154  -7.477  0.00  0.00    +0.233 HD
ENDBRANCH  13  15
ENDBRANCH   4  13
BRANCH   7  22
ATOM     22  C   UNL     1     -17.416  44.193 -11.867  0.00  0.00    +0.169 C 
BRANCH  22  23
ATOM     23  C   UNL     1     -17.280  44.968 -13.175  0.00  0.00    -0.087 C 
BRANCH  23  24
ATOM     24  C   UNL     1     -17.132  45.754 -14.341  0.00  0.00    +0.007 C 
ATOM     25  C   UNL     1     -15.851  45.998 -14.830  0.00  0.00    -0.034 C 
ATOM     26  C   UNL     1     -15.682  46.750 -15.986  0.00  0.00    -0.059 C 
ATOM     27  C   UNL     1     -16.795  47.255 -16.654  0.00  0.00    -0.065 C 
ATOM     28  C   UNL     1     -18.079  47.010 -16.165  0.00  0.00    -0.063 C 
ATOM     29  C   UNL     1     -18.250  46.256 -15.004  0.00  0.00    -0.060 C 
ENDBRANCH  23  24
ENDBRANCH  22  23
ENDBRANCH   7  22
TORSDOF 7
ENDMDL
MODEL 3
REMARK VINA RESULT:    -6.309      3.392      8.824
REMARK INTER + INTRA:          -9.451
REMARK INTER:                  -8.577
REMARK INTRA:                  -0.874
REMARK UNBOUND:                -0.745
REMARK  Name = 
REMARK  7 active torsions:
REMARK  status: ('A' for Active; 'I' for Inactive)
REMARK    1  A    between atoms: N_1  and  C_2
REMARK    2  A    between atoms: C_2  and  C_4
REMARK    3  A    between atoms: C_7  and  N_8
REMARK    4  A    between atoms: N_8  and  C_9
REMARK    5  A    between atoms: N_17  and  C_18
REMARK    6  A    between atoms: C_18  and  C_19
REMARK    7  A    between atoms: C_19  and  C_20
REMARK                            x       y       z     vdW  Elec       q    Type
REMARK                         _______ _______ _______ _____ _____    ______ ____
ROOT
ATOM      1  C   UNL     1     -17.083  42.145 -12.511  0.00  0.00    -0.087 C 
ATOM      2  C   UNL     1     -18.423  41.587 -13.060  0.00  0.00    +0.104 C 
ATOM      3  C   UNL     1     -19.208  42.461 -14.005  0.00  0.00    -0.148 C 
ATOM      4  C   UNL     1     -18.829  43.709 -14.319  0.00  0.00    +0.490 C 
ATOM      5  N   UNL     1     -17.701  44.218 -13.768  0.00  0.00    -0.751 N 
ATOM      6  C   UNL     1     -16.767  43.568 -13.006  0.00  0.00    +0.477 C 
ATOM      7  N   UNL     1     -15.640  44.217 -12.855  0.00  0.00    -0.522 NA
ATOM      8  H   UNL     1     -17.396  45.093 -14.161  0.00  0.00    +0.310 HD
ENDROOT
BRANCH   1   9
ATOM      9  C   UNL     1     -17.108  42.006 -10.990  0.00  0.00    +0.524 C 
ATOM     10  O   UNL     1     -17.616  42.840 -10.248  0.00  0.00    -0.546 OA
BRANCH   9  11
ATOM     11  N   UNL     1     -16.568  40.857 -10.585  0.00  0.00    -0.663 NA
ATOM     12  H   UNL     1     -15.751  40.697 -11.185  0.00  0.00    +0.281 HD
ENDBRANCH   9  11
ENDBRANCH   1   9
BRANCH   4  13
ATOM     13  N   UNL     1     -19.498  44.467 -15.261  0.00  0.00    -0.704 N 
ATOM     14  H   UNL     1     -18.966  45.326 -15.393  0.00  0.00    +0.247 HD
BRANCH  13  15
ATOM     15  C   UNL     1     -19.810  43.919 -16.589  0.00  0.00    +0.221 C 
ATOM     16  C   UNL     1     -21.305  43.917 -16.919  0.00  0.00    +0.033 C 
ATOM     17  C   UNL     1     -21.520  43.448 -18.360  0.00  0.00    +0.146 C 
ATOM     18  N   UNL     1     -20.776  44.260 -19.332  0.00  0.00    -0.567 NA
ATOM     19  C   UNL     1     -19.345  44.263 -19.028  0.00  0.00    +0.132 C 
ATOM     20  C   UNL     1     -19.073  44.778 -17.623  0.00  0.00    -0.019 C 
ATOM     21  H   UNL     1     -21.127  45.218 -19.285  0.00  0.00    +0.233 HD
ENDBRANCH  13  15
ENDBRANCH   4  13
BRANCH   7  22
ATOM     22  C   UNL     1     -14.651  43.655 -12.167  0.00  0.00    +0.169 C 
BRANCH  22  23
ATOM     23  C   UNL     1     -13.520  42.990 -11.387  0.00  0.00    -0.087 C 
BRANCH  23  24
ATOM     24  C   UNL     1     -12.440  42.348 -10.739  0.00  0.00    +0.007 C 
ATOM     25  C   UNL     1     -12.027  41.099 -11.195  0.00  0.00    -0.034 C 
ATOM     26  C   UNL     1     -10.956  40.458 -10.587  0.00  0.00    -0.059 C 
ATOM     27  C   UNL     1     -10.295  41.069  -9.524  0.00  0.00    -0.065 C 
ATOM     28  C   UNL     1     -10.708  42.320  -9.066  0.00  0.00    -0.063 C 
ATOM     29  C   UNL     1     -11.785  42.964  -9.675  0.00  0.00    -0.060 C 
ENDBRANCH  23  24
ENDBRANCH  22  23
ENDBRANCH   7  22
TORSDOF 7
ENDMDL
MODEL 4
REMARK VINA RESULT:    -5.989      4.267      8.984
REMARK INTER + INTRA:          -9.010
REMARK INTER:                  -8.074
REMARK INTRA:                  -0.936
REMARK UNBOUND:                -0.745
REMARK  Name = 
REMARK  7 active torsions:
REMARK  status: ('A' for Active; 'I' for Inactive)
REMARK    1  A    between atoms: N_1  and  C_2
REMARK    2  A    between atoms: C_2  and  C_4
REMARK    3  A    between atoms: C_7  and  N_8
REMARK    4  A    between atoms: N_8  and  C_9
REMARK    5  A    between atoms: N_17  and  C_18
REMARK    6  A    between atoms: C_18  and  C_19
REMARK    7  A    between atoms: C_19  and  C_20
REMARK                            x       y       z     vdW  Elec       q    Type
REMARK                         _______ _______ _______ _____ _____    ______ ____
ROOT
ATOM      1  C   UNL     1     -17.708  45.418 -13.670  0.00  0.00    -0.087 C 
ATOM      2  C   UNL     1     -18.013  46.479 -14.760  0.00  0.00    +0.104 C 
ATOM      3  C   UNL     1     -16.936  46.765 -15.776  0.00  0.00    -0.148 C 
ATOM      4  C   UNL     1     -15.722  46.196 -15.722  0.00  0.00    +0.490 C 
ATOM      5  N   UNL     1     -15.438  45.334 -14.717  0.00  0.00    -0.751 N 
ATOM      6  C   UNL     1     -16.293  44.823 -13.776  0.00  0.00    +0.477 C 
ATOM      7  N   UNL     1     -15.823  43.795 -13.115  0.00  0.00    -0.522 NA
ATOM      8  H   UNL     1     -14.572  44.832 -14.823  0.00  0.00    +0.310 HD
ENDROOT
BRANCH   1   9
ATOM      9  C   UNL     1     -18.021  46.041 -12.311  0.00  0.00    +0.524 C 
ATOM     10  O   UNL     1     -19.157  46.129 -11.858  0.00  0.00    -0.546 OA
BRANCH   9  11
ATOM     11  N   UNL     1     -16.915  46.416 -11.668  0.00  0.00    -0.663 NA
ATOM     12  H   UNL     1     -16.140  46.273 -12.324  0.00  0.00    +0.281 HD
ENDBRANCH   9  11
ENDBRANCH   1   9
BRANCH   4  13
ATOM     13  N   UNL     1     -14.776  46.385 -16.711  0.00  0.00    -0.704 N 
ATOM     14  H   UNL     1     -15.215  46.153 -17.600  0.00  0.00    +0.247 HD
BRANCH  13  15
ATOM     15  C   UNL     1     -14.092  47.677 -16.867  0.00  0.00    +0.221 C 
ATOM     16  C   UNL     1     -13.565  48.258 -15.553  0.00  0.00    +0.033 C 
ATOM     17  C   UNL     1     -12.765  49.533 -15.831  0.00  0.00    +0.146 C 
ATOM     18  N   UNL     1     -11.664  49.311 -16.777  0.00  0.00    -0.567 NA
ATOM     19  C   UNL     1     -12.159  48.760 -18.039  0.00  0.00    +0.132 C 
ATOM     20  C   UNL     1     -12.913  47.457 -17.823  0.00  0.00    -0.019 C 
ATOM     21  H   UNL     1     -11.012  48.646 -16.359  0.00  0.00    +0.233 HD
ENDBRANCH  13  15
ENDBRANCH   4  13
BRANCH   7  22
ATOM     22  C   UNL     1     -16.590  43.199 -12.208  0.00  0.00    +0.169 C 
BRANCH  22  23
ATOM     23  C   UNL     1     -17.453  42.511 -11.154  0.00  0.00    -0.087 C 
BRANCH  23  24
ATOM     24  C   UNL     1     -18.298  41.838 -10.241  0.00  0.00    +0.007 C 
ATOM     25  C   UNL     1     -18.365  42.292  -8.927  0.00  0.00    -0.034 C 
ATOM     26  C   UNL     1     -19.203  41.659  -8.017  0.00  0.00    -0.059 C 
ATOM     27  C   UNL     1     -19.976  40.574  -8.425  0.00  0.00    -0.065 C 
ATOM     28  C   UNL     1     -19.909  40.120  -9.742  0.00  0.00    -0.063 C 
ATOM     29  C   UNL     1     -19.068  40.753 -10.655  0.00  0.00    -0.060 C 
ENDBRANCH  23  24
ENDBRANCH  22  23
ENDBRANCH   7  22
TORSDOF 7
ENDMDL
MODEL 5
REMARK VINA RESULT:    -5.921      4.004      9.061
REMARK INTER + INTRA:          -8.916
REMARK INTER:                  -8.002
REMARK INTRA:                  -0.915
REMARK UNBOUND:                -0.745
REMARK  Name = 
REMARK  7 active torsions:
REMARK  status: ('A' for Active; 'I' for Inactive)
REMARK    1  A    between atoms: N_1  and  C_2
REMARK    2  A    between atoms: C_2  and  C_4
REMARK    3  A    between atoms: C_7  and  N_8
REMARK    4  A    between atoms: N_8  and  C_9
REMARK    5  A    between atoms: N_17  and  C_18
REMARK    6  A    between atoms: C_18  and  C_19
REMARK    7  A    between atoms: C_19  and  C_20
REMARK                            x       y       z     vdW  Elec       q    Type
REMARK                         _______ _______ _______ _____ _____    ______ ____
ROOT
ATOM      1  C   UNL     1     -17.444  46.012 -13.711  0.00  0.00    -0.087 C 
ATOM      2  C   UNL     1     -17.742  47.168 -14.703  0.00  0.00    +0.104 C 
ATOM      3  C   UNL     1     -16.643  47.573 -15.653  0.00  0.00    -0.148 C 
ATOM      4  C   UNL     1     -15.418  47.027 -15.615  0.00  0.00    +0.490 C 
ATOM      5  N   UNL     1     -15.143  46.078 -14.689  0.00  0.00    -0.751 N 
ATOM      6  C   UNL     1     -16.012  45.460 -13.830  0.00  0.00    +0.477 C 
ATOM      7  N   UNL     1     -15.538  44.383 -13.256  0.00  0.00    -0.522 NA
ATOM      8  H   UNL     1     -14.262  45.607 -14.816  0.00  0.00    +0.310 HD
ENDROOT
BRANCH   1   9
ATOM      9  C   UNL     1     -17.811  46.494 -12.309  0.00  0.00    +0.524 C 
ATOM     10  O   UNL     1     -18.943  46.407 -11.845  0.00  0.00    -0.546 OA
BRANCH   9  11
ATOM     11  N   UNL     1     -16.751  46.957 -11.647  0.00  0.00    -0.663 NA
ATOM     12  H   UNL     1     -16.936  47.951 -11.470  0.00  0.00    +0.281 HD
ENDBRANCH   9  11
ENDBRANCH   1   9
BRANCH   4  13
ATOM     13  N   UNL     1     -14.448  47.331 -16.551  0.00  0.00    -0.704 N 
ATOM     14  H   UNL     1     -13.558  47.392 -16.058  0.00  0.00    +0.247 HD
BRANCH  13  15
ATOM     15  C   UNL     1     -14.250  46.485 -17.737  0.00  0.00    +0.221 C 
ATOM     16  C   UNL     1     -15.451  46.463 -18.686  0.00  0.00    +0.033 C 
ATOM     17  C   UNL     1     -15.107  45.662 -19.944  0.00  0.00    +0.146 C 
ATOM     18  N   UNL     1     -13.915  46.178 -20.630  0.00  0.00    -0.567 NA
ATOM     19  C   UNL     1     -12.760  46.196 -19.732  0.00  0.00    +0.132 C 
ATOM     20  C   UNL     1     -13.031  47.031 -18.490  0.00  0.00    -0.019 C 
ATOM     21  H   UNL     1     -14.110  47.131 -20.939  0.00  0.00    +0.233 HD
ENDBRANCH  13  15
ENDBRANCH   4  13
BRANCH   7  22
ATOM     22  C   UNL     1     -16.317  43.685 -12.436  0.00  0.00    +0.169 C 
BRANCH  22  23
ATOM     23  C   UNL     1     -17.200  42.866 -11.498  0.00  0.00    -0.087 C 
BRANCH  23  24
ATOM     24  C   UNL     1     -17.980  42.037 -10.660  0.00  0.00    +0.007 C 
ATOM     25  C   UNL     1     -18.585  40.907 -11.204  0.00  0.00    -0.034 C 
ATOM     26  C   UNL     1     -19.339  40.067 -10.394  0.00  0.00    -0.059 C 
ATOM     27  C   UNL     1     -19.485  40.356  -9.040  0.00  0.00    -0.065 C 
ATOM     28  C   UNL     1     -18.878  41.488  -8.494  0.00  0.00    -0.063 C 
ATOM     29  C   UNL     1     -18.122  42.333  -9.305  0.00  0.00    -0.060 C 
ENDBRANCH  23  24
ENDBRANCH  22  23
ENDBRANCH   7  22
TORSDOF 7
ENDMDL
