MODEL 1
REMARK VINA RESULT:    -8.441      0.000      0.000
REMARK INTER + INTRA:         -13.112
REMARK INTER:                 -12.142
REMARK INTRA:                  -0.970
REMARK UNBOUND:                -0.970
REMARK  Name = 
REMARK  8 active torsions:
REMARK  status: ('A' for Active; 'I' for Inactive)
REMARK    1  A    between atoms: C_2  and  C_4
REMARK    2  A    between atoms: C_4  and  N_6
REMARK    3  A    between atoms: C_10  and  C_11
REMARK    4  A    between atoms: C_11  and  N_13
REMARK    5  A    between atoms: C_14  and  O_15
REMARK    6  A    between atoms: C_14  and  O_16
REMARK    7  A    between atoms: O_16  and  C_17
REMARK    8  A    between atoms: C_17  and  C_18
REMARK                            x       y       z     vdW  Elec       q    Type
REMARK                         _______ _______ _______ _____ _____    ______ ____
ROOT
ATOM      1  C   UNL     1     -17.650  42.445 -11.237  0.00  0.00    +0.514 C 
ATOM      2  O   UNL     1     -16.453  42.573 -11.007  0.00  0.00    -0.486 OA
ENDROOT
BRANCH   1   7
ATOM      3  N   UNL     1     -19.745  44.124 -16.161  0.00  0.00    -0.532 NA
ATOM      4  C   UNL     1     -19.272  43.686 -15.035  0.00  0.00    +0.508 A 
ATOM      5  C   UNL     1     -18.424  44.662 -14.268  0.00  0.00    +0.012 A 
ATOM      6  C   UNL     1     -17.991  44.294 -13.049  0.00  0.00    +0.140 A 
ATOM      7  C   UNL     1     -18.260  42.965 -12.502  0.00  0.00    -0.105 A 
ATOM      8  C   UNL     1     -18.986  42.101 -13.233  0.00  0.00    +0.316 A 
ATOM      9  N   UNL     1     -19.465  42.438 -14.476  0.00  0.00    -0.642 N 
ATOM     10  H   UNL     1     -20.105  41.791 -14.938  0.00  0.00    +0.344 HD
BRANCH   3  11
ATOM     11  C   UNL     1     -20.546  43.294 -16.925  0.00  0.00    +0.511 C 
ATOM     12  O   UNL     1     -20.374  42.079 -17.037  0.00  0.00    -0.504 OA
BRANCH  11  14
ATOM     13  C   UNL     1     -21.657  44.304 -19.146  0.00  0.00    +0.049 C 
ATOM     14  C   UNL     1     -21.665  44.027 -17.649  0.00  0.00    -0.056 C 
ATOM     15  C   UNL     1     -22.930  44.457 -16.925  0.00  0.00    +0.056 C 
ENDBRANCH  11  14
ENDBRANCH   3  11
ENDBRANCH   1   7
BRANCH   1  16
ATOM     16  N   UNL     1     -18.520  41.875 -10.359  0.00  0.00    -0.551 NA
ATOM     17  C   UNL     1     -18.185  40.817  -9.706  0.00  0.00    +0.689 C 
BRANCH  17  18
ATOM     18  O   UNL     1     -16.979  40.216  -9.692  0.00  0.00    -0.634 OA
ATOM     19  H   UNL     1     -16.774  39.749  -8.872  0.00  0.00    +0.316 HD
ENDBRANCH  17  18
BRANCH  17  20
ATOM     20  O   UNL     1     -19.078  40.229  -8.887  0.00  0.00    -0.508 OA
BRANCH  20  21
ATOM     21  C   UNL     1     -20.461  40.577  -9.034  0.00  0.00    +0.314 C 
BRANCH  21  22
ATOM     22  C   UNL     1     -20.977  41.220  -7.783  0.00  0.00    +0.023 A 
ATOM     23  C   UNL     1     -20.134  41.813  -6.841  0.00  0.00    +0.122 A 
ATOM     24  C   UNL     1     -20.689  42.483  -5.757  0.00  0.00    +0.034 A 
ATOM     25  C   UNL     1     -22.068  42.544  -5.655  0.00  0.00    +0.230 A 
ATOM     26  N   UNL     1     -22.913  41.986  -6.548  0.00  0.00    -0.349 NA
ATOM     27  C   UNL     1     -22.348  41.342  -7.591  0.00  0.00    +0.192 A 
ENDBRANCH  21  22
ENDBRANCH  20  21
ENDBRANCH  17  20
ENDBRANCH   1  16
TORSDOF 8
ENDMDL
MODEL 2
REMARK VINA RESULT:    -7.983      2.648      3.315
REMARK INTER + INTRA:         -12.453
REMARK INTER:                 -11.277
REMARK INTRA:                  -1.176
REMARK UNBOUND:                -0.970
REMARK  Name = 
REMARK  8 active torsions:
REMARK  status: ('A' for Active; 'I' for Inactive)
REMARK    1  A    between atoms: C_2  and  C_4
REMARK    2  A    between atoms: C_4  and  N_6
REMARK    3  A    between atoms: C_10  and  C_11
REMARK    4  A    between atoms: C_11  and  N_13
REMARK    5  A    between atoms: C_14  and  O_15
REMARK    6  A    between atoms: C_14  and  O_16
REMARK    7  A    between atoms: O_16  and  C_17
REMARK    8  A    between atoms: C_17  and  C_18
REMARK                            x       y       z     vdW  Elec       q    Type
REMARK                         _______ _______ _______ _____ _____    ______ ____
ROOT
ATOM      1  C   UNL     1     -17.398  40.531 -12.479  0.00  0.00    +0.514 C 
ATOM      2  O   UNL     1     -16.754  39.665 -13.060  0.00  0.00    -0.486 OA
ENDROOT
BRANCH   1   7
ATOM      3  N   UNL     1     -18.416  45.640 -14.553  0.00  0.00    -0.532 NA
ATOM      4  C   UNL     1     -18.138  44.477 -14.050  0.00  0.00    +0.508 A 
ATOM      5  C   UNL     1     -19.258  43.476 -14.078  0.00  0.00    +0.012 A 
ATOM      6  C   UNL     1     -18.993  42.225 -13.661  0.00  0.00    +0.140 A 
ATOM      7  C   UNL     1     -17.687  41.851 -13.122  0.00  0.00    -0.105 A 
ATOM      8  C   UNL     1     -16.718  42.784 -13.072  0.00  0.00    +0.316 A 
ATOM      9  N   UNL     1     -16.937  44.069 -13.503  0.00  0.00    -0.642 N 
ATOM     10  H   UNL     1     -16.139  44.704 -13.551  0.00  0.00    +0.344 HD
BRANCH   3  11
ATOM     11  C   UNL     1     -17.438  46.618 -14.579  0.00  0.00    +0.511 C 
ATOM     12  O   UNL     1     -16.946  47.129 -13.571  0.00  0.00    -0.504 OA
BRANCH  11  14
ATOM     13  C   UNL     1     -15.947  46.325 -16.787  0.00  0.00    +0.049 C 
ATOM     14  C   UNL     1     -17.028  47.033 -15.983  0.00  0.00    -0.056 C 
ATOM     15  C   UNL     1     -17.750  48.146 -16.723  0.00  0.00    +0.056 C 
ENDBRANCH  11  14
ENDBRANCH   3  11
ENDBRANCH   1   7
BRANCH   1  16
ATOM     16  N   UNL     1     -17.855  40.388 -11.204  0.00  0.00    -0.551 NA
ATOM     17  C   UNL     1     -18.903  39.680 -10.965  0.00  0.00    +0.689 C 
BRANCH  17  18
ATOM     18  O   UNL     1     -19.596  38.928 -11.842  0.00  0.00    -0.634 OA
ATOM     19  H   UNL     1     -20.462  39.284 -12.078  0.00  0.00    +0.316 HD
ENDBRANCH  17  18
BRANCH  17  20
ATOM     20  O   UNL     1     -19.379  39.598  -9.707  0.00  0.00    -0.508 OA
BRANCH  20  21
ATOM     21  C   UNL     1     -18.992  40.612  -8.772  0.00  0.00    +0.314 C 
BRANCH  21  22
ATOM     22  C   UNL     1     -20.166  41.041  -7.946  0.00  0.00    +0.023 A 
ATOM     23  C   UNL     1     -20.054  41.956  -6.897  0.00  0.00    +0.122 A 
ATOM     24  C   UNL     1     -21.202  42.389  -6.244  0.00  0.00    +0.034 A 
ATOM     25  C   UNL     1     -22.425  41.897  -6.666  0.00  0.00    +0.230 A 
ATOM     26  N   UNL     1     -22.573  41.015  -7.677  0.00  0.00    -0.349 NA
ATOM     27  C   UNL     1     -21.442  40.613  -8.295  0.00  0.00    +0.192 A 
ENDBRANCH  21  22
ENDBRANCH  20  21
ENDBRANCH  17  20
ENDBRANCH   1  16
TORSDOF 8
ENDMDL
MODEL 3
REMARK VINA RESULT:    -7.581      2.142      2.665
REMARK INTER + INTRA:         -11.874
REMARK INTER:                 -10.697
REMARK INTRA:                  -1.177
REMARK UNBOUND:                -0.970
REMARK  Name = 
REMARK  8 active torsions:
REMARK  status: ('A' for Active; 'I' for Inactive)
REMARK    1  A    between atoms: C_2  and  C_4
REMARK    2  A    between atoms: C_4  and  N_6
REMARK    3  A    between atoms: C_10  and  C_11
REMARK    4  A    between atoms: C_11  and  N_13
REMARK    5  A    between atoms: C_14  and  O_15
REMARK    6  A    between atoms: C_14  and  O_16
REMARK    7  A    between atoms: O_16  and  C_17
REMARK    8  A    between atoms: C_17  and  C_18
REMARK                            x       y       z     vdW  Elec       q    Type
REMARK                         _______ _______ _______ _____ _____    ______ ____
ROOT
ATOM      1  C   UNL     1     -18.232  41.034 -12.802  0.00  0.00    +0.514 C 
ATOM      2  O   UNL     1     -17.503  40.250 -13.398  0.00  0.00    -0.486 OA
ENDROOT
BRANCH   1   7
ATOM      3  N   UNL     1     -18.629  46.249 -14.826  0.00  0.00    -0.532 NA
ATOM      4  C   UNL     1     -18.543  45.024 -14.406  0.00  0.00    +0.508 A 
ATOM      5  C   UNL     1     -18.006  44.855 -13.013  0.00  0.00    +0.012 A 
ATOM      6  C   UNL     1     -17.989  43.614 -12.493  0.00  0.00    +0.140 A 
ATOM      7  C   UNL     1     -18.403  42.446 -13.268  0.00  0.00    -0.105 A 
ATOM      8  C   UNL     1     -18.839  42.629 -14.528  0.00  0.00    +0.316 A 
ATOM      9  N   UNL     1     -18.890  43.879 -15.095  0.00  0.00    -0.642 N 
ATOM     10  H   UNL     1     -19.335  43.976 -16.009  0.00  0.00    +0.344 HD
BRANCH   3  11
ATOM     11  C   UNL     1     -19.125  46.496 -16.093  0.00  0.00    +0.511 C 
ATOM     12  O   UNL     1     -20.300  46.317 -16.422  0.00  0.00    -0.504 OA
BRANCH  11  14
ATOM     13  C   UNL     1     -16.592  47.089 -16.738  0.00  0.00    +0.049 C 
ATOM     14  C   UNL     1     -18.073  46.993 -17.073  0.00  0.00    -0.056 C 
ATOM     15  C   UNL     1     -18.430  47.347 -18.506  0.00  0.00    +0.056 C 
ENDBRANCH  11  14
ENDBRANCH   3  11
ENDBRANCH   1   7
BRANCH   1  16
ATOM     16  N   UNL     1     -18.898  40.709 -11.659  0.00  0.00    -0.551 NA
ATOM     17  C   UNL     1     -18.246  40.392 -10.596  0.00  0.00    +0.689 C 
BRANCH  17  18
ATOM     18  O   UNL     1     -16.912  40.439 -10.412  0.00  0.00    -0.634 OA
ATOM     19  H   UNL     1     -16.450  41.061 -10.988  0.00  0.00    +0.316 HD
ENDBRANCH  17  18
BRANCH  17  20
ATOM     20  O   UNL     1     -18.918  40.015  -9.491  0.00  0.00    -0.508 OA
BRANCH  20  21
ATOM     21  C   UNL     1     -18.772  40.811  -8.307  0.00  0.00    +0.314 C 
BRANCH  21  22
ATOM     22  C   UNL     1     -20.112  41.116  -7.711  0.00  0.00    +0.023 A 
ATOM     23  C   UNL     1     -20.284  42.052  -6.689  0.00  0.00    +0.122 A 
ATOM     24  C   UNL     1     -21.569  42.361  -6.257  0.00  0.00    +0.034 A 
ATOM     25  C   UNL     1     -22.639  41.728  -6.866  0.00  0.00    +0.230 A 
ATOM     26  N   UNL     1     -22.511  40.821  -7.858  0.00  0.00    -0.349 NA
ATOM     27  C   UNL     1     -21.253  40.541  -8.259  0.00  0.00    +0.192 A 
ENDBRANCH  21  22
ENDBRANCH  20  21
ENDBRANCH  17  20
ENDBRANCH   1  16
TORSDOF 8
ENDMDL
MODEL 4
REMARK VINA RESULT:    -7.082      1.883      2.726
REMARK INTER + INTRA:         -11.157
REMARK INTER:                 -10.018
REMARK INTRA:                  -1.139
REMARK UNBOUND:                -0.970
REMARK  Name = 
REMARK  8 active torsions:
REMARK  status: ('A' for Active; 'I' for Inactive)
REMARK    1  A    between atoms: C_2  and  C_4
REMARK    2  A    between atoms: C_4  and  N_6
REMARK    3  A    between atoms: C_10  and  C_11
REMARK    4  A    between atoms: C_11  and  N_13
REMARK    5  A    between atoms: C_14  and  O_15
REMARK    6  A    between atoms: C_14  and  O_16
REMARK    7  A    between atoms: O_16  and  C_17
REMARK    8  A    between atoms: C_17  and  C_18
REMARK                            x       y       z     vdW  Elec       q    Type
REMARK                         _______ _______ _______ _____ _____    ______ ____
ROOT
ATOM      1  C   UNL     1     -17.705  43.741 -13.106  0.00  0.00    +0.514 C 
ATOM      2  O   UNL     1     -16.591  44.120 -12.763  0.00  0.00    -0.486 OA
ENDROOT
BRANCH   1   7
ATOM      3  N   UNL     1     -20.398  46.038 -17.456  0.00  0.00    -0.532 NA
ATOM      4  C   UNL     1     -19.793  45.460 -16.463  0.00  0.00    +0.508 A 
ATOM      5  C   UNL     1     -18.731  46.280 -15.788  0.00  0.00    +0.012 A 
ATOM      6  C   UNL     1     -18.143  45.767 -14.693  0.00  0.00    +0.140 A 
ATOM      7  C   UNL     1     -18.457  44.426 -14.204  0.00  0.00    -0.105 A 
ATOM      8  C   UNL     1     -19.384  43.701 -14.858  0.00  0.00    +0.316 A 
ATOM      9  N   UNL     1     -20.023  44.191 -15.971  0.00  0.00    -0.642 N 
ATOM     10  H   UNL     1     -20.797  43.650 -16.359  0.00  0.00    +0.344 HD
BRANCH   3  11
ATOM     11  C   UNL     1     -21.399  45.358 -18.126  0.00  0.00    +0.511 C 
ATOM     12  O   UNL     1     -21.194  44.485 -18.971  0.00  0.00    -0.504 OA
BRANCH  11  14
ATOM     13  C   UNL     1     -23.392  47.151 -18.141  0.00  0.00    +0.049 C 
ATOM     14  C   UNL     1     -22.801  45.806 -17.742  0.00  0.00    -0.056 C 
ATOM     15  C   UNL     1     -23.752  44.883 -16.999  0.00  0.00    +0.056 C 
ENDBRANCH  11  14
ENDBRANCH   3  11
ENDBRANCH   1   7
BRANCH   1  16
ATOM     16  N   UNL     1     -18.362  42.715 -12.497  0.00  0.00    -0.551 NA
ATOM     17  C   UNL     1     -17.820  41.550 -12.421  0.00  0.00    +0.689 C 
BRANCH  17  18
ATOM     18  O   UNL     1     -16.571  41.206 -12.792  0.00  0.00    -0.634 OA
ATOM     19  H   UNL     1     -15.899  41.346 -12.113  0.00  0.00    +0.316 HD
ENDBRANCH  17  18
BRANCH  17  20
ATOM     20  O   UNL     1     -18.507  40.530 -11.871  0.00  0.00    -0.508 OA
BRANCH  20  21
ATOM     21  C   UNL     1     -18.116  40.080 -10.567  0.00  0.00    +0.314 C 
BRANCH  21  22
ATOM     22  C   UNL     1     -19.017  40.660  -9.519  0.00  0.00    +0.023 A 
ATOM     23  C   UNL     1     -20.299  40.165  -9.274  0.00  0.00    +0.122 A 
ATOM     24  C   UNL     1     -21.039  40.683  -8.216  0.00  0.00    +0.034 A 
ATOM     25  C   UNL     1     -20.468  41.673  -7.435  0.00  0.00    +0.230 A 
ATOM     26  N   UNL     1     -19.230  42.172  -7.640  0.00  0.00    -0.349 NA
ATOM     27  C   UNL     1     -18.534  41.651  -8.673  0.00  0.00    +0.192 A 
ENDBRANCH  21  22
ENDBRANCH  20  21
ENDBRANCH  17  20
ENDBRANCH   1  16
TORSDOF 8
ENDMDL
MODEL 5
REMARK VINA RESULT:    -6.970      1.912      2.795
REMARK INTER + INTRA:         -10.995
REMARK INTER:                  -9.839
REMARK INTRA:                  -1.156
REMARK UNBOUND:                -0.970
REMARK  Name = 
REMARK  8 active torsions:
REMARK  status: ('A' for Active; 'I' for Inactive)
REMARK    1  A    between atoms: C_2  and  C_4
REMARK    2  A    between atoms: C_4  and  N_6
REMARK    3  A    between atoms: C_10  and  C_11
REMARK    4  A    between atoms: C_11  and  N_13
REMARK    5  A    between atoms: C_14  and  O_15
REMARK    6  A    between atoms: C_14  and  O_16
REMARK    7  A    between atoms: O_16  and  C_17
REMARK    8  A    between atoms: C_17  and  C_18
REMARK                            x       y       z     vdW  Elec       q    Type
REMARK                         _______ _______ _______ _____ _____    ______ ____
ROOT
ATOM      1  C   UNL     1     -18.113  43.569 -12.910  0.00  0.00    +0.514 C 
ATOM      2  O   UNL     1     -17.174  44.293 -12.600  0.00  0.00    -0.486 OA
ENDROOT
BRANCH   1   7
ATOM      3  N   UNL     1     -21.135  44.666 -17.505  0.00  0.00    -0.532 NA
ATOM      4  C   UNL     1     -20.424  44.463 -16.439  0.00  0.00    +0.508 A 
ATOM      5  C   UNL     1     -20.635  43.137 -15.764  0.00  0.00    +0.012 A 
ATOM      6  C   UNL     1     -19.852  42.835 -14.713  0.00  0.00    +0.140 A 
ATOM      7  C   UNL     1     -18.874  43.783 -14.181  0.00  0.00    -0.105 A 
ATOM      8  C   UNL     1     -18.741  44.979 -14.783  0.00  0.00    +0.316 A 
ATOM      9  N   UNL     1     -19.506  45.324 -15.870  0.00  0.00    -0.642 N 
ATOM     10  H   UNL     1     -19.285  46.193 -16.359  0.00  0.00    +0.344 HD
BRANCH   3  11
ATOM     11  C   UNL     1     -20.993  45.856 -18.196  0.00  0.00    +0.511 C 
ATOM     12  O   UNL     1     -21.414  46.942 -17.792  0.00  0.00    -0.504 OA
BRANCH  11  14
ATOM     13  C   UNL     1     -20.665  44.662 -20.573  0.00  0.00    +0.049 C 
ATOM     14  C   UNL     1     -20.283  45.704 -19.531  0.00  0.00    -0.056 C 
ATOM     15  C   UNL     1     -19.182  46.661 -19.958  0.00  0.00    +0.056 C 
ENDBRANCH  11  14
ENDBRANCH   3  11
ENDBRANCH   1   7
BRANCH   1  16
ATOM     16  N   UNL     1     -18.567  42.558 -12.118  0.00  0.00    -0.551 NA
ATOM     17  C   UNL     1     -17.836  41.520 -11.908  0.00  0.00    +0.689 C 
BRANCH  17  18
ATOM     18  O   UNL     1     -16.563  41.325 -12.302  0.00  0.00    -0.634 OA
ATOM     19  H   UNL     1     -16.039  42.133 -12.378  0.00  0.00    +0.316 HD
ENDBRANCH  17  18
BRANCH  17  20
ATOM     20  O   UNL     1     -18.323  40.501 -11.173  0.00  0.00    -0.508 OA
BRANCH  20  21
ATOM     21  C   UNL     1     -17.937  40.420  -9.794  0.00  0.00    +0.314 C 
BRANCH  21  22
ATOM     22  C   UNL     1     -19.093  40.764  -8.905  0.00  0.00    +0.023 A 
ATOM     23  C   UNL     1     -19.024  41.772  -7.941  0.00  0.00    +0.122 A 
ATOM     24  C   UNL     1     -20.168  42.109  -7.225  0.00  0.00    +0.034 A 
ATOM     25  C   UNL     1     -21.343  41.431  -7.502  0.00  0.00    +0.230 A 
ATOM     26  N   UNL     1     -21.447  40.455  -8.428  0.00  0.00    -0.349 NA
ATOM     27  C   UNL     1     -20.322  40.149  -9.109  0.00  0.00    +0.192 A 
ENDBRANCH  21  22
ENDBRANCH  20  21
ENDBRANCH  17  20
ENDBRANCH   1  16
TORSDOF 8
ENDMDL
