MODEL 1
REMARK VINA RESULT:    -6.892      0.000      0.000
REMARK INTER + INTRA:          -9.784
REMARK INTER:                  -8.906
REMARK INTRA:                  -0.878
REMARK UNBOUND:                -0.878
REMARK  Name = 
REMARK  5 active torsions:
REMARK  status: ('A' for Active; 'I' for Inactive)
REMARK    1  A    between atoms: C_2  and  C_4
REMARK    2  A    between atoms: N_8  and  C_9
REMARK    3  A    between atoms: N_17  and  C_18
REMARK    4  A    between atoms: C_18  and  C_19
REMARK    5  A    between atoms: C_19  and  C_20
REMARK                            x       y       z     vdW  Elec       q    Type
REMARK                         _______ _______ _______ _____ _____    ______ ____
ROOT
ATOM      1  C   UNL     1     -18.216  40.846 -11.743  0.00  0.00    -0.063 C 
ATOM      2  C   UNL     1     -17.982  41.377 -10.344  0.00  0.00    +0.258 C 
ATOM      3  C   UNL     1     -17.294  42.720 -10.335  0.00  0.00    +0.142 C 
ATOM      4  C   UNL     1     -17.663  43.650 -11.493  0.00  0.00    +0.505 C 
ATOM      5  N   UNL     1     -17.209  44.943 -11.314  0.00  0.00    -0.641 N 
ATOM      6  N   UNL     1     -18.322  43.248 -12.541  0.00  0.00    -0.464 NA
ATOM      7  C   UNL     1     -18.729  41.941 -12.655  0.00  0.00    +0.545 C 
ATOM      8  N   UNL     1     -19.514  41.514 -13.580  0.00  0.00    -0.671 N 
ATOM      9  H   UNL     1     -16.931  45.182 -10.364  0.00  0.00    +0.319 HD
ATOM     10  H   UNL     1     -19.791  40.536 -13.652  0.00  0.00    +0.334 HD
ENDROOT
BRANCH   5  11
ATOM     11  C   UNL     1     -16.995  45.963 -12.207  0.00  0.00    +0.294 C 
ATOM     12  C   UNL     1     -18.122  46.404 -12.991  0.00  0.00    +0.009 C 
ATOM     13  C   UNL     1     -18.149  46.416 -14.545  0.00  0.00    +0.265 C 
ATOM     14  N   UNL     1     -17.126  46.023 -15.547  0.00  0.00    -0.771 N 
ATOM     15  C   UNL     1     -15.982  45.761 -14.647  0.00  0.00    +0.276 C 
ATOM     16  C   UNL     1     -15.884  45.742 -13.103  0.00  0.00    -0.006 C 
ATOM     17  H   UNL     1     -16.923  46.771 -16.220  0.00  0.00    +0.361 HD
ATOM     18  H   UNL     1     -17.410  45.164 -16.034  0.00  0.00    +0.356 HD
ENDBRANCH   5  11
BRANCH   1  20
ATOM     19  N   UNL     1     -15.957  39.967 -11.471  0.00  0.00    -0.813 N 
ATOM     20  C   UNL     1     -16.968  40.220 -12.341  0.00  0.00    +0.638 C 
ATOM     21  O   UNL     1     -16.908  39.887 -13.520  0.00  0.00    -0.463 OA
ATOM     22  H   UNL     1     -15.106  39.546 -11.839  0.00  0.00    +0.396 HD
ATOM     23  H   UNL     1     -15.887  40.353 -10.536  0.00  0.00    +0.363 HD
ENDBRANCH   1  20
BRANCH   8  24
ATOM     24  C   UNL     1     -19.906  42.320 -14.679  0.00  0.00    +0.311 C 
BRANCH  24  25
ATOM     25  C   UNL     1     -20.559  43.239 -15.712  0.00  0.00    +0.035 C 
BRANCH  25  26
ATOM     26  C   UNL     1     -21.274  44.153 -16.535  0.00  0.00    +0.027 C 
ATOM     27  C   UNL     1     -20.581  45.169 -17.191  0.00  0.00    +0.085 C 
ATOM     28  C   UNL     1     -21.279  46.125 -17.925  0.00  0.00    +0.100 C 
ATOM     29  C   UNL     1     -22.669  46.069 -17.990  0.00  0.00    +0.103 C 
ATOM     30  C   UNL     1     -23.359  45.050 -17.336  0.00  0.00    +0.093 C 
ATOM     31  C   UNL     1     -22.662  44.092 -16.605  0.00  0.00    +0.077 C 
ENDBRANCH  25  26
ENDBRANCH  24  25
ENDBRANCH   8  24
TORSDOF 5
ENDMDL
MODEL 2
REMARK VINA RESULT:    -6.725      2.170      2.860
REMARK INTER + INTRA:          -9.568
REMARK INTER:                  -8.688
REMARK INTRA:                  -0.880
REMARK UNBOUND:                -0.878
REMARK  Name = 
REMARK  5 active torsions:
REMARK  status: ('A' for Active; 'I' for Inactive)
REMARK    1  A    between atoms: C_2  and  C_4
REMARK    2  A    between atoms: N_8  and  C_9
REMARK    3  A    between atoms: N_17  and  C_18
REMARK    4  A    between atoms: C_18  and  C_19
REMARK    5  A    between atoms: C_19  and  C_20
REMARK                            x       y       z     vdW  Elec       q    Type
REMARK                         _______ _______ _______ _____ _____    ______ ____
ROOT
ATOM      1  C   UNL     1     -19.647  41.060 -11.864  0.00  0.00    -0.063 C 
ATOM      2  C   UNL     1     -19.178  41.348 -10.453  0.00  0.00    +0.258 C 
ATOM      3  C   UNL     1     -17.749  41.829 -10.398  0.00  0.00    +0.142 C 
ATOM      4  C   UNL     1     -17.305  42.694 -11.580  0.00  0.00    +0.505 C 
ATOM      5  N   UNL     1     -16.087  43.311 -11.373  0.00  0.00    -0.641 N 
ATOM      6  N   UNL     1     -18.005  42.812 -12.672  0.00  0.00    -0.464 NA
ATOM      7  C   UNL     1     -19.203  42.155 -12.812  0.00  0.00    +0.545 C 
ATOM      8  N   UNL     1     -20.016  42.349 -13.789  0.00  0.00    -0.671 N 
ATOM      9  H   UNL     1     -15.769  43.337 -10.406  0.00  0.00    +0.319 HD
ATOM     10  H   UNL     1     -20.894  41.839 -13.878  0.00  0.00    +0.334 HD
ENDROOT
BRANCH   5  11
ATOM     11  C   UNL     1     -15.178  43.846 -12.250  0.00  0.00    +0.294 C 
ATOM     12  C   UNL     1     -13.781  43.594 -11.993  0.00  0.00    +0.009 C 
ATOM     13  C   UNL     1     -12.717  44.711 -11.799  0.00  0.00    +0.265 C 
ATOM     14  N   UNL     1     -12.832  46.191 -11.826  0.00  0.00    -0.771 N 
ATOM     15  C   UNL     1     -14.239  46.324 -12.261  0.00  0.00    +0.276 C 
ATOM     16  C   UNL     1     -15.342  45.262 -12.483  0.00  0.00    -0.006 C 
ATOM     17  H   UNL     1     -12.181  46.626 -12.489  0.00  0.00    +0.361 HD
ATOM     18  H   UNL     1     -12.704  46.580 -10.883  0.00  0.00    +0.356 HD
ENDBRANCH   5  11
BRANCH   1  20
ATOM     19  N   UNL     1     -19.540  38.633 -11.636  0.00  0.00    -0.813 N 
ATOM     20  C   UNL     1     -19.165  39.712 -12.371  0.00  0.00    +0.638 C 
ATOM     21  O   UNL     1     -18.545  39.596 -13.423  0.00  0.00    -0.463 OA
ATOM     22  H   UNL     1     -19.234  37.714 -11.949  0.00  0.00    +0.396 HD
ATOM     23  H   UNL     1     -19.910  38.675 -10.693  0.00  0.00    +0.363 HD
ENDBRANCH   1  20
BRANCH   8  24
ATOM     24  C   UNL     1     -19.679  43.143 -14.915  0.00  0.00    +0.311 C 
BRANCH  24  25
ATOM     25  C   UNL     1     -19.547  43.889 -16.242  0.00  0.00    +0.035 C 
BRANCH  25  26
ATOM     26  C   UNL     1     -19.558  44.472 -17.541  0.00  0.00    +0.027 C 
ATOM     27  C   UNL     1     -18.664  45.501 -17.836  0.00  0.00    +0.085 C 
ATOM     28  C   UNL     1     -18.725  46.142 -19.071  0.00  0.00    +0.100 C 
ATOM     29  C   UNL     1     -19.687  45.760 -20.002  0.00  0.00    +0.103 C 
ATOM     30  C   UNL     1     -20.577  44.729 -19.705  0.00  0.00    +0.093 C 
ATOM     31  C   UNL     1     -20.514  44.086 -18.472  0.00  0.00    +0.077 C 
ENDBRANCH  25  26
ENDBRANCH  24  25
ENDBRANCH   8  24
TORSDOF 5
ENDMDL
MODEL 3
REMARK VINA RESULT:    -6.389      2.179      4.900
REMARK INTER + INTRA:          -9.134
REMARK INTER:                  -8.255
REMARK INTRA:                  -0.879
REMARK UNBOUND:                -0.878
REMARK  Name = 
REMARK  5 active torsions:
REMARK  status: ('A' for Active; 'I' for Inactive)
REMARK    1  A    between atoms: C_2  and  C_4
REMARK    2  A    between atoms: N_8  and  C_9
REMARK    3  A    between atoms: N_17  and  C_18
REMARK    4  A    between atoms: C_18  and  C_19
REMARK    5  A    between atoms: C_19  and  C_20
REMARK                            x       y       z     vdW  Elec       q    Type
REMARK                         _______ _______ _______ _____ _____    ______ ____
ROOT
ATOM      1  C   UNL     1     -15.113  46.238 -12.658  0.00  0.00    -0.063 C 
ATOM      2  C   UNL     1     -14.099  45.224 -12.171  0.00  0.00    +0.258 C 
ATOM      3  C   UNL     1     -14.714  43.881 -11.862  0.00  0.00    +0.142 C 
ATOM      4  C   UNL     1     -15.880  43.475 -12.766  0.00  0.00    +0.505 C 
ATOM      5  N   UNL     1     -16.248  42.152 -12.613  0.00  0.00    -0.641 N 
ATOM      6  N   UNL     1     -16.469  44.305 -13.578  0.00  0.00    -0.464 NA
ATOM      7  C   UNL     1     -16.056  45.612 -13.665  0.00  0.00    +0.545 C 
ATOM      8  N   UNL     1     -16.483  46.440 -14.552  0.00  0.00    -0.671 N 
ATOM      9  H   UNL     1     -15.566  41.560 -12.142  0.00  0.00    +0.319 HD
ATOM     10  H   UNL     1     -16.172  47.410 -14.588  0.00  0.00    +0.334 HD
ENDROOT
BRANCH   5  11
ATOM     11  C   UNL     1     -17.409  41.489 -12.923  0.00  0.00    +0.294 C 
ATOM     12  C   UNL     1     -18.637  42.017 -12.382  0.00  0.00    +0.009 C 
ATOM     13  C   UNL     1     -19.613  41.203 -11.486  0.00  0.00    +0.265 C 
ATOM     14  N   UNL     1     -19.558  39.802 -10.996  0.00  0.00    -0.771 N 
ATOM     15  C   UNL     1     -18.374  39.323 -11.741  0.00  0.00    +0.276 C 
ATOM     16  C   UNL     1     -17.372  40.071 -12.652  0.00  0.00    -0.006 C 
ATOM     17  H   UNL     1     -20.402  39.268 -11.229  0.00  0.00    +0.361 HD
ATOM     18  H   UNL     1     -19.384  39.782  -9.983  0.00  0.00    +0.356 HD
ENDBRANCH   5  11
BRANCH   1  20
ATOM     19  N   UNL     1     -15.272  47.819 -10.807  0.00  0.00    -0.813 N 
ATOM     20  C   UNL     1     -15.909  46.854 -11.520  0.00  0.00    +0.638 C 
ATOM     21  O   UNL     1     -17.080  46.560 -11.311  0.00  0.00    -0.463 OA
ATOM     22  H   UNL     1     -15.777  48.253 -10.037  0.00  0.00    +0.396 HD
ATOM     23  H   UNL     1     -14.273  47.992 -10.830  0.00  0.00    +0.363 HD
ENDBRANCH   1  20
BRANCH   8  24
ATOM     24  C   UNL     1     -17.554  46.132 -15.429  0.00  0.00    +0.311 C 
BRANCH  24  25
ATOM     25  C   UNL     1     -18.854  45.756 -16.140  0.00  0.00    +0.035 C 
BRANCH  25  26
ATOM     26  C   UNL     1     -20.105  45.308 -16.649  0.00  0.00    +0.027 C 
ATOM     27  C   UNL     1     -20.979  46.230 -17.225  0.00  0.00    +0.085 C 
ATOM     28  C   UNL     1     -22.243  45.822 -17.644  0.00  0.00    +0.100 C 
ATOM     29  C   UNL     1     -22.633  44.497 -17.475  0.00  0.00    +0.103 C 
ATOM     30  C   UNL     1     -21.757  43.577 -16.903  0.00  0.00    +0.093 C 
ATOM     31  C   UNL     1     -20.492  43.983 -16.487  0.00  0.00    +0.077 C 
ENDBRANCH  25  26
ENDBRANCH  24  25
ENDBRANCH   8  24
TORSDOF 5
ENDMDL
MODEL 4
REMARK VINA RESULT:    -6.378      2.490      7.110
REMARK INTER + INTRA:          -9.120
REMARK INTER:                  -8.415
REMARK INTRA:                  -0.705
REMARK UNBOUND:                -0.878
REMARK  Name = 
REMARK  5 active torsions:
REMARK  status: ('A' for Active; 'I' for Inactive)
REMARK    1  A    between atoms: C_2  and  C_4
REMARK    2  A    between atoms: N_8  and  C_9
REMARK    3  A    between atoms: N_17  and  C_18
REMARK    4  A    between atoms: C_18  and  C_19
REMARK    5  A    between atoms: C_19  and  C_20
REMARK                            x       y       z     vdW  Elec       q    Type
REMARK                         _______ _______ _______ _____ _____    ______ ____
ROOT
ATOM      1  C   UNL     1     -19.731  44.987 -17.422  0.00  0.00    -0.063 C 
ATOM      2  C   UNL     1     -20.785  43.898 -17.425  0.00  0.00    +0.258 C 
ATOM      3  C   UNL     1     -20.481  42.786 -16.452  0.00  0.00    +0.142 C 
ATOM      4  C   UNL     1     -19.784  43.221 -15.160  0.00  0.00    +0.505 C 
ATOM      5  N   UNL     1     -19.748  42.226 -14.202  0.00  0.00    -0.641 N 
ATOM      6  N   UNL     1     -19.266  44.405 -15.001  0.00  0.00    -0.464 NA
ATOM      7  C   UNL     1     -19.328  45.340 -16.005  0.00  0.00    +0.545 C 
ATOM      8  N   UNL     1     -18.981  46.570 -15.861  0.00  0.00    -0.671 N 
ATOM      9  H   UNL     1     -20.391  41.451 -14.354  0.00  0.00    +0.319 HD
ATOM     10  H   UNL     1     -19.023  47.242 -16.626  0.00  0.00    +0.334 HD
ENDROOT
BRANCH   5  11
ATOM     11  C   UNL     1     -18.948  42.052 -13.102  0.00  0.00    +0.294 C 
ATOM     12  C   UNL     1     -17.612  41.557 -13.325  0.00  0.00    +0.009 C 
ATOM     13  C   UNL     1     -17.045  40.264 -12.676  0.00  0.00    +0.265 C 
ATOM     14  N   UNL     1     -17.655  39.287 -11.739  0.00  0.00    -0.771 N 
ATOM     15  C   UNL     1     -18.931  39.977 -11.454  0.00  0.00    +0.276 C 
ATOM     16  C   UNL     1     -19.549  41.263 -12.051  0.00  0.00    -0.006 C 
ATOM     17  H   UNL     1     -17.094  39.147 -10.892  0.00  0.00    +0.361 HD
ATOM     18  H   UNL     1     -17.825  38.391 -12.214  0.00  0.00    +0.356 HD
ENDBRANCH   5  11
BRANCH   1  20
ATOM     19  N   UNL     1     -18.538  43.385 -18.824  0.00  0.00    -0.813 N 
ATOM     20  C   UNL     1     -18.502  44.606 -18.228  0.00  0.00    +0.638 C 
ATOM     21  O   UNL     1     -17.569  45.383 -18.400  0.00  0.00    -0.463 OA
ATOM     22  H   UNL     1     -17.730  43.099 -19.373  0.00  0.00    +0.396 HD
ATOM     23  H   UNL     1     -19.198  42.649 -18.596  0.00  0.00    +0.363 HD
ENDBRANCH   1  20
BRANCH   8  24
ATOM     24  C   UNL     1     -18.339  47.048 -14.691  0.00  0.00    +0.311 C 
BRANCH  24  25
ATOM     25  C   UNL     1     -17.476  47.345 -13.464  0.00  0.00    +0.035 C 
BRANCH  25  26
ATOM     26  C   UNL     1     -16.529  47.568 -12.426  0.00  0.00    +0.027 C 
ATOM     27  C   UNL     1     -16.672  48.680 -11.597  0.00  0.00    +0.085 C 
ATOM     28  C   UNL     1     -15.702  48.961 -10.637  0.00  0.00    +0.100 C 
ATOM     29  C   UNL     1     -14.588  48.135 -10.518  0.00  0.00    +0.103 C 
ATOM     30  C   UNL     1     -14.450  47.023 -11.345  0.00  0.00    +0.093 C 
ATOM     31  C   UNL     1     -15.420  46.739 -12.303  0.00  0.00    +0.077 C 
ENDBRANCH  25  26
ENDBRANCH  24  25
ENDBRANCH   8  24
TORSDOF 5
ENDMDL
MODEL 5
REMARK VINA RESULT:    -5.982     22.520     24.840
REMARK INTER + INTRA:          -8.608
REMARK INTER:                  -7.690
REMARK INTRA:                  -0.917
REMARK UNBOUND:                -0.878
REMARK  Name = 
REMARK  5 active torsions:
REMARK  status: ('A' for Active; 'I' for Inactive)
REMARK    1  A    between atoms: C_2  and  C_4
REMARK    2  A    between atoms: N_8  and  C_9
REMARK    3  A    between atoms: N_17  and  C_18
REMARK    4  A    between atoms: C_18  and  C_19
REMARK    5  A    between atoms: C_19  and  C_20
REMARK                            x       y       z     vdW  Elec       q    Type
REMARK                         _______ _______ _______ _____ _____    ______ ____
ROOT
ATOM      1  C   UNL     1     -34.298  45.536   6.375  0.00  0.00    -0.063 C 
ATOM      2  C   UNL     1     -34.567  45.312   7.848  0.00  0.00    +0.258 C 
ATOM      3  C   UNL     1     -34.908  43.877   8.169  0.00  0.00    +0.142 C 
ATOM      4  C   UNL     1     -34.185  42.829   7.319  0.00  0.00    +0.505 C 
ATOM      5  N   UNL     1     -34.333  41.544   7.803  0.00  0.00    -0.641 N 
ATOM      6  N   UNL     1     -33.519  43.130   6.242  0.00  0.00    -0.464 NA
ATOM      7  C   UNL     1     -33.428  44.431   5.813  0.00  0.00    +0.545 C 
ATOM      8  N   UNL     1     -32.661  44.817   4.855  0.00  0.00    -0.671 N 
ATOM      9  H   UNL     1     -34.660  41.474   8.766  0.00  0.00    +0.319 HD
ATOM     10  H   UNL     1     -32.621  45.788   4.546  0.00  0.00    +0.334 HD
ENDROOT
BRANCH   5  11
ATOM     11  C   UNL     1     -34.184  40.322   7.199  0.00  0.00    +0.294 C 
ATOM     12  C   UNL     1     -34.651  39.163   7.920  0.00  0.00    +0.009 C 
ATOM     13  C   UNL     1     -33.755  37.949   8.291  0.00  0.00    +0.265 C 
ATOM     14  N   UNL     1     -32.320  37.673   8.027  0.00  0.00    -0.771 N 
ATOM     15  C   UNL     1     -32.000  38.821   7.152  0.00  0.00    +0.276 C 
ATOM     16  C   UNL     1     -32.843  40.050   6.736  0.00  0.00    -0.006 C 
ATOM     17  H   UNL     1     -32.170  36.774   7.555  0.00  0.00    +0.361 HD
ATOM     18  H   UNL     1     -31.778  37.718   8.900  0.00  0.00    +0.356 HD
ENDBRANCH   5  11
BRANCH   1  20
ATOM     19  N   UNL     1     -36.528  46.477   6.068  0.00  0.00    -0.813 N 
ATOM     20  C   UNL     1     -35.576  45.649   5.563  0.00  0.00    +0.638 C 
ATOM     21  O   UNL     1     -35.710  45.094   4.478  0.00  0.00    -0.463 OA
ATOM     22  H   UNL     1     -37.397  46.576   5.547  0.00  0.00    +0.396 HD
ATOM     23  H   UNL     1     -36.541  46.834   7.017  0.00  0.00    +0.363 HD
ENDBRANCH   1  20
BRANCH   8  24
ATOM     24  C   UNL     1     -31.955  43.906   4.030  0.00  0.00    +0.311 C 
BRANCH  24  25
ATOM     25  C   UNL     1     -31.386  42.739   3.222  0.00  0.00    +0.035 C 
BRANCH  25  26
ATOM     26  C   UNL     1     -30.767  41.606   2.625  0.00  0.00    +0.027 C 
ATOM     27  C   UNL     1     -29.774  41.795   1.665  0.00  0.00    +0.085 C 
ATOM     28  C   UNL     1     -29.224  40.698   1.007  0.00  0.00    +0.100 C 
ATOM     29  C   UNL     1     -29.679  39.416   1.302  0.00  0.00    +0.103 C 
ATOM     30  C   UNL     1     -30.669  39.228   2.264  0.00  0.00    +0.093 C 
ATOM     31  C   UNL     1     -31.217  40.324   2.925  0.00  0.00    +0.077 C 
ENDBRANCH  25  26
ENDBRANCH  24  25
ENDBRANCH   8  24
TORSDOF 5
ENDMDL
