MODEL 1
REMARK VINA RESULT:    -8.671      0.000      0.000
REMARK INTER + INTRA:         -13.720
REMARK INTER:                 -12.472
REMARK INTRA:                  -1.247
REMARK UNBOUND:                -1.247
REMARK  Name = 
REMARK  8 active torsions:
REMARK  status: ('A' for Active; 'I' for Inactive)
REMARK    1  A    between atoms: C_2  and  C_4
REMARK    2  A    between atoms: N_6  and  C_7
REMARK    3  A    between atoms: C_10  and  C_11
REMARK    4  A    between atoms: C_11  and  N_13
REMARK    5  A    between atoms: C_14  and  O_15
REMARK    6  A    between atoms: C_14  and  O_16
REMARK    7  A    between atoms: O_16  and  C_17
REMARK    8  A    between atoms: C_17  and  C_18
REMARK                            x       y       z     vdW  Elec       q    Type
REMARK                         _______ _______ _______ _____ _____    ______ ____
ROOT
ATOM      1  C   UNL     1     -19.203  40.287  -9.722  0.00  0.00    +0.543 C 
ATOM      2  C   UNL     1     -19.634  39.573 -10.775  0.00  0.00    -0.048 C 
ATOM      3  C   UNL     1     -18.837  39.500 -12.053  0.00  0.00    +0.149 C 
ATOM      4  C   UNL     1     -17.769  40.594 -12.149  0.00  0.00    +0.006 C 
ATOM      5  C   UNL     1     -17.011  40.710 -10.834  0.00  0.00    +0.282 C 
ATOM      6  N   UNL     1     -17.937  40.813  -9.726  0.00  0.00    -0.602 N 
ATOM      7  H   UNL     1     -17.811  41.590  -9.075  0.00  0.00    +0.333 HD
ENDROOT
BRANCH   1  10
ATOM      8  C   UNL     1     -19.965  41.563  -7.763  0.00  0.00    +0.540 C 
ATOM      9  O   UNL     1     -18.990  42.316  -7.690  0.00  0.00    -0.510 OA
ATOM     10  N   UNL     1     -20.084  40.536  -8.704  0.00  0.00    -0.746 N 
ATOM     11  H   UNL     1     -20.950  40.003  -8.704  0.00  0.00    +0.302 HD
BRANCH   8  13
ATOM     12  C   UNL     1     -21.063  42.277  -5.448  0.00  0.00    +0.039 C 
ATOM     13  C   UNL     1     -21.163  41.704  -6.844  0.00  0.00    -0.076 C 
ATOM     14  C   UNL     1     -22.566  41.342  -7.316  0.00  0.00    -0.002 C 
ENDBRANCH   8  13
ENDBRANCH   1  10
BRANCH   4  15
ATOM     15  C   UNL     1     -18.365  41.956 -12.517  0.00  0.00    +0.511 C 
ATOM     16  O   UNL     1     -18.009  43.027 -12.035  0.00  0.00    -0.520 OA
BRANCH  15  17
ATOM     17  N   UNL     1     -19.331  41.868 -13.490  0.00  0.00    -0.601 NA
ATOM     18  C   UNL     1     -19.290  42.698 -14.464  0.00  0.00    +0.716 C 
BRANCH  18  19
ATOM     19  O   UNL     1     -18.415  43.708 -14.634  0.00  0.00    -0.624 OA
ATOM     20  H   UNL     1     -17.731  43.664 -13.932  0.00  0.00    +0.355 HD
ENDBRANCH  18  19
BRANCH  18  21
ATOM     21  O   UNL     1     -20.200  42.598 -15.457  0.00  0.00    -0.516 OA
BRANCH  21  22
ATOM     22  C   UNL     1     -19.928  43.249 -16.708  0.00  0.00    +0.296 C 
BRANCH  22  23
ATOM     23  C   UNL     1     -21.051  44.202 -17.015  0.00  0.00    +0.019 A 
ATOM     24  C   UNL     1     -22.362  43.931 -16.608  0.00  0.00    +0.040 A 
ATOM     25  C   UNL     1     -23.387  44.817 -16.929  0.00  0.00    +0.019 A 
ATOM     26  C   UNL     1     -23.072  45.949 -17.663  0.00  0.00    +0.216 A 
ATOM     27  N   UNL     1     -21.825  46.242 -18.085  0.00  0.00    -0.364 NA
ATOM     28  C   UNL     1     -20.848  45.365 -17.756  0.00  0.00    +0.245 A 
ENDBRANCH  22  23
ENDBRANCH  21  22
ENDBRANCH  18  21
ENDBRANCH  15  17
ENDBRANCH   4  15
TORSDOF 8
ENDMDL
MODEL 2
REMARK VINA RESULT:    -8.439      2.027      7.845
REMARK INTER + INTRA:         -13.386
REMARK INTER:                 -11.927
REMARK INTRA:                  -1.459
REMARK UNBOUND:                -1.247
REMARK  Name = 
REMARK  8 active torsions:
REMARK  status: ('A' for Active; 'I' for Inactive)
REMARK    1  A    between atoms: C_2  and  C_4
REMARK    2  A    between atoms: N_6  and  C_7
REMARK    3  A    between atoms: C_10  and  C_11
REMARK    4  A    between atoms: C_11  and  N_13
REMARK    5  A    between atoms: C_14  and  O_15
REMARK    6  A    between atoms: C_14  and  O_16
REMARK    7  A    between atoms: O_16  and  C_17
REMARK    8  A    between atoms: C_17  and  C_18
REMARK                            x       y       z     vdW  Elec       q    Type
REMARK                         _______ _______ _______ _____ _____    ______ ____
ROOT
ATOM      1  C   UNL     1     -17.912  44.372 -13.784  0.00  0.00    +0.543 C 
ATOM      2  C   UNL     1     -18.436  44.557 -12.560  0.00  0.00    -0.048 C 
ATOM      3  C   UNL     1     -17.701  44.121 -11.318  0.00  0.00    +0.149 C 
ATOM      4  C   UNL     1     -16.565  43.139 -11.616  0.00  0.00    +0.006 C 
ATOM      5  C   UNL     1     -15.745  43.621 -12.805  0.00  0.00    +0.282 C 
ATOM      6  N   UNL     1     -16.614  43.952 -13.914  0.00  0.00    -0.602 N 
ATOM      7  H   UNL     1     -16.406  43.527 -14.820  0.00  0.00    +0.333 HD
ENDROOT
BRANCH   1  10
ATOM      8  C   UNL     1     -19.603  43.571 -15.377  0.00  0.00    +0.540 C 
ATOM      9  O   UNL     1     -19.672  42.415 -14.950  0.00  0.00    -0.510 OA
ATOM     10  N   UNL     1     -18.729  44.535 -14.870  0.00  0.00    -0.746 N 
ATOM     11  H   UNL     1     -18.786  45.470 -15.267  0.00  0.00    +0.302 HD
BRANCH   8  13
ATOM     12  C   UNL     1     -20.402  45.471 -17.060  0.00  0.00    +0.039 C 
ATOM     13  C   UNL     1     -20.502  44.072 -16.491  0.00  0.00    -0.076 C 
ATOM     14  C   UNL     1     -21.516  43.154 -17.161  0.00  0.00    -0.002 C 
ENDBRANCH   8  13
ENDBRANCH   1  10
BRANCH   4  15
ATOM     15  C   UNL     1     -17.079  41.722 -11.891  0.00  0.00    +0.511 C 
ATOM     16  O   UNL     1     -17.028  41.161 -12.981  0.00  0.00    -0.520 OA
BRANCH  15  17
ATOM     17  N   UNL     1     -17.580  41.111 -10.767  0.00  0.00    -0.601 NA
ATOM     18  C   UNL     1     -18.766  40.630 -10.814  0.00  0.00    +0.716 C 
BRANCH  18  19
ATOM     19  O   UNL     1     -19.627  40.693 -11.848  0.00  0.00    -0.624 OA
ATOM     20  H   UNL     1     -20.425  41.193 -11.574  0.00  0.00    +0.355 HD
ENDBRANCH  18  19
BRANCH  18  21
ATOM     21  O   UNL     1     -19.259  39.982  -9.738  0.00  0.00    -0.516 OA
BRANCH  21  22
ATOM     22  C   UNL     1     -18.977  40.506  -8.430  0.00  0.00    +0.296 C 
BRANCH  22  23
ATOM     23  C   UNL     1     -20.254  41.024  -7.828  0.00  0.00    +0.019 A 
ATOM     24  C   UNL     1     -20.238  41.979  -6.806  0.00  0.00    +0.040 A 
ATOM     25  C   UNL     1     -21.435  42.422  -6.248  0.00  0.00    +0.019 A 
ATOM     26  C   UNL     1     -22.620  41.884  -6.723  0.00  0.00    +0.216 A 
ATOM     27  N   UNL     1     -22.680  40.954  -7.697  0.00  0.00    -0.364 NA
ATOM     28  C   UNL     1     -21.502  40.545  -8.224  0.00  0.00    +0.245 A 
ENDBRANCH  22  23
ENDBRANCH  21  22
ENDBRANCH  18  21
ENDBRANCH  15  17
ENDBRANCH   4  15
TORSDOF 8
ENDMDL
MODEL 3
REMARK VINA RESULT:    -7.686      3.167      4.682
REMARK INTER + INTRA:         -12.303
REMARK INTER:                 -10.743
REMARK INTRA:                  -1.561
REMARK UNBOUND:                -1.247
REMARK  Name = 
REMARK  8 active torsions:
REMARK  status: ('A' for Active; 'I' for Inactive)
REMARK    1  A    between atoms: C_2  and  C_4
REMARK    2  A    between atoms: N_6  and  C_7
REMARK    3  A    between atoms: C_10  and  C_11
REMARK    4  A    between atoms: C_11  and  N_13
REMARK    5  A    between atoms: C_14  and  O_15
REMARK    6  A    between atoms: C_14  and  O_16
REMARK    7  A    between atoms: O_16  and  C_17
REMARK    8  A    between atoms: C_17  and  C_18
REMARK                            x       y       z     vdW  Elec       q    Type
REMARK                         _______ _______ _______ _____ _____    ______ ____
ROOT
ATOM      1  C   UNL     1     -19.241  40.752  -9.760  0.00  0.00    +0.543 C 
ATOM      2  C   UNL     1     -19.335  39.690 -10.577  0.00  0.00    -0.048 C 
ATOM      3  C   UNL     1     -18.498  39.584 -11.826  0.00  0.00    +0.149 C 
ATOM      4  C   UNL     1     -17.883  40.923 -12.243  0.00  0.00    +0.006 C 
ATOM      5  C   UNL     1     -17.285  41.630 -11.034  0.00  0.00    +0.282 C 
ATOM      6  N   UNL     1     -18.244  41.674  -9.951  0.00  0.00    -0.602 N 
ATOM      7  H   UNL     1     -18.436  42.583  -9.526  0.00  0.00    +0.333 HD
ENDROOT
BRANCH   1  10
ATOM      8  C   UNL     1     -20.045  41.628  -7.608  0.00  0.00    +0.540 C 
ATOM      9  O   UNL     1     -18.973  42.112  -7.236  0.00  0.00    -0.510 OA
ATOM     10  N   UNL     1     -20.205  40.921  -8.803  0.00  0.00    -0.746 N 
ATOM     11  H   UNL     1     -21.143  40.603  -9.033  0.00  0.00    +0.302 HD
BRANCH   8  13
ATOM     12  C   UNL     1     -22.678  41.366  -7.329  0.00  0.00    +0.039 C 
ATOM     13  C   UNL     1     -21.322  41.788  -6.806  0.00  0.00    -0.076 C 
ATOM     14  C   UNL     1     -21.296  42.318  -5.378  0.00  0.00    -0.002 C 
ENDBRANCH   8  13
ENDBRANCH   1  10
BRANCH   4  15
ATOM     15  C   UNL     1     -18.902  41.844 -12.921  0.00  0.00    +0.511 C 
ATOM     16  O   UNL     1     -19.898  41.457 -13.525  0.00  0.00    -0.520 OA
BRANCH  15  17
ATOM     17  N   UNL     1     -18.611  43.176 -12.752  0.00  0.00    -0.601 NA
ATOM     18  C   UNL     1     -18.548  43.920 -13.792  0.00  0.00    +0.716 C 
BRANCH  18  19
ATOM     19  O   UNL     1     -18.692  43.537 -15.076  0.00  0.00    -0.624 OA
ATOM     20  H   UNL     1     -17.960  43.914 -15.609  0.00  0.00    +0.355 HD
ENDBRANCH  18  19
BRANCH  18  21
ATOM     21  O   UNL     1     -18.312  45.242 -13.645  0.00  0.00    -0.516 OA
BRANCH  21  22
ATOM     22  C   UNL     1     -18.374  45.809 -12.326  0.00  0.00    +0.296 C 
BRANCH  22  23
ATOM     23  C   UNL     1     -17.041  46.425 -12.000  0.00  0.00    +0.019 A 
ATOM     24  C   UNL     1     -16.952  47.606 -11.254  0.00  0.00    +0.040 A 
ATOM     25  C   UNL     1     -15.707  48.169 -10.989  0.00  0.00    +0.019 A 
ATOM     26  C   UNL     1     -14.580  47.539 -11.491  0.00  0.00    +0.216 A 
ATOM     27  N   UNL     1     -14.621  46.409 -12.224  0.00  0.00    -0.364 NA
ATOM     28  C   UNL     1     -15.845  45.880 -12.463  0.00  0.00    +0.245 A 
ENDBRANCH  22  23
ENDBRANCH  21  22
ENDBRANCH  18  21
ENDBRANCH  15  17
ENDBRANCH   4  15
TORSDOF 8
ENDMDL
MODEL 4
REMARK VINA RESULT:    -7.333      2.898      8.647
REMARK INTER + INTRA:         -11.796
REMARK INTER:                 -10.460
REMARK INTRA:                  -1.336
REMARK UNBOUND:                -1.247
REMARK  Name = 
REMARK  8 active torsions:
REMARK  status: ('A' for Active; 'I' for Inactive)
REMARK    1  A    between atoms: C_2  and  C_4
REMARK    2  A    between atoms: N_6  and  C_7
REMARK    3  A    between atoms: C_10  and  C_11
REMARK    4  A    between atoms: C_11  and  N_13
REMARK    5  A    between atoms: C_14  and  O_15
REMARK    6  A    between atoms: C_14  and  O_16
REMARK    7  A    between atoms: O_16  and  C_17
REMARK    8  A    between atoms: C_17  and  C_18
REMARK                            x       y       z     vdW  Elec       q    Type
REMARK                         _______ _______ _______ _____ _____    ______ ____
ROOT
ATOM      1  C   UNL     1     -17.141  45.256 -14.119  0.00  0.00    +0.543 C 
ATOM      2  C   UNL     1     -17.940  45.609 -13.097  0.00  0.00    -0.048 C 
ATOM      3  C   UNL     1     -17.750  45.033 -11.717  0.00  0.00    +0.149 C 
ATOM      4  C   UNL     1     -16.875  43.776 -11.715  0.00  0.00    +0.006 C 
ATOM      5  C   UNL     1     -15.641  43.988 -12.581  0.00  0.00    +0.282 C 
ATOM      6  N   UNL     1     -16.020  44.503 -13.879  0.00  0.00    -0.602 N 
ATOM      7  H   UNL     1     -15.670  44.012 -14.704  0.00  0.00    +0.333 HD
ENDROOT
BRANCH   1  10
ATOM      8  C   UNL     1     -16.783  46.384 -16.273  0.00  0.00    +0.540 C 
ATOM      9  O   UNL     1     -15.726  46.944 -15.972  0.00  0.00    -0.510 OA
ATOM     10  N   UNL     1     -17.523  45.596 -15.388  0.00  0.00    -0.746 N 
ATOM     11  H   UNL     1     -18.358  45.145 -15.754  0.00  0.00    +0.302 HD
BRANCH   8  13
ATOM     12  C   UNL     1     -16.586  46.132 -18.914  0.00  0.00    +0.039 C 
ATOM     13  C   UNL     1     -17.372  46.471 -17.667  0.00  0.00    -0.076 C 
ATOM     14  C   UNL     1     -18.836  46.836 -17.884  0.00  0.00    -0.002 C 
ENDBRANCH   8  13
ENDBRANCH   1  10
BRANCH   4  15
ATOM     15  C   UNL     1     -17.635  42.538 -12.202  0.00  0.00    +0.511 C 
ATOM     16  O   UNL     1     -17.566  42.080 -13.339  0.00  0.00    -0.520 OA
BRANCH  15  17
ATOM     17  N   UNL     1     -18.389  41.953 -11.213  0.00  0.00    -0.601 NA
ATOM     18  C   UNL     1     -18.011  40.819 -10.753  0.00  0.00    +0.716 C 
BRANCH  18  19
ATOM     19  O   UNL     1     -16.959  40.085 -11.163  0.00  0.00    -0.624 OA
ATOM     20  H   UNL     1     -16.932  40.080 -12.144  0.00  0.00    +0.355 HD
ENDBRANCH  18  19
BRANCH  18  21
ATOM     21  O   UNL     1     -18.708  40.250  -9.747  0.00  0.00    -0.516 OA
BRANCH  21  22
ATOM     22  C   UNL     1     -18.573  40.793  -8.423  0.00  0.00    +0.296 C 
BRANCH  22  23
ATOM     23  C   UNL     1     -19.940  41.119  -7.889  0.00  0.00    +0.019 A 
ATOM     24  C   UNL     1     -20.107  41.997  -6.812  0.00  0.00    +0.040 A 
ATOM     25  C   UNL     1     -21.383  42.260  -6.320  0.00  0.00    +0.019 A 
ATOM     26  C   UNL     1     -22.460  41.624  -6.914  0.00  0.00    +0.216 A 
ATOM     27  N   UNL     1     -22.344  40.763  -7.944  0.00  0.00    -0.364 NA
ATOM     28  C   UNL     1     -21.093  40.528  -8.405  0.00  0.00    +0.245 A 
ENDBRANCH  22  23
ENDBRANCH  21  22
ENDBRANCH  18  21
ENDBRANCH  15  17
ENDBRANCH   4  15
TORSDOF 8
ENDMDL
MODEL 5
REMARK VINA RESULT:    -6.852      2.627      7.992
REMARK INTER + INTRA:         -11.104
REMARK INTER:                 -10.070
REMARK INTRA:                  -1.034
REMARK UNBOUND:                -1.247
REMARK  Name = 
REMARK  8 active torsions:
REMARK  status: ('A' for Active; 'I' for Inactive)
REMARK    1  A    between atoms: C_2  and  C_4
REMARK    2  A    between atoms: N_6  and  C_7
REMARK    3  A    between atoms: C_10  and  C_11
REMARK    4  A    between atoms: C_11  and  N_13
REMARK    5  A    between atoms: C_14  and  O_15
REMARK    6  A    between atoms: C_14  and  O_16
REMARK    7  A    between atoms: O_16  and  C_17
REMARK    8  A    between atoms: C_17  and  C_18
REMARK                            x       y       z     vdW  Elec       q    Type
REMARK                         _______ _______ _______ _____ _____    ______ ____
ROOT
ATOM      1  C   UNL     1     -18.156  44.785 -14.159  0.00  0.00    +0.543 C 
ATOM      2  C   UNL     1     -18.601  44.591 -12.905  0.00  0.00    -0.048 C 
ATOM      3  C   UNL     1     -17.709  44.822 -11.712  0.00  0.00    +0.149 C 
ATOM      4  C   UNL     1     -16.225  44.891 -12.085  0.00  0.00    +0.006 C 
ATOM      5  C   UNL     1     -16.028  45.772 -13.311  0.00  0.00    +0.282 C 
ATOM      6  N   UNL     1     -16.937  45.377 -14.366  0.00  0.00    -0.602 N 
ATOM      7  H   UNL     1     -16.538  45.188 -15.287  0.00  0.00    +0.333 HD
ENDROOT
BRANCH   1  10
ATOM      8  C   UNL     1     -19.389  45.064 -16.267  0.00  0.00    +0.540 C 
ATOM      9  O   UNL     1     -19.259  46.288 -16.353  0.00  0.00    -0.510 OA
ATOM     10  N   UNL     1     -18.910  44.306 -15.195  0.00  0.00    -0.746 N 
ATOM     11  H   UNL     1     -19.034  43.298 -15.246  0.00  0.00    +0.302 HD
BRANCH   8  13
ATOM     12  C   UNL     1     -20.439  44.824 -18.700  0.00  0.00    +0.039 C 
ATOM     13  C   UNL     1     -20.063  44.247 -17.352  0.00  0.00    -0.076 C 
ATOM     14  C   UNL     1     -20.332  42.759 -17.168  0.00  0.00    -0.002 C 
ENDBRANCH   8  13
ENDBRANCH   1  10
BRANCH   4  15
ATOM     15  C   UNL     1     -15.628  43.505 -12.349  0.00  0.00    +0.511 C 
ATOM     16  O   UNL     1     -14.510  43.304 -12.813  0.00  0.00    -0.520 OA
BRANCH  15  17
ATOM     17  N   UNL     1     -16.468  42.484 -11.973  0.00  0.00    -0.601 NA
ATOM     18  C   UNL     1     -15.969  41.493 -11.334  0.00  0.00    +0.716 C 
BRANCH  18  19
ATOM     19  O   UNL     1     -14.675  41.300 -11.014  0.00  0.00    -0.624 OA
ATOM     20  H   UNL     1     -14.330  42.103 -10.568  0.00  0.00    +0.355 HD
ENDBRANCH  18  19
BRANCH  18  21
ATOM     21  O   UNL     1     -16.784  40.503 -10.911  0.00  0.00    -0.516 OA
BRANCH  21  22
ATOM     22  C   UNL     1     -18.196  40.624 -11.152  0.00  0.00    +0.296 C 
BRANCH  22  23
ATOM     23  C   UNL     1     -18.889  40.909  -9.848  0.00  0.00    +0.019 A 
ATOM     24  C   UNL     1     -20.054  40.226  -9.482  0.00  0.00    +0.040 A 
ATOM     25  C   UNL     1     -20.690  40.530  -8.281  0.00  0.00    +0.019 A 
ATOM     26  C   UNL     1     -20.147  41.522  -7.482  0.00  0.00    +0.216 A 
ATOM     27  N   UNL     1     -19.034  42.213  -7.802  0.00  0.00    -0.364 NA
ATOM     28  C   UNL     1     -18.434  41.894  -8.973  0.00  0.00    +0.245 A 
ENDBRANCH  22  23
ENDBRANCH  21  22
ENDBRANCH  18  21
ENDBRANCH  15  17
ENDBRANCH   4  15
TORSDOF 8
ENDMDL
