MODEL 1
REMARK VINA RESULT:    -7.479      0.000      0.000
REMARK INTER + INTRA:         -11.009
REMARK INTER:                  -9.665
REMARK INTRA:                  -1.343
REMARK UNBOUND:                -1.343
REMARK  Name = 
REMARK  5 active torsions:
REMARK  status: ('A' for Active; 'I' for Inactive)
REMARK    1  A    between atoms: N_3  and  C_4
REMARK    2  A    between atoms: C_4  and  C_6
REMARK    3  A    between atoms: C_9  and  N_10
REMARK    4  A    between atoms: N_18  and  C_19
REMARK    5  A    between atoms: C_19  and  C_20
REMARK                            x       y       z     vdW  Elec       q    Type
REMARK                         _______ _______ _______ _____ _____    ______ ____
ROOT
ATOM      1  C   UNL     1     -17.986  39.996 -12.666  0.00  0.00    -0.015 C 
ATOM      2  C   UNL     1     -16.611  39.741 -12.059  0.00  0.00    +0.288 C 
ATOM      3  C   UNL     1     -16.296  40.720 -10.930  0.00  0.00    +0.213 C 
ATOM      4  C   UNL     1     -16.440  42.189 -11.338  0.00  0.00    +0.468 C 
ATOM      5  N   UNL     1     -17.554  42.378 -12.279  0.00  0.00    -0.650 N 
ATOM      6  C   UNL     1     -18.178  41.439 -12.987  0.00  0.00    +0.576 C 
ATOM      7  N   UNL     1     -18.929  41.713 -14.043  0.00  0.00    -0.666 N 
ATOM      8  H   UNL     1     -17.932  43.320 -12.367  0.00  0.00    +0.334 HD
ATOM      9  H   UNL     1     -19.363  40.953 -14.571  0.00  0.00    +0.341 HD
ENDROOT
BRANCH   4  10
ATOM     10  N   UNL     1     -15.245  42.683 -12.075  0.00  0.00    -0.606 N 
ATOM     11  C   UNL     1     -13.982  42.826 -11.281  0.00  0.00    +0.191 C 
ATOM     12  C   UNL     1     -12.996  43.952 -10.905  0.00  0.00    +0.091 C 
ATOM     13  C   UNL     1     -13.374  45.343 -11.440  0.00  0.00    +0.132 C 
ATOM     14  C   UNL     1     -14.643  45.462 -12.296  0.00  0.00    +0.078 C 
ATOM     15  C   UNL     1     -15.376  44.121 -12.504  0.00  0.00    +0.197 C 
ATOM     16  H   UNL     1     -15.026  42.126 -12.910  0.00  0.00    +0.317 HD
ENDBRANCH   4  10
BRANCH   1  17
ATOM     17  C   UNL     1     -19.118  39.642 -11.699  0.00  0.00    +0.589 C 
ATOM     18  O   UNL     1     -19.485  38.473 -11.619  0.00  0.00    -0.453 OA
BRANCH  17  21
ATOM     19  O   UNL     1     -20.190  40.354  -8.786  0.00  0.00    -0.442 OA
ATOM     20  C   UNL     1     -19.918  40.525  -9.912  0.00  0.00    +0.855 C 
ATOM     21  N   UNL     1     -19.635  40.721 -11.037  0.00  0.00    -0.626 NA
ENDBRANCH  17  21
ENDBRANCH   1  17
BRANCH   7  22
ATOM     22  C   UNL     1     -19.174  43.017 -14.587  0.00  0.00    +0.295 C 
BRANCH  22  23
ATOM     23  C   UNL     1     -19.209  44.284 -15.238  0.00  0.00    -0.049 C 
ATOM     24  C   UNL     1     -18.565  45.397 -14.707  0.00  0.00    +0.085 C 
ATOM     25  C   UNL     1     -18.785  46.649 -15.280  0.00  0.00    +0.106 C 
ATOM     26  C   UNL     1     -19.649  46.783 -16.367  0.00  0.00    +0.122 C 
ATOM     27  C   UNL     1     -20.264  45.661 -16.914  0.00  0.00    +0.115 C 
ATOM     28  C   UNL     1     -20.042  44.412 -16.347  0.00  0.00    +0.114 C 
ENDBRANCH  22  23
ENDBRANCH   7  22
TORSDOF 5
ENDMDL
MODEL 2
REMARK VINA RESULT:    -7.309      2.235      3.634
REMARK INTER + INTRA:         -10.789
REMARK INTER:                  -9.315
REMARK INTRA:                  -1.474
REMARK UNBOUND:                -1.343
REMARK  Name = 
REMARK  5 active torsions:
REMARK  status: ('A' for Active; 'I' for Inactive)
REMARK    1  A    between atoms: N_3  and  C_4
REMARK    2  A    between atoms: C_4  and  C_6
REMARK    3  A    between atoms: C_9  and  N_10
REMARK    4  A    between atoms: N_18  and  C_19
REMARK    5  A    between atoms: C_19  and  C_20
REMARK                            x       y       z     vdW  Elec       q    Type
REMARK                         _______ _______ _______ _____ _____    ______ ____
ROOT
ATOM      1  C   UNL     1     -17.952  42.012 -13.538  0.00  0.00    -0.015 C 
ATOM      2  C   UNL     1     -16.841  42.744 -12.794  0.00  0.00    +0.288 C 
ATOM      3  C   UNL     1     -17.391  43.832 -11.873  0.00  0.00    +0.213 C 
ATOM      4  C   UNL     1     -18.309  44.828 -12.586  0.00  0.00    +0.468 C 
ATOM      5  N   UNL     1     -19.116  44.169 -13.623  0.00  0.00    -0.650 N 
ATOM      6  C   UNL     1     -18.907  42.971 -14.164  0.00  0.00    +0.576 C 
ATOM      7  N   UNL     1     -19.462  42.589 -15.305  0.00  0.00    -0.666 N 
ATOM      8  H   UNL     1     -19.958  44.651 -13.931  0.00  0.00    +0.334 HD
ATOM      9  H   UNL     1     -19.246  41.669 -15.694  0.00  0.00    +0.341 HD
ENDROOT
BRANCH   4  10
ATOM     10  N   UNL     1     -17.538  45.869 -13.321  0.00  0.00    -0.606 N 
ATOM     11  C   UNL     1     -17.357  47.183 -12.625  0.00  0.00    +0.191 C 
ATOM     12  C   UNL     1     -17.709  48.664 -12.882  0.00  0.00    +0.091 C 
ATOM     13  C   UNL     1     -18.484  48.924 -14.184  0.00  0.00    +0.132 C 
ATOM     14  C   UNL     1     -18.796  47.722 -15.086  0.00  0.00    +0.078 C 
ATOM     15  C   UNL     1     -18.262  46.383 -14.537  0.00  0.00    +0.197 C 
ATOM     16  H   UNL     1     -16.610  45.545 -13.622  0.00  0.00    +0.317 HD
ENDBRANCH   4  10
BRANCH   1  17
ATOM     17  C   UNL     1     -18.800  41.148 -12.602  0.00  0.00    +0.589 C 
ATOM     18  O   UNL     1     -20.023  41.206 -12.689  0.00  0.00    -0.453 OA
BRANCH  17  21
ATOM     19  O   UNL     1     -19.218  39.689  -9.803  0.00  0.00    -0.442 OA
ATOM     20  C   UNL     1     -18.649  40.061 -10.756  0.00  0.00    +0.855 C 
ATOM     21  N   UNL     1     -18.065  40.411 -11.716  0.00  0.00    -0.626 NA
ENDBRANCH  17  21
ENDBRANCH   1  17
BRANCH   7  22
ATOM     22  C   UNL     1     -20.334  43.380 -16.124  0.00  0.00    +0.295 C 
BRANCH  22  23
ATOM     23  C   UNL     1     -21.199  44.319 -16.756  0.00  0.00    -0.049 C 
ATOM     24  C   UNL     1     -20.727  45.528 -17.256  0.00  0.00    +0.085 C 
ATOM     25  C   UNL     1     -21.639  46.488 -17.694  0.00  0.00    +0.106 C 
ATOM     26  C   UNL     1     -23.010  46.240 -17.622  0.00  0.00    +0.122 C 
ATOM     27  C   UNL     1     -23.475  45.015 -17.152  0.00  0.00    +0.115 C 
ATOM     28  C   UNL     1     -22.567  44.056 -16.720  0.00  0.00    +0.114 C 
ENDBRANCH  22  23
ENDBRANCH   7  22
TORSDOF 5
ENDMDL
MODEL 3
REMARK VINA RESULT:    -7.140      1.427      2.032
REMARK INTER + INTRA:         -10.570
REMARK INTER:                  -8.994
REMARK INTRA:                  -1.576
REMARK UNBOUND:                -1.343
REMARK  Name = 
REMARK  5 active torsions:
REMARK  status: ('A' for Active; 'I' for Inactive)
REMARK    1  A    between atoms: N_3  and  C_4
REMARK    2  A    between atoms: C_4  and  C_6
REMARK    3  A    between atoms: C_9  and  N_10
REMARK    4  A    between atoms: N_18  and  C_19
REMARK    5  A    between atoms: C_19  and  C_20
REMARK                            x       y       z     vdW  Elec       q    Type
REMARK                         _______ _______ _______ _____ _____    ______ ____
ROOT
ATOM      1  C   UNL     1     -18.073  40.588 -12.949  0.00  0.00    -0.015 C 
ATOM      2  C   UNL     1     -16.738  39.872 -12.776  0.00  0.00    +0.288 C 
ATOM      3  C   UNL     1     -16.106  40.166 -11.416  0.00  0.00    +0.213 C 
ATOM      4  C   UNL     1     -15.959  41.660 -11.121  0.00  0.00    +0.468 C 
ATOM      5  N   UNL     1     -17.086  42.430 -11.667  0.00  0.00    -0.650 N 
ATOM      6  C   UNL     1     -17.967  42.028 -12.580  0.00  0.00    +0.576 C 
ATOM      7  N   UNL     1     -18.736  42.867 -13.258  0.00  0.00    -0.666 N 
ATOM      8  H   UNL     1     -17.252  43.354 -11.271  0.00  0.00    +0.334 HD
ATOM      9  H   UNL     1     -19.376  42.511 -13.970  0.00  0.00    +0.341 HD
ENDROOT
BRANCH   4  10
ATOM     10  N   UNL     1     -14.758  42.243 -11.782  0.00  0.00    -0.606 N 
ATOM     11  C   UNL     1     -13.542  42.418 -10.925  0.00  0.00    +0.191 C 
ATOM     12  C   UNL     1     -12.634  43.577 -10.461  0.00  0.00    +0.091 C 
ATOM     13  C   UNL     1     -13.059  44.967 -10.963  0.00  0.00    +0.132 C 
ATOM     14  C   UNL     1     -14.293  45.055 -11.873  0.00  0.00    +0.078 C 
ATOM     15  C   UNL     1     -14.944  43.688 -12.164  0.00  0.00    +0.197 C 
ATOM     16  H   UNL     1     -14.473  41.730 -12.625  0.00  0.00    +0.317 HD
ENDBRANCH   4  10
BRANCH   1  17
ATOM     17  C   UNL     1     -19.157  40.013 -12.036  0.00  0.00    +0.589 C 
ATOM     18  O   UNL     1     -19.575  38.879 -12.254  0.00  0.00    -0.453 OA
BRANCH  17  21
ATOM     19  O   UNL     1     -19.836  39.956  -8.925  0.00  0.00    -0.442 OA
ATOM     20  C   UNL     1     -19.714  40.407  -9.999  0.00  0.00    +0.855 C 
ATOM     21  N   UNL     1     -19.579  40.881 -11.068  0.00  0.00    -0.626 NA
ENDBRANCH  17  21
ENDBRANCH   1  17
BRANCH   7  22
ATOM     22  C   UNL     1     -18.735  44.296 -13.136  0.00  0.00    +0.295 C 
BRANCH  22  23
ATOM     23  C   UNL     1     -18.528  45.706 -13.133  0.00  0.00    -0.049 C 
ATOM     24  C   UNL     1     -18.452  46.437 -14.314  0.00  0.00    +0.085 C 
ATOM     25  C   UNL     1     -18.063  47.775 -14.263  0.00  0.00    +0.106 C 
ATOM     26  C   UNL     1     -17.747  48.370 -13.042  0.00  0.00    +0.122 C 
ATOM     27  C   UNL     1     -17.857  47.643 -11.861  0.00  0.00    +0.115 C 
ATOM     28  C   UNL     1     -18.250  46.311 -11.909  0.00  0.00    +0.114 C 
ENDBRANCH  22  23
ENDBRANCH   7  22
TORSDOF 5
ENDMDL
MODEL 4
REMARK VINA RESULT:    -6.531      3.330      7.614
REMARK INTER + INTRA:          -9.783
REMARK INTER:                  -8.831
REMARK INTRA:                  -0.953
REMARK UNBOUND:                -1.343
REMARK  Name = 
REMARK  5 active torsions:
REMARK  status: ('A' for Active; 'I' for Inactive)
REMARK    1  A    between atoms: N_3  and  C_4
REMARK    2  A    between atoms: C_4  and  C_6
REMARK    3  A    between atoms: C_9  and  N_10
REMARK    4  A    between atoms: N_18  and  C_19
REMARK    5  A    between atoms: C_19  and  C_20
REMARK                            x       y       z     vdW  Elec       q    Type
REMARK                         _______ _______ _______ _____ _____    ______ ____
ROOT
ATOM      1  C   UNL     1     -15.735  44.093 -13.162  0.00  0.00    -0.015 C 
ATOM      2  C   UNL     1     -17.112  43.438 -13.155  0.00  0.00    +0.288 C 
ATOM      3  C   UNL     1     -17.684  43.328 -11.743  0.00  0.00    +0.213 C 
ATOM      4  C   UNL     1     -16.747  42.622 -10.759  0.00  0.00    +0.468 C 
ATOM      5  N   UNL     1     -15.339  42.943 -11.033  0.00  0.00    -0.650 N 
ATOM      6  C   UNL     1     -14.837  43.476 -12.145  0.00  0.00    +0.576 C 
ATOM      7  N   UNL     1     -13.549  43.427 -12.449  0.00  0.00    -0.666 N 
ATOM      8  H   UNL     1     -14.674  42.793 -10.277  0.00  0.00    +0.334 HD
ATOM      9  H   UNL     1     -13.218  43.825 -13.330  0.00  0.00    +0.341 HD
ENDROOT
BRANCH   4  10
ATOM     10  N   UNL     1     -16.821  41.140 -10.883  0.00  0.00    -0.606 N 
ATOM     11  C   UNL     1     -17.013  40.593 -12.265  0.00  0.00    +0.191 C 
ATOM     12  C   UNL     1     -18.048  39.723 -13.009  0.00  0.00    +0.091 C 
ATOM     13  C   UNL     1     -19.252  39.286 -12.160  0.00  0.00    +0.132 C 
ATOM     14  C   UNL     1     -19.288  39.724 -10.689  0.00  0.00    +0.078 C 
ATOM     15  C   UNL     1     -18.066  40.563 -10.263  0.00  0.00    +0.197 C 
ATOM     16  H   UNL     1     -16.013  40.660 -10.468  0.00  0.00    +0.317 HD
ENDBRANCH   4  10
BRANCH   1  17
ATOM     17  C   UNL     1     -15.801  45.577 -12.798  0.00  0.00    +0.589 C 
ATOM     18  O   UNL     1     -15.178  45.974 -11.817  0.00  0.00    -0.453 OA
BRANCH  17  21
ATOM     19  O   UNL     1     -18.370  47.443 -12.553  0.00  0.00    -0.442 OA
ATOM     20  C   UNL     1     -17.495  46.868 -13.077  0.00  0.00    +0.855 C 
ATOM     21  N   UNL     1     -16.611  46.311 -13.619  0.00  0.00    -0.626 NA
ENDBRANCH  17  21
ENDBRANCH   1  17
BRANCH   7  22
ATOM     22  C   UNL     1     -12.522  42.802 -11.668  0.00  0.00    +0.295 C 
BRANCH  22  23
ATOM     23  C   UNL     1     -11.635  41.986 -10.908  0.00  0.00    -0.049 C 
ATOM     24  C   UNL     1     -10.754  42.530  -9.980  0.00  0.00    +0.085 C 
ATOM     25  C   UNL     1      -9.782  41.713  -9.402  0.00  0.00    +0.106 C 
ATOM     26  C   UNL     1      -9.690  40.368  -9.760  0.00  0.00    +0.122 C 
ATOM     27  C   UNL     1     -10.596  39.822 -10.664  0.00  0.00    +0.115 C 
ATOM     28  C   UNL     1     -11.568  40.633 -11.236  0.00  0.00    +0.114 C 
ENDBRANCH  22  23
ENDBRANCH   7  22
TORSDOF 5
ENDMDL
MODEL 5
REMARK VINA RESULT:    -6.367      3.421      7.339
REMARK INTER + INTRA:          -9.571
REMARK INTER:                  -8.134
REMARK INTRA:                  -1.437
REMARK UNBOUND:                -1.343
REMARK  Name = 
REMARK  5 active torsions:
REMARK  status: ('A' for Active; 'I' for Inactive)
REMARK    1  A    between atoms: N_3  and  C_4
REMARK    2  A    between atoms: C_4  and  C_6
REMARK    3  A    between atoms: C_9  and  N_10
REMARK    4  A    between atoms: N_18  and  C_19
REMARK    5  A    between atoms: C_19  and  C_20
REMARK                            x       y       z     vdW  Elec       q    Type
REMARK                         _______ _______ _______ _____ _____    ______ ____
ROOT
ATOM      1  C   UNL     1     -15.966  45.966 -14.394  0.00  0.00    -0.015 C 
ATOM      2  C   UNL     1     -16.477  46.436 -15.752  0.00  0.00    +0.288 C 
ATOM      3  C   UNL     1     -17.998  46.581 -15.769  0.00  0.00    +0.213 C 
ATOM      4  C   UNL     1     -18.737  45.318 -15.323  0.00  0.00    +0.468 C 
ATOM      5  N   UNL     1     -18.009  44.617 -14.255  0.00  0.00    -0.650 N 
ATOM      6  C   UNL     1     -16.737  44.788 -13.903  0.00  0.00    +0.576 C 
ATOM      7  N   UNL     1     -16.066  43.908 -13.176  0.00  0.00    -0.666 N 
ATOM      8  H   UNL     1     -18.541  43.965 -13.681  0.00  0.00    +0.334 HD
ATOM      9  H   UNL     1     -15.081  44.071 -12.957  0.00  0.00    +0.341 HD
ENDROOT
BRANCH   4  10
ATOM     10  N   UNL     1     -18.841  44.316 -16.419  0.00  0.00    -0.606 N 
ATOM     11  C   UNL     1     -19.160  44.848 -17.783  0.00  0.00    +0.191 C 
ATOM     12  C   UNL     1     -20.267  44.668 -18.844  0.00  0.00    +0.091 C 
ATOM     13  C   UNL     1     -21.398  43.710 -18.437  0.00  0.00    +0.132 C 
ATOM     14  C   UNL     1     -21.301  43.026 -17.066  0.00  0.00    +0.078 C 
ATOM     15  C   UNL     1     -20.035  43.410 -16.273  0.00  0.00    +0.197 C 
ATOM     16  H   UNL     1     -18.006  43.723 -16.504  0.00  0.00    +0.317 HD
ENDBRANCH   4  10
BRANCH   1  17
ATOM     17  C   UNL     1     -16.131  47.037 -13.314  0.00  0.00    +0.589 C 
ATOM     18  O   UNL     1     -15.470  48.069 -13.398  0.00  0.00    -0.453 OA
BRANCH  17  21
ATOM     19  O   UNL     1     -18.613  48.307 -11.776  0.00  0.00    -0.442 OA
ATOM     20  C   UNL     1     -17.801  47.509 -12.048  0.00  0.00    +0.855 C 
ATOM     21  N   UNL     1     -17.003  46.688 -12.321  0.00  0.00    -0.626 NA
ENDBRANCH  17  21
ENDBRANCH   1  17
BRANCH   7  22
ATOM     22  C   UNL     1     -16.576  42.663 -12.678  0.00  0.00    +0.295 C 
BRANCH  22  23
ATOM     23  C   UNL     1     -17.289  41.496 -12.280  0.00  0.00    -0.049 C 
ATOM     24  C   UNL     1     -18.139  40.823 -13.152  0.00  0.00    +0.085 C 
ATOM     25  C   UNL     1     -18.952  39.803 -12.660  0.00  0.00    +0.106 C 
ATOM     26  C   UNL     1     -18.919  39.467 -11.306  0.00  0.00    +0.122 C 
ATOM     27  C   UNL     1     -18.042  40.121 -10.446  0.00  0.00    +0.115 C 
ATOM     28  C   UNL     1     -17.227  41.134 -10.935  0.00  0.00    +0.114 C 
ENDBRANCH  22  23
ENDBRANCH   7  22
TORSDOF 5
ENDMDL
