MODEL 1
REMARK VINA RESULT:    -7.498      0.000      0.000
REMARK INTER + INTRA:          -9.736
REMARK INTER:                  -8.812
REMARK INTRA:                  -0.924
REMARK UNBOUND:                -0.924
REMARK  Name = 
REMARK  4 active torsions:
REMARK  status: ('A' for Active; 'I' for Inactive)
REMARK    1  A    between atoms: C_1  and  C_2
REMARK    2  A    between atoms: C_8  and  O_9
REMARK    3  A    between atoms: O_9  and  C_10
REMARK    4  A    between atoms: C_14  and  C_15
REMARK                            x       y       z     vdW  Elec       q    Type
REMARK                         _______ _______ _______ _____ _____    ______ ____
ROOT
ATOM      1  C   UNL     1     -17.462  45.025 -11.701  0.00  0.00    +0.701 C 
ATOM      2  O   UNL     1     -18.155  45.676 -10.912  0.00  0.00    -0.511 OA
ATOM      3  N   UNL     1     -17.297  45.354 -13.068  0.00  0.00    -0.550 N 
ATOM      4  C   UNL     1     -18.313  46.084 -13.698  0.00  0.00    +0.307 A 
ATOM      5  C   UNL     1     -18.196  46.559 -14.954  0.00  0.00    -0.077 A 
ATOM      6  C   UNL     1     -16.948  46.339 -15.656  0.00  0.00    +0.160 A 
ATOM      7  C   UNL     1     -15.959  45.624 -15.119  0.00  0.00    -0.025 A 
ATOM      8  C   UNL     1     -16.114  45.052 -13.757  0.00  0.00    +0.483 A 
ATOM      9  N   UNL     1     -15.160  44.350 -13.254  0.00  0.00    -0.569 NA
ATOM     10  H   UNL     1     -14.376  44.229 -13.898  0.00  0.00    +0.283 HD
ENDROOT
BRANCH   5  11
ATOM     11  C   UNL     1     -19.336  47.167 -15.734  0.00  0.00    +0.497 C 
ATOM     12  O   UNL     1     -19.596  48.362 -15.574  0.00  0.00    -0.483 OA
ATOM     13  N   UNL     1     -20.057  46.356 -16.600  0.00  0.00    -0.508 N 
ATOM     14  C   UNL     1     -21.020  46.792 -17.480  0.00  0.00    +0.235 C 
ATOM     15  C   UNL     1     -22.173  46.149 -18.269  0.00  0.00    +0.002 C 
ATOM     16  C   UNL     1     -22.160  44.654 -17.894  0.00  0.00    +0.029 C 
ATOM     17  C   UNL     1     -21.247  43.944 -16.972  0.00  0.00    +0.299 C 
ATOM     18  F   UNL     1     -21.918  43.469 -15.899  0.00  0.00    -0.285 F 
ATOM     19  F   UNL     1     -20.611  42.926 -17.583  0.00  0.00    -0.284 F 
ATOM     20  C   UNL     1     -20.292  44.999 -16.542  0.00  0.00    +0.176 C 
ENDBRANCH   5  11
BRANCH   1  21
ATOM     21  O   UNL     1     -16.759  43.885 -11.331  0.00  0.00    -0.510 OA
BRANCH  21  29
ATOM     22  C   UNL     1     -17.398  41.615 -13.215  0.00  0.00    +0.240 C 
ATOM     23  C   UNL     1     -17.741  41.652 -11.757  0.00  0.00    +0.063 A 
ATOM     24  C   UNL     1     -18.543  40.625 -11.231  0.00  0.00    +0.013 A 
ATOM     25  C   UNL     1     -18.937  40.646  -9.896  0.00  0.00    +0.235 A 
ATOM     26  F   UNL     1     -19.749  39.685  -9.437  0.00  0.00    -0.304 F 
ATOM     27  C   UNL     1     -18.528  41.661  -9.041  0.00  0.00    +0.054 A 
ATOM     28  C   UNL     1     -17.717  42.681  -9.535  0.00  0.00    +0.083 A 
ATOM     29  C   UNL     1     -17.327  42.671 -10.881  0.00  0.00    +0.247 A 
ENDBRANCH  21  29
ENDBRANCH   1  21
TORSDOF 3
ENDMDL
MODEL 2
REMARK VINA RESULT:    -7.330      1.599      1.761
REMARK INTER + INTRA:          -9.539
REMARK INTER:                  -9.409
REMARK INTRA:                  -0.131
REMARK UNBOUND:                -0.924
REMARK  Name = 
REMARK  4 active torsions:
REMARK  status: ('A' for Active; 'I' for Inactive)
REMARK    1  A    between atoms: C_1  and  C_2
REMARK    2  A    between atoms: C_8  and  O_9
REMARK    3  A    between atoms: O_9  and  C_10
REMARK    4  A    between atoms: C_14  and  C_15
REMARK                            x       y       z     vdW  Elec       q    Type
REMARK                         _______ _______ _______ _____ _____    ______ ____
ROOT
ATOM      1  C   UNL     1     -18.621  43.168 -12.923  0.00  0.00    +0.701 C 
ATOM      2  O   UNL     1     -19.855  43.154 -12.860  0.00  0.00    -0.511 OA
ATOM      3  N   UNL     1     -17.878  44.099 -13.688  0.00  0.00    -0.550 N 
ATOM      4  C   UNL     1     -18.495  44.678 -14.804  0.00  0.00    +0.307 A 
ATOM      5  C   UNL     1     -17.924  45.668 -15.519  0.00  0.00    -0.077 A 
ATOM      6  C   UNL     1     -16.642  46.178 -15.079  0.00  0.00    +0.160 A 
ATOM      7  C   UNL     1     -15.993  45.645 -14.043  0.00  0.00    -0.025 A 
ATOM      8  C   UNL     1     -16.598  44.514 -13.294  0.00  0.00    +0.483 A 
ATOM      9  N   UNL     1     -15.957  43.996 -12.306  0.00  0.00    -0.569 NA
ATOM     10  H   UNL     1     -15.039  44.422 -12.164  0.00  0.00    +0.283 HD
ENDROOT
BRANCH   5  11
ATOM     11  C   UNL     1     -18.459  46.171 -16.837  0.00  0.00    +0.497 C 
ATOM     12  O   UNL     1     -18.202  47.327 -17.182  0.00  0.00    -0.483 OA
ATOM     13  N   UNL     1     -19.230  45.316 -17.613  0.00  0.00    -0.508 N 
ATOM     14  C   UNL     1     -19.663  45.576 -18.892  0.00  0.00    +0.235 C 
ATOM     15  C   UNL     1     -20.754  45.026 -19.826  0.00  0.00    +0.002 C 
ATOM     16  C   UNL     1     -21.485  43.932 -19.024  0.00  0.00    +0.029 C 
ATOM     17  C   UNL     1     -21.225  43.474 -17.642  0.00  0.00    +0.299 C 
ATOM     18  F   UNL     1     -22.272  43.757 -16.836  0.00  0.00    -0.285 F 
ATOM     19  F   UNL     1     -20.972  42.152 -17.592  0.00  0.00    -0.284 F 
ATOM     20  C   UNL     1     -20.040  44.270 -17.227  0.00  0.00    +0.176 C 
ENDBRANCH   5  11
BRANCH   1  21
ATOM     21  O   UNL     1     -17.817  42.261 -12.243  0.00  0.00    -0.510 OA
BRANCH  21  29
ATOM     22  C   UNL     1     -19.131  39.546 -12.144  0.00  0.00    +0.240 C 
ATOM     23  C   UNL     1     -18.855  40.418 -10.957  0.00  0.00    +0.063 A 
ATOM     24  C   UNL     1     -19.360  40.025  -9.706  0.00  0.00    +0.013 A 
ATOM     25  C   UNL     1     -19.179  40.830  -8.584  0.00  0.00    +0.235 A 
ATOM     26  F   UNL     1     -19.721  40.460  -7.417  0.00  0.00    -0.304 F 
ATOM     27  C   UNL     1     -18.474  42.024  -8.661  0.00  0.00    +0.054 A 
ATOM     28  C   UNL     1     -17.948  42.424  -9.888  0.00  0.00    +0.083 A 
ATOM     29  C   UNL     1     -18.136  41.624 -11.022  0.00  0.00    +0.247 A 
ENDBRANCH  21  29
ENDBRANCH   1  21
TORSDOF 3
ENDMDL
MODEL 3
REMARK VINA RESULT:    -7.209      3.016      4.434
REMARK INTER + INTRA:          -9.397
REMARK INTER:                  -8.741
REMARK INTRA:                  -0.656
REMARK UNBOUND:                -0.924
REMARK  Name = 
REMARK  4 active torsions:
REMARK  status: ('A' for Active; 'I' for Inactive)
REMARK    1  A    between atoms: C_1  and  C_2
REMARK    2  A    between atoms: C_8  and  O_9
REMARK    3  A    between atoms: O_9  and  C_10
REMARK    4  A    between atoms: C_14  and  C_15
REMARK                            x       y       z     vdW  Elec       q    Type
REMARK                         _______ _______ _______ _____ _____    ______ ____
ROOT
ATOM      1  C   UNL     1     -16.924  42.327 -12.179  0.00  0.00    +0.701 C 
ATOM      2  O   UNL     1     -15.759  42.536 -11.825  0.00  0.00    -0.511 OA
ATOM      3  N   UNL     1     -17.665  43.193 -13.019  0.00  0.00    -0.550 N 
ATOM      4  C   UNL     1     -17.318  44.550 -13.038  0.00  0.00    +0.307 A 
ATOM      5  C   UNL     1     -17.871  45.430 -13.895  0.00  0.00    -0.077 A 
ATOM      6  C   UNL     1     -18.828  44.935 -14.863  0.00  0.00    +0.160 A 
ATOM      7  C   UNL     1     -19.220  43.661 -14.872  0.00  0.00    -0.025 A 
ATOM      8  C   UNL     1     -18.653  42.705 -13.886  0.00  0.00    +0.483 A 
ATOM      9  N   UNL     1     -19.049  41.481 -13.892  0.00  0.00    -0.569 NA
ATOM     10  H   UNL     1     -19.776  41.305 -14.589  0.00  0.00    +0.283 HD
ENDROOT
BRANCH   5  11
ATOM     11  C   UNL     1     -17.676  46.925 -13.809  0.00  0.00    +0.497 C 
ATOM     12  O   UNL     1     -18.484  47.594 -13.159  0.00  0.00    -0.483 OA
ATOM     13  N   UNL     1     -16.598  47.495 -14.471  0.00  0.00    -0.508 N 
ATOM     14  C   UNL     1     -16.207  48.809 -14.369  0.00  0.00    +0.235 C 
ATOM     15  C   UNL     1     -15.332  49.772 -15.188  0.00  0.00    +0.002 C 
ATOM     16  C   UNL     1     -14.837  48.964 -16.403  0.00  0.00    +0.029 C 
ATOM     17  C   UNL     1     -15.120  47.554 -16.749  0.00  0.00    +0.299 C 
ATOM     18  F   UNL     1     -15.835  47.472 -17.893  0.00  0.00    -0.285 F 
ATOM     19  F   UNL     1     -13.989  46.834 -16.880  0.00  0.00    -0.284 F 
ATOM     20  C   UNL     1     -15.940  47.072 -15.606  0.00  0.00    +0.176 C 
ENDBRANCH   5  11
BRANCH   1  21
ATOM     21  O   UNL     1     -17.645  41.205 -11.789  0.00  0.00    -0.510 OA
BRANCH  21  29
ATOM     22  C   UNL     1     -19.611  38.971 -11.287  0.00  0.00    +0.240 C 
ATOM     23  C   UNL     1     -19.263  40.053 -10.311  0.00  0.00    +0.063 A 
ATOM     24  C   UNL     1     -19.995  40.136  -9.114  0.00  0.00    +0.013 A 
ATOM     25  C   UNL     1     -19.748  41.158  -8.202  0.00  0.00    +0.235 A 
ATOM     26  F   UNL     1     -20.500  41.248  -7.096  0.00  0.00    -0.304 F 
ATOM     27  C   UNL     1     -18.757  42.104  -8.431  0.00  0.00    +0.054 A 
ATOM     28  C   UNL     1     -18.006  42.030  -9.603  0.00  0.00    +0.083 A 
ATOM     29  C   UNL     1     -18.258  41.011 -10.530  0.00  0.00    +0.247 A 
ENDBRANCH  21  29
ENDBRANCH   1  21
TORSDOF 3
ENDMDL
MODEL 4
REMARK VINA RESULT:    -7.065      3.179      4.649
REMARK INTER + INTRA:          -9.228
REMARK INTER:                  -8.627
REMARK INTRA:                  -0.601
REMARK UNBOUND:                -0.924
REMARK  Name = 
REMARK  4 active torsions:
REMARK  status: ('A' for Active; 'I' for Inactive)
REMARK    1  A    between atoms: C_1  and  C_2
REMARK    2  A    between atoms: C_8  and  O_9
REMARK    3  A    between atoms: O_9  and  C_10
REMARK    4  A    between atoms: C_14  and  C_15
REMARK                            x       y       z     vdW  Elec       q    Type
REMARK                         _______ _______ _______ _____ _____    ______ ____
ROOT
ATOM      1  C   UNL     1     -16.713  44.022 -12.896  0.00  0.00    +0.701 C 
ATOM      2  O   UNL     1     -15.841  43.184 -13.147  0.00  0.00    -0.511 OA
ATOM      3  N   UNL     1     -16.890  45.223 -13.625  0.00  0.00    -0.550 N 
ATOM      4  C   UNL     1     -15.780  45.762 -14.288  0.00  0.00    +0.307 A 
ATOM      5  C   UNL     1     -15.871  46.825 -15.112  0.00  0.00    -0.077 A 
ATOM      6  C   UNL     1     -17.180  47.396 -15.352  0.00  0.00    +0.160 A 
ATOM      7  C   UNL     1     -18.267  46.945 -14.725  0.00  0.00    -0.025 A 
ATOM      8  C   UNL     1     -18.154  45.812 -13.771  0.00  0.00    +0.483 A 
ATOM      9  N   UNL     1     -19.206  45.394 -13.159  0.00  0.00    -0.569 NA
ATOM     10  H   UNL     1     -20.038  45.943 -13.384  0.00  0.00    +0.283 HD
ENDROOT
BRANCH   5  11
ATOM     11  C   UNL     1     -14.677  47.556 -15.677  0.00  0.00    +0.497 C 
ATOM     12  O   UNL     1     -14.195  48.493 -15.036  0.00  0.00    -0.483 OA
ATOM     13  N   UNL     1     -14.168  47.151 -16.903  0.00  0.00    -0.508 N 
ATOM     14  C   UNL     1     -13.008  47.617 -17.475  0.00  0.00    +0.235 C 
ATOM     15  C   UNL     1     -12.396  47.632 -18.886  0.00  0.00    +0.002 C 
ATOM     16  C   UNL     1     -13.426  46.942 -19.801  0.00  0.00    +0.029 C 
ATOM     17  C   UNL     1     -14.741  46.371 -19.441  0.00  0.00    +0.299 C 
ATOM     18  F   UNL     1     -15.744  47.057 -20.034  0.00  0.00    -0.285 F 
ATOM     19  F   UNL     1     -14.833  45.071 -19.780  0.00  0.00    -0.284 F 
ATOM     20  C   UNL     1     -14.810  46.553 -17.967  0.00  0.00    +0.176 C 
ENDBRANCH   5  11
BRANCH   1  21
ATOM     21  O   UNL     1     -17.629  43.878 -11.861  0.00  0.00    -0.510 OA
BRANCH  21  29
ATOM     22  C   UNL     1     -19.182  41.793 -13.394  0.00  0.00    +0.240 C 
ATOM     23  C   UNL     1     -18.854  41.727 -11.934  0.00  0.00    +0.063 A 
ATOM     24  C   UNL     1     -19.418  40.694 -11.166  0.00  0.00    +0.013 A 
ATOM     25  C   UNL     1     -19.190  40.624  -9.795  0.00  0.00    +0.235 A 
ATOM     26  F   UNL     1     -19.787  39.663  -9.078  0.00  0.00    -0.304 F 
ATOM     27  C   UNL     1     -18.379  41.551  -9.152  0.00  0.00    +0.054 A 
ATOM     28  C   UNL     1     -17.794  42.574  -9.896  0.00  0.00    +0.083 A 
ATOM     29  C   UNL     1     -18.029  42.656 -11.274  0.00  0.00    +0.247 A 
ENDBRANCH  21  29
ENDBRANCH   1  21
TORSDOF 3
ENDMDL
MODEL 5
REMARK VINA RESULT:    -6.737      4.535      7.613
REMARK INTER + INTRA:          -8.842
REMARK INTER:                  -8.150
REMARK INTRA:                  -0.692
REMARK UNBOUND:                -0.924
REMARK  Name = 
REMARK  4 active torsions:
REMARK  status: ('A' for Active; 'I' for Inactive)
REMARK    1  A    between atoms: C_1  and  C_2
REMARK    2  A    between atoms: C_8  and  O_9
REMARK    3  A    between atoms: O_9  and  C_10
REMARK    4  A    between atoms: C_14  and  C_15
REMARK                            x       y       z     vdW  Elec       q    Type
REMARK                         _______ _______ _______ _____ _____    ______ ____
ROOT
ATOM      1  C   UNL     1     -16.542  43.513 -12.326  0.00  0.00    +0.701 C 
ATOM      2  O   UNL     1     -16.044  42.693 -13.104  0.00  0.00    -0.511 OA
ATOM      3  N   UNL     1     -15.906  44.714 -11.928  0.00  0.00    -0.550 N 
ATOM      4  C   UNL     1     -14.507  44.761 -11.959  0.00  0.00    +0.307 A 
ATOM      5  C   UNL     1     -13.812  45.892 -11.726  0.00  0.00    -0.077 A 
ATOM      6  C   UNL     1     -14.552  47.113 -11.481  0.00  0.00    +0.160 A 
ATOM      7  C   UNL     1     -15.884  47.122 -11.408  0.00  0.00    -0.025 A 
ATOM      8  C   UNL     1     -16.644  45.862 -11.606  0.00  0.00    +0.483 A 
ATOM      9  N   UNL     1     -17.928  45.878 -11.518  0.00  0.00    -0.569 NA
ATOM     10  H   UNL     1     -18.295  46.799 -11.273  0.00  0.00    +0.283 HD
ENDROOT
BRANCH   5  11
ATOM     11  C   UNL     1     -12.314  45.938 -11.549  0.00  0.00    +0.497 C 
ATOM     12  O   UNL     1     -11.630  46.506 -12.404  0.00  0.00    -0.483 OA
ATOM     13  N   UNL     1     -11.757  45.334 -10.430  0.00  0.00    -0.508 N 
ATOM     14  C   UNL     1     -10.436  45.416 -10.057  0.00  0.00    +0.235 C 
ATOM     15  C   UNL     1      -9.493  44.626  -9.134  0.00  0.00    +0.002 C 
ATOM     16  C   UNL     1     -10.339  43.478  -8.550  0.00  0.00    +0.029 C 
ATOM     17  C   UNL     1     -11.763  43.164  -8.798  0.00  0.00    +0.299 C 
ATOM     18  F   UNL     1     -11.892  41.976  -9.430  0.00  0.00    -0.285 F 
ATOM     19  F   UNL     1     -12.476  43.137  -7.656  0.00  0.00    -0.284 F 
ATOM     20  C   UNL     1     -12.213  44.263  -9.693  0.00  0.00    +0.176 C 
ENDBRANCH   5  11
BRANCH   1  21
ATOM     21  O   UNL     1     -17.795  43.348 -11.750  0.00  0.00    -0.510 OA
BRANCH  21  29
ATOM     22  C   UNL     1     -19.355  41.025 -12.883  0.00  0.00    +0.240 C 
ATOM     23  C   UNL     1     -19.030  41.225 -11.434  0.00  0.00    +0.063 A 
ATOM     24  C   UNL     1     -19.600  40.351 -10.493  0.00  0.00    +0.013 A 
ATOM     25  C   UNL     1     -19.375  40.530  -9.131  0.00  0.00    +0.235 A 
ATOM     26  F   UNL     1     -19.977  39.718  -8.253  0.00  0.00    -0.304 F 
ATOM     27  C   UNL     1     -18.561  41.555  -8.665  0.00  0.00    +0.054 A 
ATOM     28  C   UNL     1     -17.970  42.423  -9.581  0.00  0.00    +0.083 A 
ATOM     29  C   UNL     1     -18.202  42.254 -10.952  0.00  0.00    +0.247 A 
ENDBRANCH  21  29
ENDBRANCH   1  21
TORSDOF 3
ENDMDL
