MODEL 1
REMARK VINA RESULT:    -5.655      0.000      0.000
REMARK INTER + INTRA:          -9.084
REMARK INTER:                  -6.977
REMARK INTRA:                  -2.106
REMARK UNBOUND:                -2.106
REMARK  Name = 
REMARK  5 active torsions:
REMARK  status: ('A' for Active; 'I' for Inactive)
REMARK    1  A    between atoms: C_1  and  C_2
REMARK    2  A    between atoms: C_6  and  C_7
REMARK    3  A    between atoms: C_11  and  C_12
REMARK    4  A    between atoms: N_14  and  C_15
REMARK    5  A    between atoms: C_15  and  C_16
REMARK                            x       y       z     vdW  Elec       q    Type
REMARK                         _______ _______ _______ _____ _____    ______ ____
ROOT
ATOM      1  C   UNL     1     -32.036  46.299   4.338  0.00  0.00    +0.459 C 
ATOM      2  O   UNL     1     -31.915  47.007   5.338  0.00  0.00    -0.502 OA
ATOM      3  N   UNL     1     -30.978  45.542   3.790  0.00  0.00    -0.510 N 
ATOM      4  C   UNL     1     -31.192  44.554   2.737  0.00  0.00    +0.182 C 
ATOM      5  C   UNL     1     -30.392  43.276   2.892  0.00  0.00    -0.048 C 
ATOM      6  C   UNL     1     -28.915  43.647   2.957  0.00  0.00    +0.118 C 
ATOM      7  C   UNL     1     -28.630  44.742   3.976  0.00  0.00    +0.039 C 
ATOM      8  C   UNL     1     -29.649  45.881   4.007  0.00  0.00    +0.464 C 
ATOM      9  N   UNL     1     -29.277  47.090   4.258  0.00  0.00    -0.593 NA
ATOM     10  H   UNL     1     -28.270  47.142   4.425  0.00  0.00    +0.265 HD
ENDROOT
BRANCH   1  16
ATOM     11  C   UNL     1     -36.070  44.241   3.651  0.00  0.00    +0.055 C 
ATOM     12  C   UNL     1     -35.933  45.648   4.247  0.00  0.00    +0.088 C 
ATOM     13  C   UNL     1     -36.293  46.725   3.213  0.00  0.00    +0.033 C 
ATOM     14  C   UNL     1     -35.219  46.893   2.147  0.00  0.00    +0.052 C 
ATOM     15  C   UNL     1     -33.867  47.185   2.786  0.00  0.00    +0.067 C 
ATOM     16  C   UNL     1     -33.446  46.062   3.750  0.00  0.00    +0.008 C 
ATOM     17  C   UNL     1     -34.529  45.897   4.836  0.00  0.00    +0.097 C 
ENDBRANCH   1  16
BRANCH   5  18
ATOM     18  C   UNL     1     -30.888  42.461   4.079  0.00  0.00    +0.514 C 
ATOM     19  O   UNL     1     -30.145  41.759   4.757  0.00  0.00    -0.524 OA
ATOM     20  N   UNL     1     -32.241  42.568   4.330  0.00  0.00    -0.657 N 
ATOM     21  H   UNL     1     -32.855  42.986   3.647  0.00  0.00    +0.263 HD
BRANCH  20  22
ATOM     22  C   UNL     1     -32.862  41.860   5.432  0.00  0.00    +0.260 C 
BRANCH  22  23
ATOM     23  C   UNL     1     -33.417  42.797   6.463  0.00  0.00    +0.004 C 
ATOM     24  C   UNL     1     -32.594  43.762   7.048  0.00  0.00    -0.020 C 
ATOM     25  C   UNL     1     -33.111  44.671   7.971  0.00  0.00    -0.020 C 
ATOM     26  C   UNL     1     -34.458  44.620   8.314  0.00  0.00    -0.025 C 
ATOM     27  C   UNL     1     -35.287  43.658   7.743  0.00  0.00    -0.027 C 
ATOM     28  C   UNL     1     -34.768  42.753   6.819  0.00  0.00    -0.040 C 
ENDBRANCH  22  23
ENDBRANCH  20  22
ENDBRANCH   5  18
TORSDOF 4
ENDMDL
MODEL 2
REMARK VINA RESULT:    -5.479     21.998     24.017
REMARK INTER + INTRA:          -8.867
REMARK INTER:                  -7.508
REMARK INTRA:                  -1.359
REMARK UNBOUND:                -2.106
REMARK  Name = 
REMARK  5 active torsions:
REMARK  status: ('A' for Active; 'I' for Inactive)
REMARK    1  A    between atoms: C_1  and  C_2
REMARK    2  A    between atoms: C_6  and  C_7
REMARK    3  A    between atoms: C_11  and  C_12
REMARK    4  A    between atoms: N_14  and  C_15
REMARK    5  A    between atoms: C_15  and  C_16
REMARK                            x       y       z     vdW  Elec       q    Type
REMARK                         _______ _______ _______ _____ _____    ______ ____
ROOT
ATOM      1  C   UNL     1     -17.856  43.560 -13.141  0.00  0.00    +0.459 C 
ATOM      2  O   UNL     1     -17.986  43.594 -14.365  0.00  0.00    -0.502 OA
ATOM      3  N   UNL     1     -18.208  42.442 -12.355  0.00  0.00    -0.510 N 
ATOM      4  C   UNL     1     -17.854  42.342 -10.942  0.00  0.00    +0.182 C 
ATOM      5  C   UNL     1     -17.401  40.966 -10.497  0.00  0.00    -0.048 C 
ATOM      6  C   UNL     1     -18.512  39.974 -10.820  0.00  0.00    +0.118 C 
ATOM      7  C   UNL     1     -18.996  40.085 -12.259  0.00  0.00    +0.039 C 
ATOM      8  C   UNL     1     -19.144  41.512 -12.786  0.00  0.00    +0.464 C 
ATOM      9  N   UNL     1     -20.083  41.812 -13.619  0.00  0.00    -0.593 NA
ATOM     10  H   UNL     1     -20.653  40.994 -13.847  0.00  0.00    +0.265 HD
ENDROOT
BRANCH   1  16
ATOM     11  C   UNL     1     -14.302  45.910 -11.462  0.00  0.00    +0.055 C 
ATOM     12  C   UNL     1     -15.205  46.438 -12.585  0.00  0.00    +0.088 C 
ATOM     13  C   UNL     1     -16.174  47.506 -12.060  0.00  0.00    +0.033 C 
ATOM     14  C   UNL     1     -17.293  46.914 -11.214  0.00  0.00    +0.052 C 
ATOM     15  C   UNL     1     -18.041  45.836 -11.987  0.00  0.00    +0.067 C 
ATOM     16  C   UNL     1     -17.097  44.706 -12.433  0.00  0.00    +0.008 C 
ATOM     17  C   UNL     1     -15.968  45.303 -13.299  0.00  0.00    +0.097 C 
ENDBRANCH   1  16
BRANCH   5  18
ATOM     18  C   UNL     1     -16.048  40.613 -11.100  0.00  0.00    +0.514 C 
ATOM     19  O   UNL     1     -15.843  39.561 -11.694  0.00  0.00    -0.524 OA
ATOM     20  N   UNL     1     -15.068  41.569 -10.922  0.00  0.00    -0.657 N 
ATOM     21  H   UNL     1     -15.205  42.324 -10.267  0.00  0.00    +0.263 HD
BRANCH  20  22
ATOM     22  C   UNL     1     -13.730  41.383 -11.448  0.00  0.00    +0.260 C 
BRANCH  22  23
ATOM     23  C   UNL     1     -12.785  42.446 -10.972  0.00  0.00    +0.004 C 
ATOM     24  C   UNL     1     -11.839  42.986 -11.846  0.00  0.00    -0.020 C 
ATOM     25  C   UNL     1     -10.988  44.009 -11.428  0.00  0.00    -0.020 C 
ATOM     26  C   UNL     1     -11.081  44.501 -10.130  0.00  0.00    -0.025 C 
ATOM     27  C   UNL     1     -12.015  43.966  -9.248  0.00  0.00    -0.027 C 
ATOM     28  C   UNL     1     -12.865  42.946  -9.668  0.00  0.00    -0.040 C 
ENDBRANCH  22  23
ENDBRANCH  20  22
ENDBRANCH   5  18
TORSDOF 4
ENDMDL
MODEL 3
REMARK VINA RESULT:    -5.408      3.051      5.491
REMARK INTER + INTRA:          -8.779
REMARK INTER:                  -7.975
REMARK INTRA:                  -0.804
REMARK UNBOUND:                -2.106
REMARK  Name = 
REMARK  5 active torsions:
REMARK  status: ('A' for Active; 'I' for Inactive)
REMARK    1  A    between atoms: C_1  and  C_2
REMARK    2  A    between atoms: C_6  and  C_7
REMARK    3  A    between atoms: C_11  and  C_12
REMARK    4  A    between atoms: N_14  and  C_15
REMARK    5  A    between atoms: C_15  and  C_16
REMARK                            x       y       z     vdW  Elec       q    Type
REMARK                         _______ _______ _______ _____ _____    ______ ____
ROOT
ATOM      1  C   UNL     1     -29.843  45.806   4.187  0.00  0.00    +0.459 C 
ATOM      2  O   UNL     1     -29.374  46.072   5.295  0.00  0.00    -0.502 OA
ATOM      3  N   UNL     1     -29.271  46.251   2.976  0.00  0.00    -0.510 N 
ATOM      4  C   UNL     1     -29.717  45.757   1.677  0.00  0.00    +0.182 C 
ATOM      5  C   UNL     1     -28.606  45.499   0.680  0.00  0.00    -0.048 C 
ATOM      6  C   UNL     1     -27.824  46.794   0.496  0.00  0.00    +0.118 C 
ATOM      7  C   UNL     1     -27.403  47.417   1.820  0.00  0.00    +0.039 C 
ATOM      8  C   UNL     1     -28.460  47.378   2.922  0.00  0.00    +0.464 C 
ATOM      9  N   UNL     1     -28.560  48.342   3.773  0.00  0.00    -0.593 NA
ATOM     10  H   UNL     1     -27.860  49.066   3.598  0.00  0.00    +0.265 HD
ENDROOT
BRANCH   1  16
ATOM     11  C   UNL     1     -31.919  41.725   4.096  0.00  0.00    +0.055 C 
ATOM     12  C   UNL     1     -32.194  42.785   5.169  0.00  0.00    +0.088 C 
ATOM     13  C   UNL     1     -33.537  43.487   4.923  0.00  0.00    +0.033 C 
ATOM     14  C   UNL     1     -33.484  44.454   3.748  0.00  0.00    +0.052 C 
ATOM     15  C   UNL     1     -32.367  45.472   3.938  0.00  0.00    +0.067 C 
ATOM     16  C   UNL     1     -30.999  44.785   4.084  0.00  0.00    +0.008 C 
ATOM     17  C   UNL     1     -31.047  43.812   5.281  0.00  0.00    +0.097 C 
ENDBRANCH   1  16
BRANCH   5  18
ATOM     18  C   UNL     1     -27.758  44.307   1.102  0.00  0.00    +0.514 C 
ATOM     19  O   UNL     1     -26.798  44.412   1.857  0.00  0.00    -0.524 OA
ATOM     20  N   UNL     1     -28.150  43.097   0.564  0.00  0.00    -0.657 N 
ATOM     21  H   UNL     1     -28.809  43.069  -0.200  0.00  0.00    +0.263 HD
BRANCH  20  22
ATOM     22  C   UNL     1     -27.448  41.869   0.880  0.00  0.00    +0.260 C 
BRANCH  22  23
ATOM     23  C   UNL     1     -28.391  40.744   1.185  0.00  0.00    +0.004 C 
ATOM     24  C   UNL     1     -29.771  40.938   1.080  0.00  0.00    -0.020 C 
ATOM     25  C   UNL     1     -30.656  39.886   1.314  0.00  0.00    -0.020 C 
ATOM     26  C   UNL     1     -30.164  38.629   1.655  0.00  0.00    -0.025 C 
ATOM     27  C   UNL     1     -28.792  38.426   1.769  0.00  0.00    -0.027 C 
ATOM     28  C   UNL     1     -27.910  39.478   1.533  0.00  0.00    -0.040 C 
ENDBRANCH  22  23
ENDBRANCH  20  22
ENDBRANCH   5  18
TORSDOF 4
ENDMDL
MODEL 4
REMARK VINA RESULT:    -5.354      2.961      4.367
REMARK INTER + INTRA:          -8.712
REMARK INTER:                  -6.938
REMARK INTRA:                  -1.774
REMARK UNBOUND:                -2.106
REMARK  Name = 
REMARK  5 active torsions:
REMARK  status: ('A' for Active; 'I' for Inactive)
REMARK    1  A    between atoms: C_1  and  C_2
REMARK    2  A    between atoms: C_6  and  C_7
REMARK    3  A    between atoms: C_11  and  C_12
REMARK    4  A    between atoms: N_14  and  C_15
REMARK    5  A    between atoms: C_15  and  C_16
REMARK                            x       y       z     vdW  Elec       q    Type
REMARK                         _______ _______ _______ _____ _____    ______ ____
ROOT
ATOM      1  C   UNL     1     -28.895  42.769   2.001  0.00  0.00    +0.459 C 
ATOM      2  O   UNL     1     -27.765  43.226   2.175  0.00  0.00    -0.502 OA
ATOM      3  N   UNL     1     -29.143  41.425   1.650  0.00  0.00    -0.510 N 
ATOM      4  C   UNL     1     -30.487  40.855   1.654  0.00  0.00    +0.182 C 
ATOM      5  C   UNL     1     -30.578  39.444   2.198  0.00  0.00    -0.048 C 
ATOM      6  C   UNL     1     -29.647  38.559   1.379  0.00  0.00    +0.118 C 
ATOM      7  C   UNL     1     -28.245  39.139   1.256  0.00  0.00    +0.039 C 
ATOM      8  C   UNL     1     -28.185  40.647   1.014  0.00  0.00    +0.464 C 
ATOM      9  N   UNL     1     -27.259  41.159   0.276  0.00  0.00    -0.593 NA
ATOM     10  H   UNL     1     -26.625  40.439  -0.078  0.00  0.00    +0.265 HD
ENDROOT
BRANCH   1  16
ATOM     11  C   UNL     1     -32.976  43.837   3.784  0.00  0.00    +0.055 C 
ATOM     12  C   UNL     1     -31.664  44.494   4.232  0.00  0.00    +0.088 C 
ATOM     13  C   UNL     1     -31.531  45.912   3.658  0.00  0.00    +0.033 C 
ATOM     14  C   UNL     1     -31.214  45.911   2.169  0.00  0.00    +0.052 C 
ATOM     15  C   UNL     1     -29.962  45.091   1.884  0.00  0.00    +0.067 C 
ATOM     16  C   UNL     1     -30.121  43.638   2.363  0.00  0.00    +0.008 C 
ATOM     17  C   UNL     1     -30.432  43.636   3.875  0.00  0.00    +0.097 C 
ENDBRANCH   1  16
BRANCH   5  18
ATOM     18  C   UNL     1     -30.312  39.418   3.697  0.00  0.00    +0.514 C 
ATOM     19  O   UNL     1     -29.337  38.859   4.187  0.00  0.00    -0.524 OA
ATOM     20  N   UNL     1     -31.257  40.069   4.465  0.00  0.00    -0.657 N 
ATOM     21  H   UNL     1     -32.141  40.344   4.061  0.00  0.00    +0.263 HD
BRANCH  20  22
ATOM     22  C   UNL     1     -31.138  40.140   5.908  0.00  0.00    +0.260 C 
BRANCH  22  23
ATOM     23  C   UNL     1     -31.987  41.231   6.489  0.00  0.00    +0.004 C 
ATOM     24  C   UNL     1     -33.378  41.176   6.371  0.00  0.00    -0.020 C 
ATOM     25  C   UNL     1     -34.180  42.159   6.950  0.00  0.00    -0.020 C 
ATOM     26  C   UNL     1     -33.593  43.205   7.654  0.00  0.00    -0.025 C 
ATOM     27  C   UNL     1     -32.208  43.275   7.773  0.00  0.00    -0.027 C 
ATOM     28  C   UNL     1     -31.410  42.290   7.196  0.00  0.00    -0.040 C 
ENDBRANCH  22  23
ENDBRANCH  20  22
ENDBRANCH   5  18
TORSDOF 4
ENDMDL
MODEL 5
REMARK VINA RESULT:    -5.320      3.073      5.138
REMARK INTER + INTRA:          -8.671
REMARK INTER:                  -6.857
REMARK INTRA:                  -1.813
REMARK UNBOUND:                -2.106
REMARK  Name = 
REMARK  5 active torsions:
REMARK  status: ('A' for Active; 'I' for Inactive)
REMARK    1  A    between atoms: C_1  and  C_2
REMARK    2  A    between atoms: C_6  and  C_7
REMARK    3  A    between atoms: C_11  and  C_12
REMARK    4  A    between atoms: N_14  and  C_15
REMARK    5  A    between atoms: C_15  and  C_16
REMARK                            x       y       z     vdW  Elec       q    Type
REMARK                         _______ _______ _______ _____ _____    ______ ____
ROOT
ATOM      1  C   UNL     1     -27.644  42.613   1.691  0.00  0.00    +0.459 C 
ATOM      2  O   UNL     1     -26.508  42.682   2.163  0.00  0.00    -0.502 OA
ATOM      3  N   UNL     1     -28.316  41.393   1.463  0.00  0.00    -0.510 N 
ATOM      4  C   UNL     1     -29.729  41.339   1.102  0.00  0.00    +0.182 C 
ATOM      5  C   UNL     1     -30.514  40.229   1.771  0.00  0.00    -0.048 C 
ATOM      6  C   UNL     1     -29.845  38.903   1.429  0.00  0.00    +0.118 C 
ATOM      7  C   UNL     1     -28.346  38.917   1.696  0.00  0.00    +0.039 C 
ATOM      8  C   UNL     1     -27.626  40.201   1.287  0.00  0.00    +0.464 C 
ATOM      9  N   UNL     1     -26.419  40.162   0.831  0.00  0.00    -0.593 NA
ATOM     10  H   UNL     1     -26.063  39.204   0.805  0.00  0.00    +0.265 HD
ENDROOT
BRANCH   1  16
ATOM     11  C   UNL     1     -31.094  45.575   2.231  0.00  0.00    +0.055 C 
ATOM     12  C   UNL     1     -29.655  45.871   2.670  0.00  0.00    +0.088 C 
ATOM     13  C   UNL     1     -28.965  46.834   1.694  0.00  0.00    +0.033 C 
ATOM     14  C   UNL     1     -28.601  46.167   0.375  0.00  0.00    +0.052 C 
ATOM     15  C   UNL     1     -27.742  44.932   0.615  0.00  0.00    +0.067 C 
ATOM     16  C   UNL     1     -28.464  43.911   1.511  0.00  0.00    +0.008 C 
ATOM     17  C   UNL     1     -28.825  44.583   2.852  0.00  0.00    +0.097 C 
ENDBRANCH   1  16
BRANCH   5  18
ATOM     18  C   UNL     1     -30.666  40.490   3.264  0.00  0.00    +0.514 C 
ATOM     19  O   UNL     1     -30.512  39.614   4.108  0.00  0.00    -0.524 OA
ATOM     20  N   UNL     1     -30.996  41.789   3.594  0.00  0.00    -0.657 N 
ATOM     21  H   UNL     1     -31.309  42.433   2.882  0.00  0.00    +0.263 HD
BRANCH  20  22
ATOM     22  C   UNL     1     -31.165  42.196   4.975  0.00  0.00    +0.260 C 
BRANCH  22  23
ATOM     23  C   UNL     1     -31.999  43.436   5.098  0.00  0.00    +0.004 C 
ATOM     24  C   UNL     1     -31.516  44.540   5.805  0.00  0.00    -0.020 C 
ATOM     25  C   UNL     1     -32.261  45.715   5.885  0.00  0.00    -0.020 C 
ATOM     26  C   UNL     1     -33.499  45.795   5.254  0.00  0.00    -0.025 C 
ATOM     27  C   UNL     1     -33.995  44.699   4.553  0.00  0.00    -0.027 C 
ATOM     28  C   UNL     1     -33.247  43.527   4.473  0.00  0.00    -0.040 C 
ENDBRANCH  22  23
ENDBRANCH  20  22
ENDBRANCH   5  18
TORSDOF 4
ENDMDL
