MODEL 1
REMARK VINA RESULT:    -8.456      0.000      0.000
REMARK INTER + INTRA:         -11.331
REMARK INTER:                 -10.680
REMARK INTRA:                  -0.651
REMARK UNBOUND:                -0.651
REMARK  Name = 
REMARK  5 active torsions:
REMARK  status: ('A' for Active; 'I' for Inactive)
REMARK    1  A    between atoms: N_3  and  C_4
REMARK    2  A    between atoms: C_10  and  C_11
REMARK    3  A    between atoms: C_11  and  O_12
REMARK    4  A    between atoms: N_13  and  C_14
REMARK    5  A    between atoms: C_14  and  C_15
REMARK                            x       y       z     vdW  Elec       q    Type
REMARK                         _______ _______ _______ _____ _____    ______ ____
ROOT
ATOM      1  C   UNL     1     -18.344  41.796 -12.280  0.00  0.00    +0.401 C 
ATOM      2  N   UNL     1     -17.288  42.491 -11.563  0.00  0.00    -0.664 N 
ATOM      3  C   UNL     1     -16.024  41.974 -11.561  0.00  0.00    +0.523 C 
ATOM      4  N   UNL     1     -14.979  42.720 -11.667  0.00  0.00    -0.612 NA
ATOM      5  C   UNL     1     -15.847  40.484 -11.376  0.00  0.00    +0.101 C 
ATOM      6  C   UNL     1     -16.918  39.694 -12.118  0.00  0.00    +0.197 C 
ATOM      7  C   UNL     1     -18.318  40.292 -11.960  0.00  0.00    +0.015 C 
ATOM      8  H   UNL     1     -17.335  43.489 -11.723  0.00  0.00    +0.305 HD
ATOM      9  H   UNL     1     -15.257  43.694 -11.785  0.00  0.00    +0.299 HD
ENDROOT
BRANCH   1  12
ATOM     10  N   UNL     1     -20.174  42.669 -14.874  0.00  0.00    -0.163 NA
ATOM     11  N   UNL     1     -19.227  42.340 -14.333  0.00  0.00    -0.021 NA
ATOM     12  N   UNL     1     -18.202  41.987 -13.728  0.00  0.00    -0.262 NA
ENDBRANCH   1  12
BRANCH   7  13
ATOM     13  C   UNL     1     -19.004  40.045 -10.637  0.00  0.00    +0.461 C 
ATOM     14  N   UNL     1     -18.716  40.800  -9.633  0.00  0.00    -0.501 NA
BRANCH  13  15
ATOM     15  O   UNL     1     -19.963  39.108 -10.624  0.00  0.00    -0.611 OA
ATOM     16  H   UNL     1     -20.785  39.456 -10.246  0.00  0.00    +0.313 HD
ENDBRANCH  13  15
BRANCH  14  17
ATOM     17  C   UNL     1     -19.463  40.859  -8.530  0.00  0.00    +0.219 C 
BRANCH  17  18
ATOM     18  C   UNL     1     -20.496  41.109  -7.582  0.00  0.00    -0.059 C 
ATOM     19  C   UNL     1     -21.822  40.847  -7.917  0.00  0.00    +0.012 C 
ATOM     20  C   UNL     1     -22.846  41.401  -7.153  0.00  0.00    +0.005 C 
ATOM     21  C   UNL     1     -22.544  42.228  -6.073  0.00  0.00    +0.010 C 
ATOM     22  C   UNL     1     -21.218  42.470  -5.725  0.00  0.00    +0.006 C 
ATOM     23  C   UNL     1     -20.194  41.914  -6.485  0.00  0.00    +0.027 C 
ENDBRANCH  17  18
ENDBRANCH  14  17
ENDBRANCH   7  13
TORSDOF 5
ENDMDL
MODEL 2
REMARK VINA RESULT:    -7.456      4.134      7.064
REMARK INTER + INTRA:         -10.069
REMARK INTER:                  -9.368
REMARK INTRA:                  -0.701
REMARK UNBOUND:                -0.651
REMARK  Name = 
REMARK  5 active torsions:
REMARK  status: ('A' for Active; 'I' for Inactive)
REMARK    1  A    between atoms: N_3  and  C_4
REMARK    2  A    between atoms: C_10  and  C_11
REMARK    3  A    between atoms: C_11  and  O_12
REMARK    4  A    between atoms: N_13  and  C_14
REMARK    5  A    between atoms: C_14  and  C_15
REMARK                            x       y       z     vdW  Elec       q    Type
REMARK                         _______ _______ _______ _____ _____    ______ ____
ROOT
ATOM      1  C   UNL     1     -18.817  41.992 -11.471  0.00  0.00    +0.401 C 
ATOM      2  N   UNL     1     -19.696  40.855 -11.693  0.00  0.00    -0.664 N 
ATOM      3  C   UNL     1     -19.164  39.661 -12.087  0.00  0.00    +0.523 C 
ATOM      4  N   UNL     1     -19.588  38.536 -11.622  0.00  0.00    -0.612 NA
ATOM      5  C   UNL     1     -18.079  39.658 -13.140  0.00  0.00    +0.101 C 
ATOM      6  C   UNL     1     -17.113  40.820 -12.954  0.00  0.00    +0.197 C 
ATOM      7  C   UNL     1     -17.818  42.140 -12.631  0.00  0.00    +0.015 C 
ATOM      8  H   UNL     1     -20.394  40.786 -10.963  0.00  0.00    +0.305 HD
ATOM      9  H   UNL     1     -20.315  38.699 -10.925  0.00  0.00    +0.299 HD
ENDROOT
BRANCH   1  12
ATOM     10  N   UNL     1     -19.241  40.703  -8.472  0.00  0.00    -0.163 NA
ATOM     11  N   UNL     1     -18.680  41.251  -9.299  0.00  0.00    -0.021 NA
ATOM     12  N   UNL     1     -18.080  41.840 -10.211  0.00  0.00    -0.262 NA
ENDBRANCH   1  12
BRANCH   7  13
ATOM     13  C   UNL     1     -18.489  42.839 -13.789  0.00  0.00    +0.461 C 
ATOM     14  N   UNL     1     -19.588  42.356 -14.260  0.00  0.00    -0.501 NA
BRANCH  13  15
ATOM     15  O   UNL     1     -17.943  43.997 -14.189  0.00  0.00    -0.611 OA
ATOM     16  H   UNL     1     -17.467  43.887 -15.027  0.00  0.00    +0.313 HD
ENDBRANCH  13  15
BRANCH  14  17
ATOM     17  C   UNL     1     -20.399  43.044 -15.064  0.00  0.00    +0.219 C 
BRANCH  17  18
ATOM     18  C   UNL     1     -20.993  43.708 -16.175  0.00  0.00    -0.059 C 
ATOM     19  C   UNL     1     -20.254  44.637 -16.902  0.00  0.00    +0.012 C 
ATOM     20  C   UNL     1     -20.911  45.527 -17.748  0.00  0.00    +0.005 C 
ATOM     21  C   UNL     1     -22.301  45.500 -17.848  0.00  0.00    +0.010 C 
ATOM     22  C   UNL     1     -23.036  44.556 -17.138  0.00  0.00    +0.006 C 
ATOM     23  C   UNL     1     -22.381  43.663 -16.297  0.00  0.00    +0.027 C 
ENDBRANCH  17  18
ENDBRANCH  14  17
ENDBRANCH   7  13
TORSDOF 5
ENDMDL
MODEL 3
REMARK VINA RESULT:    -7.170      3.714      6.798
REMARK INTER + INTRA:          -9.708
REMARK INTER:                  -9.004
REMARK INTRA:                  -0.703
REMARK UNBOUND:                -0.651
REMARK  Name = 
REMARK  5 active torsions:
REMARK  status: ('A' for Active; 'I' for Inactive)
REMARK    1  A    between atoms: N_3  and  C_4
REMARK    2  A    between atoms: C_10  and  C_11
REMARK    3  A    between atoms: C_11  and  O_12
REMARK    4  A    between atoms: N_13  and  C_14
REMARK    5  A    between atoms: C_14  and  C_15
REMARK                            x       y       z     vdW  Elec       q    Type
REMARK                         _______ _______ _______ _____ _____    ______ ____
ROOT
ATOM      1  C   UNL     1     -18.459  40.448 -11.014  0.00  0.00    +0.401 C 
ATOM      2  N   UNL     1     -17.152  40.006 -11.471  0.00  0.00    -0.664 N 
ATOM      3  C   UNL     1     -16.082  40.845 -11.360  0.00  0.00    +0.523 C 
ATOM      4  N   UNL     1     -14.915  40.425 -11.007  0.00  0.00    -0.612 NA
ATOM      5  C   UNL     1     -16.260  42.305 -11.714  0.00  0.00    +0.101 C 
ATOM      6  C   UNL     1     -17.608  42.836 -11.246  0.00  0.00    +0.197 C 
ATOM      7  C   UNL     1     -18.761  41.867 -11.524  0.00  0.00    +0.015 C 
ATOM      8  H   UNL     1     -16.971  39.051 -11.189  0.00  0.00    +0.305 HD
ATOM      9  H   UNL     1     -14.953  39.427 -10.801  0.00  0.00    +0.299 HD
ENDROOT
BRANCH   1  12
ATOM     10  N   UNL     1     -20.702  40.146  -8.623  0.00  0.00    -0.163 NA
ATOM     11  N   UNL     1     -19.659  40.287  -9.058  0.00  0.00    -0.021 NA
ATOM     12  N   UNL     1     -18.528  40.434  -9.547  0.00  0.00    -0.262 NA
ENDBRANCH   1  12
BRANCH   7  13
ATOM     13  C   UNL     1     -19.246  41.798 -12.952  0.00  0.00    +0.461 C 
ATOM     14  N   UNL     1     -19.802  42.837 -13.474  0.00  0.00    -0.501 NA
BRANCH  13  15
ATOM     15  O   UNL     1     -18.964  40.674 -13.627  0.00  0.00    -0.611 OA
ATOM     16  H   UNL     1     -18.759  39.946 -13.021  0.00  0.00    +0.313 HD
ENDBRANCH  13  15
BRANCH  14  17
ATOM     17  C   UNL     1     -19.991  42.977 -14.787  0.00  0.00    +0.219 C 
BRANCH  17  18
ATOM     18  C   UNL     1     -20.535  43.241 -16.077  0.00  0.00    -0.059 C 
ATOM     19  C   UNL     1     -19.683  43.485 -17.151  0.00  0.00    +0.012 C 
ATOM     20  C   UNL     1     -20.187  44.074 -18.307  0.00  0.00    +0.005 C 
ATOM     21  C   UNL     1     -21.531  44.437 -18.379  0.00  0.00    +0.010 C 
ATOM     22  C   UNL     1     -22.386  44.171 -17.313  0.00  0.00    +0.006 C 
ATOM     23  C   UNL     1     -21.885  43.578 -16.159  0.00  0.00    +0.027 C 
ENDBRANCH  17  18
ENDBRANCH  14  17
ENDBRANCH   7  13
TORSDOF 5
ENDMDL
MODEL 4
REMARK VINA RESULT:    -7.048      4.089      6.726
REMARK INTER + INTRA:          -9.554
REMARK INTER:                  -8.801
REMARK INTRA:                  -0.753
REMARK UNBOUND:                -0.651
REMARK  Name = 
REMARK  5 active torsions:
REMARK  status: ('A' for Active; 'I' for Inactive)
REMARK    1  A    between atoms: N_3  and  C_4
REMARK    2  A    between atoms: C_10  and  C_11
REMARK    3  A    between atoms: C_11  and  O_12
REMARK    4  A    between atoms: N_13  and  C_14
REMARK    5  A    between atoms: C_14  and  C_15
REMARK                            x       y       z     vdW  Elec       q    Type
REMARK                         _______ _______ _______ _____ _____    ______ ____
ROOT
ATOM      1  C   UNL     1     -17.715  41.052 -12.643  0.00  0.00    +0.401 C 
ATOM      2  N   UNL     1     -16.381  41.577 -12.885  0.00  0.00    -0.664 N 
ATOM      3  C   UNL     1     -15.801  42.391 -11.955  0.00  0.00    +0.523 C 
ATOM      4  N   UNL     1     -14.551  42.304 -11.653  0.00  0.00    -0.612 NA
ATOM      5  C   UNL     1     -16.641  43.463 -11.297  0.00  0.00    +0.101 C 
ATOM      6  C   UNL     1     -18.051  42.968 -11.003  0.00  0.00    +0.197 C 
ATOM      7  C   UNL     1     -18.657  42.165 -12.157  0.00  0.00    +0.015 C 
ATOM      8  H   UNL     1     -15.771  40.863 -13.261  0.00  0.00    +0.305 HD
ATOM      9  H   UNL     1     -14.120  41.539 -12.174  0.00  0.00    +0.299 HD
ENDROOT
BRANCH   1  12
ATOM     10  N   UNL     1     -19.605  38.585 -11.555  0.00  0.00    -0.163 NA
ATOM     11  N   UNL     1     -18.679  39.249 -11.590  0.00  0.00    -0.021 NA
ATOM     12  N   UNL     1     -17.676  39.977 -11.644  0.00  0.00    -0.262 NA
ENDBRANCH   1  12
BRANCH   7  13
ATOM     13  C   UNL     1     -19.148  42.964 -13.341  0.00  0.00    +0.461 C 
ATOM     14  N   UNL     1     -19.271  42.378 -14.482  0.00  0.00    -0.501 NA
BRANCH  13  15
ATOM     15  O   UNL     1     -19.532  44.225 -13.096  0.00  0.00    -0.611 OA
ATOM     16  H   UNL     1     -20.102  44.270 -12.312  0.00  0.00    +0.313 HD
ENDBRANCH  13  15
BRANCH  14  17
ATOM     17  C   UNL     1     -19.962  42.900 -15.497  0.00  0.00    +0.219 C 
BRANCH  17  18
ATOM     18  C   UNL     1     -20.700  43.763 -16.356  0.00  0.00    -0.059 C 
ATOM     19  C   UNL     1     -20.138  44.964 -16.780  0.00  0.00    +0.012 C 
ATOM     20  C   UNL     1     -20.957  45.953 -17.318  0.00  0.00    +0.005 C 
ATOM     21  C   UNL     1     -22.332  45.749 -17.411  0.00  0.00    +0.010 C 
ATOM     22  C   UNL     1     -22.889  44.539 -17.008  0.00  0.00    +0.006 C 
ATOM     23  C   UNL     1     -22.072  43.548 -16.475  0.00  0.00    +0.027 C 
ENDBRANCH  17  18
ENDBRANCH  14  17
ENDBRANCH   7  13
TORSDOF 5
ENDMDL
MODEL 5
REMARK VINA RESULT:    -6.867      3.169      6.786
REMARK INTER + INTRA:          -9.325
REMARK INTER:                  -8.892
REMARK INTRA:                  -0.433
REMARK UNBOUND:                -0.651
REMARK  Name = 
REMARK  5 active torsions:
REMARK  status: ('A' for Active; 'I' for Inactive)
REMARK    1  A    between atoms: N_3  and  C_4
REMARK    2  A    between atoms: C_10  and  C_11
REMARK    3  A    between atoms: C_11  and  O_12
REMARK    4  A    between atoms: N_13  and  C_14
REMARK    5  A    between atoms: C_14  and  C_15
REMARK                            x       y       z     vdW  Elec       q    Type
REMARK                         _______ _______ _______ _____ _____    ______ ____
ROOT
ATOM      1  C   UNL     1     -18.294  41.447 -13.018  0.00  0.00    +0.401 C 
ATOM      2  N   UNL     1     -18.364  40.010 -12.808  0.00  0.00    -0.664 N 
ATOM      3  C   UNL     1     -18.875  39.526 -11.638  0.00  0.00    +0.523 C 
ATOM      4  N   UNL     1     -19.642  38.491 -11.602  0.00  0.00    -0.612 NA
ATOM      5  C   UNL     1     -18.483  40.195 -10.340  0.00  0.00    +0.101 C 
ATOM      6  C   UNL     1     -18.406  41.709 -10.489  0.00  0.00    +0.197 C 
ATOM      7  C   UNL     1     -17.711  42.148 -11.780  0.00  0.00    +0.015 C 
ATOM      8  H   UNL     1     -18.692  39.536 -13.640  0.00  0.00    +0.305 HD
ATOM      9  H   UNL     1     -19.816  38.154 -12.549  0.00  0.00    +0.299 HD
ENDROOT
BRANCH   1  12
ATOM     10  N   UNL     1     -20.005  42.640 -15.565  0.00  0.00    -0.163 NA
ATOM     11  N   UNL     1     -19.829  42.336 -14.481  0.00  0.00    -0.021 NA
ATOM     12  N   UNL     1     -19.624  41.996 -13.306  0.00  0.00    -0.262 NA
ENDBRANCH   1  12
BRANCH   7  13
ATOM     13  C   UNL     1     -16.205  42.036 -11.798  0.00  0.00    +0.461 C 
ATOM     14  N   UNL     1     -15.498  43.113 -11.856  0.00  0.00    -0.501 NA
BRANCH  13  15
ATOM     15  O   UNL     1     -15.693  40.807 -11.644  0.00  0.00    -0.611 OA
ATOM     16  H   UNL     1     -15.468  40.413 -12.501  0.00  0.00    +0.313 HD
ENDBRANCH  13  15
BRANCH  14  17
ATOM     17  C   UNL     1     -14.193  43.142 -11.583  0.00  0.00    +0.219 C 
BRANCH  17  18
ATOM     18  C   UNL     1     -12.887  42.864 -11.089  0.00  0.00    -0.059 C 
ATOM     19  C   UNL     1     -11.844  43.748 -11.355  0.00  0.00    +0.012 C 
ATOM     20  C   UNL     1     -10.528  43.328 -11.186  0.00  0.00    +0.005 C 
ATOM     21  C   UNL     1     -10.257  42.024 -10.773  0.00  0.00    +0.010 C 
ATOM     22  C   UNL     1     -11.300  41.150 -10.485  0.00  0.00    +0.006 C 
ATOM     23  C   UNL     1     -12.616  41.569 -10.649  0.00  0.00    +0.027 C 
ENDBRANCH  17  18
ENDBRANCH  14  17
ENDBRANCH   7  13
TORSDOF 5
ENDMDL
