MODEL 1
REMARK VINA RESULT:    -8.849      0.000      0.000
REMARK INTER + INTRA:         -11.878
REMARK INTER:                 -11.953
REMARK INTRA:                   0.075
REMARK UNBOUND:                 0.075
REMARK  Name = 
REMARK  7 active torsions:
REMARK  status: ('A' for Active; 'I' for Inactive)
REMARK    1  A    between atoms: N_1  and  C_2
REMARK    2  A    between atoms: C_2  and  C_4
REMARK    3  A    between atoms: N_8  and  C_9
REMARK    4  A    between atoms: C_13  and  O_14
REMARK    5  A    between atoms: C_13  and  C_15
REMARK    6  A    between atoms: C_15  and  S_16
REMARK    7  A    between atoms: S_16  and  C_17
REMARK                            x       y       z     vdW  Elec       q    Type
REMARK                         _______ _______ _______ _____ _____    ______ ____
ROOT
ATOM      1  C   UNL     1     -18.036  41.204 -10.861  0.00  0.00    +0.200 C 
ATOM      2  C   UNL     1     -16.941  41.356 -11.809  0.00  0.00    -0.073 C 
ATOM      3  C   UNL     1     -17.061  42.105 -13.155  0.00  0.00    +0.175 C 
ATOM      4  N   UNL     1     -18.307  42.539 -13.742  0.00  0.00    -0.543 N 
ATOM      5  C   UNL     1     -18.480  43.626 -14.397  0.00  0.00    +0.504 C 
ATOM      6  C   UNL     1     -19.389  41.962 -12.973  0.00  0.00    +0.120 C 
ATOM      7  C   UNL     1     -19.286  41.313 -11.583  0.00  0.00    -0.078 C 
ENDROOT
BRANCH   1  12
ATOM      8  C   UNL     1     -21.393  41.189  -7.351  0.00  0.00    -0.128 C 
ATOM      9  C   UNL     1     -20.862  40.311  -8.363  0.00  0.00    +0.073 C 
ATOM     10  C   UNL     1     -19.787  40.439  -8.879  0.00  0.00    -0.094 C 
ATOM     11  C   UNL     1     -18.789  41.507  -8.698  0.00  0.00    +0.398 C 
ATOM     12  N   UNL     1     -17.919  41.784  -9.627  0.00  0.00    -0.455 NA
ATOM     13  N   UNL     1     -18.945  42.245  -7.571  0.00  0.00    -0.411 NA
ATOM     14  C   UNL     1     -20.365  41.978  -7.082  0.00  0.00    +0.162 C 
BRANCH   8  15
ATOM     15  C   UNL     1     -22.846  41.494  -7.157  0.00  0.00    +0.521 C 
ATOM     16  O   UNL     1     -23.738  40.771  -7.592  0.00  0.00    -0.526 OA
BRANCH  15  17
ATOM     17  N   UNL     1     -23.067  42.632  -6.487  0.00  0.00    -0.592 NA
ATOM     18  H   UNL     1     -22.849  43.381  -7.154  0.00  0.00    +0.291 HD
ENDBRANCH  15  17
ENDBRANCH   8  15
ENDBRANCH   1  12
BRANCH   5  19
ATOM     19  O   UNL     1     -17.478  44.513 -14.524  0.00  0.00    -0.556 OA
ATOM     20  H   UNL     1     -17.572  45.389 -14.087  0.00  0.00    +0.316 HD
ENDBRANCH   5  19
BRANCH   5  21
ATOM     21  C   UNL     1     -19.811  43.945 -15.038  0.00  0.00    +0.376 C 
BRANCH  21  22
ATOM     22  S   UNL     1     -19.563  44.849 -16.591  0.00  0.00    -1.327 S 
BRANCH  22  23
ATOM     23  C   UNL     1     -21.162  44.518 -17.406  0.00  0.00    +0.422 C 
ATOM     24  C   UNL     1     -22.165  45.693 -17.316  0.00  0.00    +0.069 C 
ATOM     25  C   UNL     1     -23.245  44.653 -16.945  0.00  0.00    +0.034 C 
ATOM     26  C   UNL     1     -22.104  43.754 -16.435  0.00  0.00    +0.123 C 
ENDBRANCH  22  23
ENDBRANCH  21  22
ENDBRANCH   5  21
TORSDOF 7
ENDMDL
MODEL 2
REMARK VINA RESULT:    -7.186      3.397      8.453
REMARK INTER + INTRA:          -9.631
REMARK INTER:                  -9.044
REMARK INTRA:                  -0.587
REMARK UNBOUND:                 0.075
REMARK  Name = 
REMARK  7 active torsions:
REMARK  status: ('A' for Active; 'I' for Inactive)
REMARK    1  A    between atoms: N_1  and  C_2
REMARK    2  A    between atoms: C_2  and  C_4
REMARK    3  A    between atoms: N_8  and  C_9
REMARK    4  A    between atoms: C_13  and  O_14
REMARK    5  A    between atoms: C_13  and  C_15
REMARK    6  A    between atoms: C_15  and  S_16
REMARK    7  A    between atoms: S_16  and  C_17
REMARK                            x       y       z     vdW  Elec       q    Type
REMARK                         _______ _______ _______ _____ _____    ______ ____
ROOT
ATOM      1  C   UNL     1     -19.053  42.779 -14.295  0.00  0.00    +0.200 C 
ATOM      2  C   UNL     1     -17.740  42.307 -13.877  0.00  0.00    -0.073 C 
ATOM      3  C   UNL     1     -17.489  41.463 -12.608  0.00  0.00    +0.175 C 
ATOM      4  N   UNL     1     -18.466  41.235 -11.569  0.00  0.00    -0.543 N 
ATOM      5  C   UNL     1     -18.613  40.145 -10.913  0.00  0.00    +0.504 C 
ATOM      6  C   UNL     1     -19.600  42.100 -11.823  0.00  0.00    +0.120 C 
ATOM      7  C   UNL     1     -19.905  42.855 -13.128  0.00  0.00    -0.078 C 
ENDROOT
BRANCH   1  12
ATOM      8  C   UNL     1     -21.319  45.439 -17.669  0.00  0.00    -0.128 C 
ATOM      9  C   UNL     1     -20.206  45.540 -16.758  0.00  0.00    +0.073 C 
ATOM     10  C   UNL     1     -19.637  44.604 -16.272  0.00  0.00    -0.094 C 
ATOM     11  C   UNL     1     -19.936  43.167 -16.394  0.00  0.00    +0.398 C 
ATOM     12  N   UNL     1     -19.568  42.319 -15.476  0.00  0.00    -0.455 NA
ATOM     13  N   UNL     1     -20.729  42.840 -17.445  0.00  0.00    -0.411 NA
ATOM     14  C   UNL     1     -21.384  44.138 -17.903  0.00  0.00    +0.162 C 
BRANCH   8  15
ATOM     15  C   UNL     1     -22.428  46.439 -17.782  0.00  0.00    +0.521 C 
ATOM     16  O   UNL     1     -22.261  47.638 -17.577  0.00  0.00    -0.526 OA
BRANCH  15  17
ATOM     17  N   UNL     1     -23.607  45.892 -18.104  0.00  0.00    -0.592 NA
ATOM     18  H   UNL     1     -23.654  45.943 -19.129  0.00  0.00    +0.291 HD
ENDBRANCH  15  17
ENDBRANCH   8  15
ENDBRANCH   1  12
BRANCH   5  19
ATOM     19  O   UNL     1     -17.876  39.063 -11.216  0.00  0.00    -0.556 OA
ATOM     20  H   UNL     1     -18.322  38.299 -11.645  0.00  0.00    +0.316 HD
ENDBRANCH   5  19
BRANCH   5  21
ATOM     21  C   UNL     1     -19.619  40.042  -9.789  0.00  0.00    +0.376 C 
BRANCH  21  22
ATOM     22  S   UNL     1     -18.950  40.787  -8.275  0.00  0.00    -1.327 S 
BRANCH  22  23
ATOM     23  C   UNL     1     -20.354  41.855  -7.806  0.00  0.00    +0.422 C 
ATOM     24  C   UNL     1     -20.633  41.887  -6.284  0.00  0.00    +0.069 C 
ATOM     25  C   UNL     1     -22.131  41.726  -6.625  0.00  0.00    +0.034 C 
ATOM     26  C   UNL     1     -21.688  41.071  -7.946  0.00  0.00    +0.123 C 
ENDBRANCH  22  23
ENDBRANCH  21  22
ENDBRANCH   5  21
TORSDOF 7
ENDMDL
MODEL 3
REMARK VINA RESULT:    -6.955      3.495      5.045
REMARK INTER + INTRA:          -9.320
REMARK INTER:                  -9.485
REMARK INTRA:                   0.165
REMARK UNBOUND:                 0.075
REMARK  Name = 
REMARK  7 active torsions:
REMARK  status: ('A' for Active; 'I' for Inactive)
REMARK    1  A    between atoms: N_1  and  C_2
REMARK    2  A    between atoms: C_2  and  C_4
REMARK    3  A    between atoms: N_8  and  C_9
REMARK    4  A    between atoms: C_13  and  O_14
REMARK    5  A    between atoms: C_13  and  C_15
REMARK    6  A    between atoms: C_15  and  S_16
REMARK    7  A    between atoms: S_16  and  C_17
REMARK                            x       y       z     vdW  Elec       q    Type
REMARK                         _______ _______ _______ _____ _____    ______ ____
ROOT
ATOM      1  C   UNL     1     -18.848  43.733 -14.087  0.00  0.00    +0.200 C 
ATOM      2  C   UNL     1     -19.702  42.882 -14.904  0.00  0.00    -0.073 C 
ATOM      3  C   UNL     1     -19.913  43.073 -16.422  0.00  0.00    +0.175 C 
ATOM      4  N   UNL     1     -19.490  44.235 -17.168  0.00  0.00    -0.543 N 
ATOM      5  C   UNL     1     -19.032  44.224 -18.364  0.00  0.00    +0.504 C 
ATOM      6  C   UNL     1     -19.053  45.240 -16.221  0.00  0.00    +0.120 C 
ATOM      7  C   UNL     1     -18.736  45.024 -14.732  0.00  0.00    -0.078 C 
ENDROOT
BRANCH   1  12
ATOM      8  C   UNL     1     -18.852  40.588 -10.385  0.00  0.00    -0.128 C 
ATOM      9  C   UNL     1     -19.604  40.874 -11.581  0.00  0.00    +0.073 C 
ATOM     10  C   UNL     1     -19.185  41.497 -12.516  0.00  0.00    -0.094 C 
ATOM     11  C   UNL     1     -17.888  42.176 -12.675  0.00  0.00    +0.398 C 
ATOM     12  N   UNL     1     -17.746  43.180 -13.494  0.00  0.00    -0.455 NA
ATOM     13  N   UNL     1     -16.923  41.766 -11.814  0.00  0.00    -0.411 NA
ATOM     14  C   UNL     1     -17.642  41.028 -10.691  0.00  0.00    +0.162 C 
BRANCH   8  15
ATOM     15  C   UNL     1     -19.443  40.432  -9.018  0.00  0.00    +0.521 C 
ATOM     16  O   UNL     1     -18.785  40.574  -7.992  0.00  0.00    -0.526 OA
BRANCH  15  17
ATOM     17  N   UNL     1     -20.741  40.103  -9.034  0.00  0.00    -0.592 NA
ATOM     18  H   UNL     1     -21.223  40.891  -8.585  0.00  0.00    +0.291 HD
ENDBRANCH  15  17
ENDBRANCH   8  15
ENDBRANCH   1  12
BRANCH   5  19
ATOM     19  O   UNL     1     -18.837  43.061 -19.009  0.00  0.00    -0.556 OA
ATOM     20  H   UNL     1     -18.098  43.003 -19.654  0.00  0.00    +0.316 HD
ENDBRANCH   5  19
BRANCH   5  21
ATOM     21  C   UNL     1     -18.691  45.511 -19.079  0.00  0.00    +0.376 C 
BRANCH  21  22
ATOM     22  S   UNL     1     -17.823  45.158 -20.633  0.00  0.00    -1.327 S 
BRANCH  22  23
ATOM     23  C   UNL     1     -16.337  46.192 -20.404  0.00  0.00    +0.422 C 
ATOM     24  C   UNL     1     -15.008  45.444 -20.666  0.00  0.00    +0.069 C 
ATOM     25  C   UNL     1     -14.467  46.091 -19.372  0.00  0.00    +0.034 C 
ATOM     26  C   UNL     1     -15.929  46.210 -18.905  0.00  0.00    +0.123 C 
ENDBRANCH  22  23
ENDBRANCH  21  22
ENDBRANCH   5  21
TORSDOF 7
ENDMDL
MODEL 4
REMARK VINA RESULT:    -6.319     15.888     19.774
REMARK INTER + INTRA:          -8.460
REMARK INTER:                  -7.739
REMARK INTRA:                  -0.721
REMARK UNBOUND:                 0.075
REMARK  Name = 
REMARK  7 active torsions:
REMARK  status: ('A' for Active; 'I' for Inactive)
REMARK    1  A    between atoms: N_1  and  C_2
REMARK    2  A    between atoms: C_2  and  C_4
REMARK    3  A    between atoms: N_8  and  C_9
REMARK    4  A    between atoms: C_13  and  O_14
REMARK    5  A    between atoms: C_13  and  C_15
REMARK    6  A    between atoms: C_15  and  S_16
REMARK    7  A    between atoms: S_16  and  C_17
REMARK                            x       y       z     vdW  Elec       q    Type
REMARK                         _______ _______ _______ _____ _____    ______ ____
ROOT
ATOM      1  C   UNL     1     -31.311  45.048   3.685  0.00  0.00    +0.200 C 
ATOM      2  C   UNL     1     -30.444  46.011   3.020  0.00  0.00    -0.073 C 
ATOM      3  C   UNL     1     -29.146  45.632   2.272  0.00  0.00    +0.175 C 
ATOM      4  N   UNL     1     -28.514  44.335   2.334  0.00  0.00    -0.543 N 
ATOM      5  C   UNL     1     -27.924  43.749   1.360  0.00  0.00    +0.504 C 
ATOM      6  C   UNL     1     -29.175  43.563   3.365  0.00  0.00    +0.120 C 
ATOM      7  C   UNL     1     -30.523  43.885   4.032  0.00  0.00    -0.078 C 
ENDROOT
BRANCH   1  12
ATOM      8  C   UNL     1     -35.296  44.364   6.378  0.00  0.00    -0.128 C 
ATOM      9  C   UNL     1     -34.074  45.129   6.402  0.00  0.00    +0.073 C 
ATOM     10  C   UNL     1     -33.409  45.380   5.437  0.00  0.00    -0.094 C 
ATOM     11  C   UNL     1     -33.591  44.945   4.041  0.00  0.00    +0.398 C 
ATOM     12  N   UNL     1     -32.586  44.881   3.216  0.00  0.00    -0.455 NA
ATOM     13  N   UNL     1     -34.837  44.495   3.746  0.00  0.00    -0.411 NA
ATOM     14  C   UNL     1     -35.511  44.204   5.082  0.00  0.00    +0.162 C 
BRANCH   8  15
ATOM     15  C   UNL     1     -35.786  43.496   7.495  0.00  0.00    +0.521 C 
ATOM     16  O   UNL     1     -36.776  42.778   7.390  0.00  0.00    -0.526 OA
BRANCH  15  17
ATOM     17  N   UNL     1     -35.054  43.601   8.611  0.00  0.00    -0.592 NA
ATOM     18  H   UNL     1     -35.367  42.828   9.210  0.00  0.00    +0.291 HD
ENDBRANCH  15  17
ENDBRANCH   8  15
ENDBRANCH   1  12
BRANCH   5  19
ATOM     19  O   UNL     1     -27.919  44.301   0.134  0.00  0.00    -0.556 OA
ATOM     20  H   UNL     1     -28.147  43.734  -0.635  0.00  0.00    +0.316 HD
ENDBRANCH   5  19
BRANCH   5  21
ATOM     21  C   UNL     1     -27.226  42.423   1.556  0.00  0.00    +0.376 C 
BRANCH  21  22
ATOM     22  S   UNL     1     -28.009  41.141   0.538  0.00  0.00    -1.327 S 
BRANCH  22  23
ATOM     23  C   UNL     1     -28.923  40.230   1.829  0.00  0.00    +0.422 C 
ATOM     24  C   UNL     1     -29.019  38.707   1.570  0.00  0.00    +0.069 C 
ATOM     25  C   UNL     1     -30.512  38.806   1.954  0.00  0.00    +0.034 C 
ATOM     26  C   UNL     1     -30.448  40.287   1.541  0.00  0.00    +0.123 C 
ENDBRANCH  22  23
ENDBRANCH  21  22
ENDBRANCH   5  21
TORSDOF 7
ENDMDL
MODEL 5
REMARK VINA RESULT:    -6.053     16.026     20.009
REMARK INTER + INTRA:          -8.101
REMARK INTER:                  -7.546
REMARK INTRA:                  -0.555
REMARK UNBOUND:                 0.075
REMARK  Name = 
REMARK  7 active torsions:
REMARK  status: ('A' for Active; 'I' for Inactive)
REMARK    1  A    between atoms: N_1  and  C_2
REMARK    2  A    between atoms: C_2  and  C_4
REMARK    3  A    between atoms: N_8  and  C_9
REMARK    4  A    between atoms: C_13  and  O_14
REMARK    5  A    between atoms: C_13  and  C_15
REMARK    6  A    between atoms: C_15  and  S_16
REMARK    7  A    between atoms: S_16  and  C_17
REMARK                            x       y       z     vdW  Elec       q    Type
REMARK                         _______ _______ _______ _____ _____    ______ ____
ROOT
ATOM      1  C   UNL     1     -30.998  43.694   3.514  0.00  0.00    +0.200 C 
ATOM      2  C   UNL     1     -30.166  44.371   2.529  0.00  0.00    -0.073 C 
ATOM      3  C   UNL     1     -29.009  43.693   1.763  0.00  0.00    +0.175 C 
ATOM      4  N   UNL     1     -28.460  42.397   2.087  0.00  0.00    -0.543 N 
ATOM      5  C   UNL     1     -28.046  41.533   1.238  0.00  0.00    +0.504 C 
ATOM      6  C   UNL     1     -29.026  41.975   3.352  0.00  0.00    +0.120 C 
ATOM      7  C   UNL     1     -30.248  42.583   4.060  0.00  0.00    -0.078 C 
ENDROOT
BRANCH   1  12
ATOM      8  C   UNL     1     -34.654  44.667   6.560  0.00  0.00    -0.128 C 
ATOM      9  C   UNL     1     -33.370  45.202   6.182  0.00  0.00    +0.073 C 
ATOM     10  C   UNL     1     -32.812  44.966   5.148  0.00  0.00    -0.094 C 
ATOM     11  C   UNL     1     -33.213  44.058   4.060  0.00  0.00    +0.398 C 
ATOM     12  N   UNL     1     -32.332  43.541   3.252  0.00  0.00    -0.455 NA
ATOM     13  N   UNL     1     -34.524  43.709   4.066  0.00  0.00    -0.411 NA
ATOM     14  C   UNL     1     -35.048  44.052   5.456  0.00  0.00    +0.162 C 
BRANCH   8  15
ATOM     15  C   UNL     1     -35.081  44.374   7.965  0.00  0.00    +0.521 C 
ATOM     16  O   UNL     1     -35.779  43.407   8.257  0.00  0.00    -0.526 OA
BRANCH  15  17
ATOM     17  N   UNL     1     -34.645  45.276   8.853  0.00  0.00    -0.592 NA
ATOM     18  H   UNL     1     -34.068  45.929   8.310  0.00  0.00    +0.291 HD
ENDBRANCH  15  17
ENDBRANCH   8  15
ENDBRANCH   1  12
BRANCH   5  19
ATOM     19  O   UNL     1     -28.168  41.758  -0.081  0.00  0.00    -0.556 OA
ATOM     20  H   UNL     1     -27.954  41.027  -0.702  0.00  0.00    +0.316 HD
ENDBRANCH   5  19
BRANCH   5  21
ATOM     21  C   UNL     1     -27.416  40.235   1.692  0.00  0.00    +0.376 C 
BRANCH  21  22
ATOM     22  S   UNL     1     -28.586  38.863   1.493  0.00  0.00    -1.327 S 
BRANCH  22  23
ATOM     23  C   UNL     1     -28.361  38.024   3.099  0.00  0.00    +0.422 C 
ATOM     24  C   UNL     1     -27.905  36.550   2.975  0.00  0.00    +0.069 C 
ATOM     25  C   UNL     1     -28.964  36.204   4.045  0.00  0.00    +0.034 C 
ATOM     26  C   UNL     1     -29.722  37.469   3.602  0.00  0.00    +0.123 C 
ENDBRANCH  22  23
ENDBRANCH  21  22
ENDBRANCH   5  21
TORSDOF 7
ENDMDL
