MODEL 1
REMARK VINA RESULT:    -8.334      0.000      0.000
REMARK INTER + INTRA:         -12.311
REMARK INTER:                 -11.257
REMARK INTRA:                  -1.055
REMARK UNBOUND:                -1.055
REMARK  Name = 
REMARK  7 active torsions:
REMARK  status: ('A' for Active; 'I' for Inactive)
REMARK    1  A    between atoms: N_3  and  C_4
REMARK    2  A    between atoms: C_7  and  C_8
REMARK    3  A    between atoms: C_8  and  N_9
REMARK    4  A    between atoms: C_12  and  C_13
REMARK    5  A    between atoms: C_13  and  O_14
REMARK    6  A    between atoms: N_15  and  C_16
REMARK    7  A    between atoms: C_16  and  C_17
REMARK                            x       y       z     vdW  Elec       q    Type
REMARK                         _______ _______ _______ _____ _____    ______ ____
ROOT
ATOM      1  C   UNL     1     -18.425  42.248 -12.772  0.00  0.00    +0.437 A 
ATOM      2  N   UNL     1     -17.576  42.924 -13.567  0.00  0.00    -0.647 N 
ATOM      3  C   UNL     1     -16.339  43.280 -13.205  0.00  0.00    +0.293 A 
ATOM      4  C   UNL     1     -15.864  42.914 -11.957  0.00  0.00    -0.106 A 
ATOM      5  C   UNL     1     -16.681  42.184 -11.096  0.00  0.00    +0.142 A 
ATOM      6  C   UNL     1     -17.975  41.853 -11.496  0.00  0.00    -0.133 A 
ATOM      7  H   UNL     1     -17.914  43.170 -14.493  0.00  0.00    +0.311 HD
ENDROOT
BRANCH   1  10
ATOM      8  N   UNL     1     -19.763  42.802 -15.672  0.00  0.00    -0.178 NA
ATOM      9  N   UNL     1     -19.712  42.455 -14.587  0.00  0.00    +0.019 NA
ATOM     10  N   UNL     1     -19.646  42.021 -13.419  0.00  0.00    -0.295 NA
ENDBRANCH   1  10
BRANCH   4  11
ATOM     11  C   UNL     1     -14.536  43.346 -11.505  0.00  0.00    +0.542 C 
ATOM     12  O   UNL     1     -14.091  44.371 -12.005  0.00  0.00    -0.491 OA
BRANCH  11  13
ATOM     13  N   UNL     1     -13.920  42.562 -10.637  0.00  0.00    -0.569 NA
ATOM     14  H   UNL     1     -13.462  41.759 -11.073  0.00  0.00    +0.281 HD
ENDBRANCH  11  13
ENDBRANCH   4  11
BRANCH   6  15
ATOM     15  C   UNL     1     -18.820  41.045 -10.604  0.00  0.00    +0.450 C 
ATOM     16  N   UNL     1     -18.725  41.139  -9.329  0.00  0.00    -0.387 NA
BRANCH  15  17
ATOM     17  O   UNL     1     -19.649  40.172 -11.202  0.00  0.00    -0.606 OA
ATOM     18  H   UNL     1     -19.341  39.791 -12.042  0.00  0.00    +0.310 HD
ENDBRANCH  15  17
BRANCH  16  19
ATOM     19  C   UNL     1     -19.556  40.213  -8.549  0.00  0.00    +0.260 C 
BRANCH  19  20
ATOM     20  C   UNL     1     -20.579  40.965  -7.728  0.00  0.00    +0.072 A 
ATOM     21  C   UNL     1     -21.948  40.743  -7.930  0.00  0.00    +0.063 A 
ATOM     22  C   UNL     1     -22.898  41.407  -7.151  0.00  0.00    +0.067 A 
ATOM     23  C   UNL     1     -22.490  42.299  -6.161  0.00  0.00    +0.055 A 
ATOM     24  C   UNL     1     -21.131  42.533  -5.954  0.00  0.00    +0.070 A 
ATOM     25  C   UNL     1     -20.180  41.870  -6.733  0.00  0.00    +0.039 A 
ENDBRANCH  19  20
ENDBRANCH  16  19
ENDBRANCH   6  15
TORSDOF 7
ENDMDL
MODEL 2
REMARK VINA RESULT:    -7.899      1.956      2.588
REMARK INTER + INTRA:         -11.725
REMARK INTER:                 -11.093
REMARK INTRA:                  -0.631
REMARK UNBOUND:                -1.055
REMARK  Name = 
REMARK  7 active torsions:
REMARK  status: ('A' for Active; 'I' for Inactive)
REMARK    1  A    between atoms: N_3  and  C_4
REMARK    2  A    between atoms: C_7  and  C_8
REMARK    3  A    between atoms: C_8  and  N_9
REMARK    4  A    between atoms: C_12  and  C_13
REMARK    5  A    between atoms: C_13  and  O_14
REMARK    6  A    between atoms: N_15  and  C_16
REMARK    7  A    between atoms: C_16  and  C_17
REMARK                            x       y       z     vdW  Elec       q    Type
REMARK                         _______ _______ _______ _____ _____    ______ ____
ROOT
ATOM      1  C   UNL     1     -17.387  41.698 -12.562  0.00  0.00    +0.437 A 
ATOM      2  N   UNL     1     -16.912  42.587 -13.453  0.00  0.00    -0.647 N 
ATOM      3  C   UNL     1     -16.891  43.909 -13.250  0.00  0.00    +0.293 A 
ATOM      4  C   UNL     1     -17.345  44.418 -12.046  0.00  0.00    -0.106 A 
ATOM      5  C   UNL     1     -17.821  43.549 -11.065  0.00  0.00    +0.142 A 
ATOM      6  C   UNL     1     -17.853  42.179 -11.322  0.00  0.00    -0.133 A 
ATOM      7  H   UNL     1     -16.554  42.211 -14.327  0.00  0.00    +0.311 HD
ENDROOT
BRANCH   1  10
ATOM      8  N   UNL     1     -19.333  39.169 -13.127  0.00  0.00    -0.178 NA
ATOM      9  N   UNL     1     -18.352  39.746 -13.064  0.00  0.00    +0.019 NA
ATOM     10  N   UNL     1     -17.284  40.390 -13.052  0.00  0.00    -0.295 NA
ENDBRANCH   1  10
BRANCH   4  11
ATOM     11  C   UNL     1     -17.396  45.867 -11.818  0.00  0.00    +0.542 C 
ATOM     12  O   UNL     1     -16.374  46.394 -11.398  0.00  0.00    -0.491 OA
BRANCH  11  13
ATOM     13  N   UNL     1     -18.556  46.463 -12.039  0.00  0.00    -0.569 NA
ATOM     14  H   UNL     1     -19.067  46.681 -11.182  0.00  0.00    +0.281 HD
ENDBRANCH  11  13
ENDBRANCH   4  11
BRANCH   6  15
ATOM     15  C   UNL     1     -18.314  41.261 -10.270  0.00  0.00    +0.450 C 
ATOM     16  N   UNL     1     -19.560  41.015 -10.097  0.00  0.00    -0.387 NA
BRANCH  15  17
ATOM     17  O   UNL     1     -17.361  40.745  -9.474  0.00  0.00    -0.606 OA
ATOM     18  H   UNL     1     -17.466  39.811  -9.224  0.00  0.00    +0.310 HD
ENDBRANCH  15  17
BRANCH  16  19
ATOM     19  C   UNL     1     -19.898  40.155  -8.956  0.00  0.00    +0.260 C 
BRANCH  19  20
ATOM     20  C   UNL     1     -20.638  40.933  -7.892  0.00  0.00    +0.072 A 
ATOM     21  C   UNL     1     -19.929  41.690  -6.949  0.00  0.00    +0.063 A 
ATOM     22  C   UNL     1     -20.606  42.440  -5.985  0.00  0.00    +0.067 A 
ATOM     23  C   UNL     1     -22.000  42.441  -5.954  0.00  0.00    +0.055 A 
ATOM     24  C   UNL     1     -22.716  41.688  -6.883  0.00  0.00    +0.070 A 
ATOM     25  C   UNL     1     -22.039  40.937  -7.847  0.00  0.00    +0.039 A 
ENDBRANCH  19  20
ENDBRANCH  16  19
ENDBRANCH   6  15
TORSDOF 7
ENDMDL
MODEL 3
REMARK VINA RESULT:    -7.866      2.156      4.127
REMARK INTER + INTRA:         -11.680
REMARK INTER:                 -10.444
REMARK INTRA:                  -1.236
REMARK UNBOUND:                -1.055
REMARK  Name = 
REMARK  7 active torsions:
REMARK  status: ('A' for Active; 'I' for Inactive)
REMARK    1  A    between atoms: N_3  and  C_4
REMARK    2  A    between atoms: C_7  and  C_8
REMARK    3  A    between atoms: C_8  and  N_9
REMARK    4  A    between atoms: C_12  and  C_13
REMARK    5  A    between atoms: C_13  and  O_14
REMARK    6  A    between atoms: N_15  and  C_16
REMARK    7  A    between atoms: C_16  and  C_17
REMARK                            x       y       z     vdW  Elec       q    Type
REMARK                         _______ _______ _______ _____ _____    ______ ____
ROOT
ATOM      1  C   UNL     1     -17.780  43.658 -12.524  0.00  0.00    +0.437 A 
ATOM      2  N   UNL     1     -17.895  44.526 -13.545  0.00  0.00    -0.647 N 
ATOM      3  C   UNL     1     -18.727  44.355 -14.578  0.00  0.00    +0.293 A 
ATOM      4  C   UNL     1     -19.556  43.247 -14.607  0.00  0.00    -0.106 A 
ATOM      5  C   UNL     1     -19.511  42.325 -13.563  0.00  0.00    +0.142 A 
ATOM      6  C   UNL     1     -18.612  42.520 -12.515  0.00  0.00    -0.133 A 
ATOM      7  H   UNL     1     -17.306  45.353 -13.511  0.00  0.00    +0.311 HD
ENDROOT
BRANCH   1  10
ATOM      8  N   UNL     1     -14.735  42.953 -11.663  0.00  0.00    -0.178 NA
ATOM      9  N   UNL     1     -15.746  43.479 -11.616  0.00  0.00    +0.019 NA
ATOM     10  N   UNL     1     -16.829  44.099 -11.595  0.00  0.00    -0.295 NA
ENDBRANCH   1  10
BRANCH   4  11
ATOM     11  C   UNL     1     -20.433  42.998 -15.758  0.00  0.00    +0.542 C 
ATOM     12  O   UNL     1     -19.950  42.370 -16.691  0.00  0.00    -0.491 OA
BRANCH  11  13
ATOM     13  N   UNL     1     -21.648  43.517 -15.702  0.00  0.00    -0.569 NA
ATOM     14  H   UNL     1     -22.371  42.889 -16.058  0.00  0.00    +0.281 HD
ENDBRANCH  11  13
ENDBRANCH   4  11
BRANCH   6  15
ATOM     15  C   UNL     1     -18.596  41.570 -11.393  0.00  0.00    +0.450 C 
ATOM     16  N   UNL     1     -19.672  41.011 -10.977  0.00  0.00    -0.387 NA
BRANCH  15  17
ATOM     17  O   UNL     1     -17.404  41.369 -10.803  0.00  0.00    -0.606 OA
ATOM     18  H   UNL     1     -16.680  41.075 -11.382  0.00  0.00    +0.310 HD
ENDBRANCH  15  17
BRANCH  16  19
ATOM     19  C   UNL     1     -19.538  40.153  -9.793  0.00  0.00    +0.260 C 
BRANCH  19  20
ATOM     20  C   UNL     1     -20.164  40.804  -8.579  0.00  0.00    +0.072 A 
ATOM     21  C   UNL     1     -19.383  41.582  -7.714  0.00  0.00    +0.063 A 
ATOM     22  C   UNL     1     -19.960  42.216  -6.612  0.00  0.00    +0.067 A 
ATOM     23  C   UNL     1     -21.325  42.078  -6.363  0.00  0.00    +0.055 A 
ATOM     24  C   UNL     1     -22.111  41.302  -7.213  0.00  0.00    +0.070 A 
ATOM     25  C   UNL     1     -21.534  40.667  -8.315  0.00  0.00    +0.039 A 
ENDBRANCH  19  20
ENDBRANCH  16  19
ENDBRANCH   6  15
TORSDOF 7
ENDMDL
MODEL 4
REMARK VINA RESULT:    -7.514      2.586      6.620
REMARK INTER + INTRA:         -11.205
REMARK INTER:                 -10.249
REMARK INTRA:                  -0.956
REMARK UNBOUND:                -1.055
REMARK  Name = 
REMARK  7 active torsions:
REMARK  status: ('A' for Active; 'I' for Inactive)
REMARK    1  A    between atoms: N_3  and  C_4
REMARK    2  A    between atoms: C_7  and  C_8
REMARK    3  A    between atoms: C_8  and  N_9
REMARK    4  A    between atoms: C_12  and  C_13
REMARK    5  A    between atoms: C_13  and  O_14
REMARK    6  A    between atoms: N_15  and  C_16
REMARK    7  A    between atoms: C_16  and  C_17
REMARK                            x       y       z     vdW  Elec       q    Type
REMARK                         _______ _______ _______ _____ _____    ______ ____
ROOT
ATOM      1  C   UNL     1     -19.656  40.013  -9.840  0.00  0.00    +0.437 A 
ATOM      2  N   UNL     1     -20.817  39.671  -9.252  0.00  0.00    -0.647 N 
ATOM      3  C   UNL     1     -21.357  40.337  -8.226  0.00  0.00    +0.293 A 
ATOM      4  C   UNL     1     -20.724  41.469  -7.742  0.00  0.00    -0.106 A 
ATOM      5  C   UNL     1     -19.534  41.897  -8.328  0.00  0.00    +0.142 A 
ATOM      6  C   UNL     1     -18.985  41.163  -9.379  0.00  0.00    -0.133 A 
ATOM      7  H   UNL     1     -21.295  38.855  -9.625  0.00  0.00    +0.311 HD
ENDROOT
BRANCH   1  10
ATOM      8  N   UNL     1     -19.106  40.140 -13.032  0.00  0.00    -0.178 NA
ATOM      9  N   UNL     1     -19.246  39.658 -12.009  0.00  0.00    +0.019 NA
ATOM     10  N   UNL     1     -19.341  39.131 -10.882  0.00  0.00    -0.295 NA
ENDBRANCH   1  10
BRANCH   4  11
ATOM     11  C   UNL     1     -21.257  42.183  -6.576  0.00  0.00    +0.542 C 
ATOM     12  O   UNL     1     -20.763  41.908  -5.490  0.00  0.00    -0.491 OA
BRANCH  11  13
ATOM     13  N   UNL     1     -22.256  43.021  -6.797  0.00  0.00    -0.569 NA
ATOM     14  H   UNL     1     -22.397  43.690  -6.038  0.00  0.00    +0.281 HD
ENDBRANCH  11  13
ENDBRANCH   4  11
BRANCH   6  15
ATOM     15  C   UNL     1     -17.753  41.641 -10.023  0.00  0.00    +0.450 C 
ATOM     16  N   UNL     1     -17.548  42.889 -10.230  0.00  0.00    -0.387 NA
BRANCH  15  17
ATOM     17  O   UNL     1     -16.890  40.692 -10.428  0.00  0.00    -0.606 OA
ATOM     18  H   UNL     1     -16.942  40.432 -11.363  0.00  0.00    +0.310 HD
ENDBRANCH  15  17
BRANCH  16  19
ATOM     19  C   UNL     1     -16.324  43.230 -10.964  0.00  0.00    +0.260 C 
BRANCH  19  20
ATOM     20  C   UNL     1     -16.589  44.310 -11.989  0.00  0.00    +0.072 A 
ATOM     21  C   UNL     1     -17.584  45.271 -11.761  0.00  0.00    +0.063 A 
ATOM     22  C   UNL     1     -17.811  46.293 -12.685  0.00  0.00    +0.067 A 
ATOM     23  C   UNL     1     -17.046  46.364 -13.848  0.00  0.00    +0.055 A 
ATOM     24  C   UNL     1     -16.057  45.411 -14.090  0.00  0.00    +0.070 A 
ATOM     25  C   UNL     1     -15.830  44.389 -13.165  0.00  0.00    +0.039 A 
ENDBRANCH  19  20
ENDBRANCH  16  19
ENDBRANCH   6  15
TORSDOF 7
ENDMDL
MODEL 5
REMARK VINA RESULT:    -7.338      3.977      7.086
REMARK INTER + INTRA:         -10.967
REMARK INTER:                  -9.896
REMARK INTRA:                  -1.071
REMARK UNBOUND:                -1.055
REMARK  Name = 
REMARK  7 active torsions:
REMARK  status: ('A' for Active; 'I' for Inactive)
REMARK    1  A    between atoms: N_3  and  C_4
REMARK    2  A    between atoms: C_7  and  C_8
REMARK    3  A    between atoms: C_8  and  N_9
REMARK    4  A    between atoms: C_12  and  C_13
REMARK    5  A    between atoms: C_13  and  O_14
REMARK    6  A    between atoms: N_15  and  C_16
REMARK    7  A    between atoms: C_16  and  C_17
REMARK                            x       y       z     vdW  Elec       q    Type
REMARK                         _______ _______ _______ _____ _____    ______ ____
ROOT
ATOM      1  C   UNL     1     -17.955  43.591 -12.086  0.00  0.00    +0.437 A 
ATOM      2  N   UNL     1     -17.726  43.109 -10.850  0.00  0.00    -0.647 N 
ATOM      3  C   UNL     1     -18.177  41.928 -10.416  0.00  0.00    +0.293 A 
ATOM      4  C   UNL     1     -18.893  41.116 -11.277  0.00  0.00    -0.106 A 
ATOM      5  C   UNL     1     -19.138  41.540 -12.581  0.00  0.00    +0.142 A 
ATOM      6  C   UNL     1     -18.676  42.790 -12.993  0.00  0.00    -0.133 A 
ATOM      7  H   UNL     1     -17.177  43.694 -10.227  0.00  0.00    +0.311 HD
ENDROOT
BRANCH   1  10
ATOM      8  N   UNL     1     -18.850  46.706 -12.027  0.00  0.00    -0.178 NA
ATOM      9  N   UNL     1     -18.150  45.816 -12.160  0.00  0.00    +0.019 NA
ATOM     10  N   UNL     1     -17.365  44.850 -12.252  0.00  0.00    -0.295 NA
ENDBRANCH   1  10
BRANCH   4  11
ATOM     11  C   UNL     1     -19.457  39.843 -10.810  0.00  0.00    +0.542 C 
ATOM     12  O   UNL     1     -19.949  39.838  -9.689  0.00  0.00    -0.491 OA
BRANCH  11  13
ATOM     13  N   UNL     1     -19.337  38.807 -11.622  0.00  0.00    -0.569 NA
ATOM     14  H   UNL     1     -20.218  38.536 -12.063  0.00  0.00    +0.281 HD
ENDBRANCH  11  13
ENDBRANCH   4  11
BRANCH   6  15
ATOM     15  C   UNL     1     -18.898  43.217 -14.383  0.00  0.00    +0.450 C 
ATOM     16  N   UNL     1     -19.784  42.656 -15.120  0.00  0.00    -0.387 NA
BRANCH  15  17
ATOM     17  O   UNL     1     -18.083  44.183 -14.843  0.00  0.00    -0.606 OA
ATOM     18  H   UNL     1     -18.513  44.934 -15.287  0.00  0.00    +0.310 HD
ENDBRANCH  15  17
BRANCH  16  19
ATOM     19  C   UNL     1     -19.845  43.109 -16.515  0.00  0.00    +0.260 C 
BRANCH  19  20
ATOM     20  C   UNL     1     -20.999  44.063 -16.725  0.00  0.00    +0.072 A 
ATOM     21  C   UNL     1     -20.764  45.364 -17.190  0.00  0.00    +0.063 A 
ATOM     22  C   UNL     1     -21.828  46.239 -17.422  0.00  0.00    +0.067 A 
ATOM     23  C   UNL     1     -23.137  45.822 -17.191  0.00  0.00    +0.055 A 
ATOM     24  C   UNL     1     -23.384  44.532 -16.723  0.00  0.00    +0.070 A 
ATOM     25  C   UNL     1     -22.321  43.657 -16.491  0.00  0.00    +0.039 A 
ENDBRANCH  19  20
ENDBRANCH  16  19
ENDBRANCH   6  15
TORSDOF 7
ENDMDL
