MODEL 1
REMARK VINA RESULT:    -6.495      0.000      0.000
REMARK INTER + INTRA:          -9.502
REMARK INTER:                  -8.393
REMARK INTRA:                  -1.109
REMARK UNBOUND:                -1.109
REMARK  Name = 
REMARK  5 active torsions:
REMARK  status: ('A' for Active; 'I' for Inactive)
REMARK    1  A    between atoms: C_5  and  C_6
REMARK    2  A    between atoms: N_8  and  C_9
REMARK    3  A    between atoms: C_9  and  C_10
REMARK    4  A    between atoms: C_18  and  N_20
REMARK    5  A    between atoms: N_20  and  C_21
REMARK                            x       y       z     vdW  Elec       q    Type
REMARK                         _______ _______ _______ _____ _____    ______ ____
ROOT
ATOM      1  N   UNL     1     -28.204  41.911   0.022  0.00  0.00    -0.636 NA
ATOM      2  C   UNL     1     -28.643  41.098   0.924  0.00  0.00    +0.466 C 
ATOM      3  C   UNL     1     -27.837  39.896   1.389  0.00  0.00    +0.010 C 
ATOM      4  C   UNL     1     -28.659  38.610   1.326  0.00  0.00    +0.082 C 
ATOM      5  C   UNL     1     -30.012  38.792   2.038  0.00  0.00    -0.054 C 
ATOM      6  C   UNL     1     -30.711  39.995   1.418  0.00  0.00    +0.216 C 
ATOM      7  N   UNL     1     -29.908  41.203   1.512  0.00  0.00    -0.530 N 
ATOM      8  C   UNL     1     -30.446  42.308   2.216  0.00  0.00    +0.634 C 
ATOM      9  O   UNL     1     -31.515  42.185   2.822  0.00  0.00    -0.577 OA
ATOM     10  H   UNL     1     -27.254  41.663  -0.247  0.00  0.00    +0.256 HD
ENDROOT
BRANCH   5  11
ATOM     11  C   UNL     1     -29.820  38.888   3.551  0.00  0.00    +0.498 C 
ATOM     12  O   UNL     1     -28.823  38.409   4.094  0.00  0.00    -0.550 OA
ATOM     13  N   UNL     1     -30.867  39.424   4.263  0.00  0.00    -0.636 N 
ATOM     14  H   UNL     1     -31.527  40.037   3.787  0.00  0.00    +0.298 HD
BRANCH  13  15
ATOM     15  C   UNL     1     -30.731  39.706   5.668  0.00  0.00    +0.239 C 
BRANCH  15  16
ATOM     16  C   UNL     1     -32.049  40.132   6.256  0.00  0.00    +0.048 A 
ATOM     17  C   UNL     1     -32.762  39.256   7.086  0.00  0.00    +0.019 A 
ATOM     18  C   UNL     1     -33.976  39.643   7.646  0.00  0.00    -0.005 A 
ATOM     19  C   UNL     1     -34.493  40.909   7.374  0.00  0.00    -0.022 A 
ATOM     20  C   UNL     1     -33.808  41.777   6.525  0.00  0.00    -0.007 A 
ATOM     21  C   UNL     1     -32.595  41.386   5.957  0.00  0.00    -0.020 A 
ENDBRANCH  15  16
ENDBRANCH  13  15
ENDBRANCH   5  11
BRANCH   8  22
ATOM     22  N   UNL     1     -29.662  43.388   2.233  0.00  0.00    -0.430 NA
BRANCH  22  23
ATOM     23  C   UNL     1     -30.351  44.683   2.174  0.00  0.00    +0.207 C 
ATOM     24  C   UNL     1     -29.590  45.643   1.234  0.00  0.00    +0.040 C 
ATOM     25  C   UNL     1     -28.311  46.088   1.943  0.00  0.00    +0.424 C 
ATOM     26  S   UNL     1     -28.739  46.192   3.677  0.00  0.00    -0.956 S 
ATOM     27  O   UNL     1     -27.824  45.376   4.457  0.00  0.00    -0.195 OA
ATOM     28  O   UNL     1     -28.936  47.588   4.013  0.00  0.00    -0.218 OA
ATOM     29  C   UNL     1     -30.346  45.402   3.531  0.00  0.00    +0.397 C 
ENDBRANCH  22  23
ENDBRANCH   8  22
TORSDOF 5
ENDMDL
MODEL 2
REMARK VINA RESULT:    -6.313      1.410      1.622
REMARK INTER + INTRA:          -9.268
REMARK INTER:                  -7.745
REMARK INTRA:                  -1.522
REMARK UNBOUND:                -1.109
REMARK  Name = 
REMARK  5 active torsions:
REMARK  status: ('A' for Active; 'I' for Inactive)
REMARK    1  A    between atoms: C_5  and  C_6
REMARK    2  A    between atoms: N_8  and  C_9
REMARK    3  A    between atoms: C_9  and  C_10
REMARK    4  A    between atoms: C_18  and  N_20
REMARK    5  A    between atoms: N_20  and  C_21
REMARK                            x       y       z     vdW  Elec       q    Type
REMARK                         _______ _______ _______ _____ _____    ______ ____
ROOT
ATOM      1  N   UNL     1     -28.233  41.762  -0.008  0.00  0.00    -0.636 NA
ATOM      2  C   UNL     1     -28.669  40.959   0.906  0.00  0.00    +0.466 C 
ATOM      3  C   UNL     1     -27.867  39.757   1.374  0.00  0.00    +0.010 C 
ATOM      4  C   UNL     1     -28.698  38.476   1.330  0.00  0.00    +0.082 C 
ATOM      5  C   UNL     1     -30.043  38.673   2.054  0.00  0.00    -0.054 C 
ATOM      6  C   UNL     1     -30.740  39.875   1.430  0.00  0.00    +0.216 C 
ATOM      7  N   UNL     1     -29.928  41.079   1.505  0.00  0.00    -0.530 N 
ATOM      8  C   UNL     1     -30.451  42.194   2.205  0.00  0.00    +0.634 C 
ATOM      9  O   UNL     1     -31.515  42.084   2.822  0.00  0.00    -0.577 OA
ATOM     10  H   UNL     1     -27.288  41.504  -0.284  0.00  0.00    +0.256 HD
ENDROOT
BRANCH   5  11
ATOM     11  C   UNL     1     -29.835  38.782   3.564  0.00  0.00    +0.498 C 
ATOM     12  O   UNL     1     -28.841  38.291   4.103  0.00  0.00    -0.550 OA
ATOM     13  N   UNL     1     -30.867  39.343   4.280  0.00  0.00    -0.636 N 
ATOM     14  H   UNL     1     -31.520  39.962   3.804  0.00  0.00    +0.298 HD
BRANCH  13  15
ATOM     15  C   UNL     1     -30.712  39.636   5.681  0.00  0.00    +0.239 C 
BRANCH  15  16
ATOM     16  C   UNL     1     -32.025  40.059   6.283  0.00  0.00    +0.048 A 
ATOM     17  C   UNL     1     -32.732  39.178   7.113  0.00  0.00    +0.019 A 
ATOM     18  C   UNL     1     -33.941  39.563   7.686  0.00  0.00    -0.005 A 
ATOM     19  C   UNL     1     -34.458  40.832   7.429  0.00  0.00    -0.022 A 
ATOM     20  C   UNL     1     -33.778  41.706   6.580  0.00  0.00    -0.007 A 
ATOM     21  C   UNL     1     -32.571  41.317   6.000  0.00  0.00    -0.020 A 
ENDBRANCH  15  16
ENDBRANCH  13  15
ENDBRANCH   5  11
BRANCH   8  22
ATOM     22  N   UNL     1     -29.659  43.268   2.204  0.00  0.00    -0.430 NA
BRANCH  22  23
ATOM     23  C   UNL     1     -29.159  43.698   3.516  0.00  0.00    +0.207 C 
ATOM     24  C   UNL     1     -28.821  45.205   3.484  0.00  0.00    +0.040 C 
ATOM     25  C   UNL     1     -27.539  45.386   2.672  0.00  0.00    +0.424 C 
ATOM     26  S   UNL     1     -26.546  43.939   3.017  0.00  0.00    -0.956 S 
ATOM     27  O   UNL     1     -26.183  43.286   1.771  0.00  0.00    -0.195 OA
ATOM     28  O   UNL     1     -25.520  44.310   3.971  0.00  0.00    -0.218 OA
ATOM     29  C   UNL     1     -27.829  43.021   3.877  0.00  0.00    +0.397 C 
ENDBRANCH  22  23
ENDBRANCH   8  22
TORSDOF 5
ENDMDL
MODEL 3
REMARK VINA RESULT:    -6.131     21.665     24.291
REMARK INTER + INTRA:          -9.032
REMARK INTER:                  -7.862
REMARK INTRA:                  -1.171
REMARK UNBOUND:                -1.109
REMARK  Name = 
REMARK  5 active torsions:
REMARK  status: ('A' for Active; 'I' for Inactive)
REMARK    1  A    between atoms: C_5  and  C_6
REMARK    2  A    between atoms: N_8  and  C_9
REMARK    3  A    between atoms: C_9  and  C_10
REMARK    4  A    between atoms: C_18  and  N_20
REMARK    5  A    between atoms: N_20  and  C_21
REMARK                            x       y       z     vdW  Elec       q    Type
REMARK                         _______ _______ _______ _____ _____    ______ ____
ROOT
ATOM      1  N   UNL     1     -18.841  46.316 -20.021  0.00  0.00    -0.636 NA
ATOM      2  C   UNL     1     -19.296  45.571 -19.069  0.00  0.00    +0.466 C 
ATOM      3  C   UNL     1     -20.069  44.292 -19.345  0.00  0.00    +0.010 C 
ATOM      4  C   UNL     1     -21.394  44.261 -18.584  0.00  0.00    +0.082 C 
ATOM      5  C   UNL     1     -21.173  44.570 -17.092  0.00  0.00    -0.054 C 
ATOM      6  C   UNL     1     -20.442  45.903 -16.992  0.00  0.00    +0.216 C 
ATOM      7  N   UNL     1     -19.179  45.890 -17.712  0.00  0.00    -0.530 N 
ATOM      8  C   UNL     1     -17.991  46.135 -16.980  0.00  0.00    +0.634 C 
ATOM      9  O   UNL     1     -18.040  46.238 -15.751  0.00  0.00    -0.577 OA
ATOM     10  H   UNL     1     -19.015  45.883 -20.925  0.00  0.00    +0.256 HD
ENDROOT
BRANCH   5  11
ATOM     11  C   UNL     1     -20.461  43.410 -16.397  0.00  0.00    +0.498 C 
ATOM     12  O   UNL     1     -20.385  42.303 -16.933  0.00  0.00    -0.550 OA
ATOM     13  N   UNL     1     -20.030  43.644 -15.113  0.00  0.00    -0.636 N 
ATOM     14  H   UNL     1     -19.865  44.603 -14.814  0.00  0.00    +0.298 HD
BRANCH  13  15
ATOM     15  C   UNL     1     -19.213  42.678 -14.426  0.00  0.00    +0.239 C 
BRANCH  15  16
ATOM     16  C   UNL     1     -18.275  43.360 -13.467  0.00  0.00    +0.048 A 
ATOM     17  C   UNL     1     -17.058  42.753 -13.126  0.00  0.00    +0.019 A 
ATOM     18  C   UNL     1     -16.177  43.381 -12.249  0.00  0.00    -0.005 A 
ATOM     19  C   UNL     1     -16.507  44.619 -11.701  0.00  0.00    -0.022 A 
ATOM     20  C   UNL     1     -17.729  45.218 -12.010  0.00  0.00    -0.007 A 
ATOM     21  C   UNL     1     -18.615  44.585 -12.881  0.00  0.00    -0.020 A 
ENDBRANCH  15  16
ENDBRANCH  13  15
ENDBRANCH   5  11
BRANCH   8  22
ATOM     22  N   UNL     1     -16.878  46.135 -17.717  0.00  0.00    -0.430 NA
BRANCH  22  23
ATOM     23  C   UNL     1     -15.962  47.261 -17.496  0.00  0.00    +0.207 C 
ATOM     24  C   UNL     1     -16.129  48.306 -18.621  0.00  0.00    +0.040 C 
ATOM     25  C   UNL     1     -15.504  47.738 -19.894  0.00  0.00    +0.424 C 
ATOM     26  S   UNL     1     -14.097  46.778 -19.347  0.00  0.00    -0.956 S 
ATOM     27  O   UNL     1     -14.201  45.422 -19.861  0.00  0.00    -0.195 OA
ATOM     28  O   UNL     1     -12.897  47.556 -19.581  0.00  0.00    -0.218 OA
ATOM     29  C   UNL     1     -14.490  46.836 -17.595  0.00  0.00    +0.397 C 
ENDBRANCH  22  23
ENDBRANCH   8  22
TORSDOF 5
ENDMDL
MODEL 4
REMARK VINA RESULT:    -5.968      2.968      5.939
REMARK INTER + INTRA:          -8.822
REMARK INTER:                  -7.974
REMARK INTRA:                  -0.848
REMARK UNBOUND:                -1.109
REMARK  Name = 
REMARK  5 active torsions:
REMARK  status: ('A' for Active; 'I' for Inactive)
REMARK    1  A    between atoms: C_5  and  C_6
REMARK    2  A    between atoms: N_8  and  C_9
REMARK    3  A    between atoms: C_9  and  C_10
REMARK    4  A    between atoms: C_18  and  N_20
REMARK    5  A    between atoms: N_20  and  C_21
REMARK                            x       y       z     vdW  Elec       q    Type
REMARK                         _______ _______ _______ _____ _____    ______ ____
ROOT
ATOM      1  N   UNL     1     -30.206  47.212   4.079  0.00  0.00    -0.636 NA
ATOM      2  C   UNL     1     -29.523  46.487   3.255  0.00  0.00    +0.466 C 
ATOM      3  C   UNL     1     -28.097  46.836   2.864  0.00  0.00    +0.010 C 
ATOM      4  C   UNL     1     -27.921  46.862   1.347  0.00  0.00    +0.082 C 
ATOM      5  C   UNL     1     -28.464  45.569   0.712  0.00  0.00    -0.054 C 
ATOM      6  C   UNL     1     -29.912  45.400   1.156  0.00  0.00    +0.216 C 
ATOM      7  N   UNL     1     -30.039  45.361   2.604  0.00  0.00    -0.530 N 
ATOM      8  C   UNL     1     -30.599  44.201   3.193  0.00  0.00    +0.634 C 
ATOM      9  O   UNL     1     -30.856  43.220   2.489  0.00  0.00    -0.577 OA
ATOM     10  H   UNL     1     -29.629  47.963   4.451  0.00  0.00    +0.256 HD
ENDROOT
BRANCH   5  11
ATOM     11  C   UNL     1     -27.563  44.381   1.045  0.00  0.00    +0.498 C 
ATOM     12  O   UNL     1     -26.414  44.554   1.456  0.00  0.00    -0.550 OA
ATOM     13  N   UNL     1     -28.064  43.136   0.746  0.00  0.00    -0.636 N 
ATOM     14  H   UNL     1     -29.072  43.013   0.672  0.00  0.00    +0.298 HD
BRANCH  13  15
ATOM     15  C   UNL     1     -27.368  41.946   1.160  0.00  0.00    +0.239 C 
BRANCH  15  16
ATOM     16  C   UNL     1     -28.320  40.787   1.280  0.00  0.00    +0.048 A 
ATOM     17  C   UNL     1     -27.829  39.501   1.547  0.00  0.00    +0.019 A 
ATOM     18  C   UNL     1     -28.701  38.424   1.672  0.00  0.00    -0.005 A 
ATOM     19  C   UNL     1     -30.074  38.620   1.525  0.00  0.00    -0.022 A 
ATOM     20  C   UNL     1     -30.571  39.890   1.229  0.00  0.00    -0.007 A 
ATOM     21  C   UNL     1     -29.696  40.968   1.095  0.00  0.00    -0.020 A 
ENDBRANCH  15  16
ENDBRANCH  13  15
ENDBRANCH   5  11
BRANCH   8  22
ATOM     22  N   UNL     1     -30.709  44.255   4.522  0.00  0.00    -0.430 NA
BRANCH  22  23
ATOM     23  C   UNL     1     -31.898  43.611   5.095  0.00  0.00    +0.207 C 
ATOM     24  C   UNL     1     -33.162  44.421   4.735  0.00  0.00    +0.040 C 
ATOM     25  C   UNL     1     -33.160  45.700   5.571  0.00  0.00    +0.424 C 
ATOM     26  S   UNL     1     -32.433  45.244   7.140  0.00  0.00    -0.956 S 
ATOM     27  O   UNL     1     -31.307  46.117   7.429  0.00  0.00    -0.195 OA
ATOM     28  O   UNL     1     -33.500  45.088   8.108  0.00  0.00    -0.218 OA
ATOM     29  C   UNL     1     -31.873  43.615   6.631  0.00  0.00    +0.397 C 
ENDBRANCH  22  23
ENDBRANCH   8  22
TORSDOF 5
ENDMDL
MODEL 5
REMARK VINA RESULT:    -5.965     20.783     23.817
REMARK INTER + INTRA:          -8.818
REMARK INTER:                  -7.418
REMARK INTRA:                  -1.400
REMARK UNBOUND:                -1.109
REMARK  Name = 
REMARK  5 active torsions:
REMARK  status: ('A' for Active; 'I' for Inactive)
REMARK    1  A    between atoms: C_5  and  C_6
REMARK    2  A    between atoms: N_8  and  C_9
REMARK    3  A    between atoms: C_9  and  C_10
REMARK    4  A    between atoms: C_18  and  N_20
REMARK    5  A    between atoms: N_20  and  C_21
REMARK                            x       y       z     vdW  Elec       q    Type
REMARK                         _______ _______ _______ _____ _____    ______ ____
ROOT
ATOM      1  N   UNL     1     -15.106  46.634 -14.638  0.00  0.00    -0.636 NA
ATOM      2  C   UNL     1     -15.722  46.628 -15.774  0.00  0.00    +0.466 C 
ATOM      3  C   UNL     1     -14.987  46.432 -17.089  0.00  0.00    +0.010 C 
ATOM      4  C   UNL     1     -15.334  47.527 -18.096  0.00  0.00    +0.082 C 
ATOM      5  C   UNL     1     -16.860  47.683 -18.228  0.00  0.00    -0.054 C 
ATOM      6  C   UNL     1     -17.430  47.929 -16.836  0.00  0.00    +0.216 C 
ATOM      7  N   UNL     1     -17.094  46.859 -15.911  0.00  0.00    -0.530 N 
ATOM      8  C   UNL     1     -18.158  46.143 -15.307  0.00  0.00    +0.634 C 
ATOM      9  O   UNL     1     -19.320  46.361 -15.660  0.00  0.00    -0.577 OA
ATOM     10  H   UNL     1     -14.119  46.421 -14.769  0.00  0.00    +0.256 HD
ENDROOT
BRANCH   5  11
ATOM     11  C   UNL     1     -17.467  46.482 -18.951  0.00  0.00    +0.498 C 
ATOM     12  O   UNL     1     -16.772  45.754 -19.662  0.00  0.00    -0.550 OA
ATOM     13  N   UNL     1     -18.832  46.343 -18.856  0.00  0.00    -0.636 N 
ATOM     14  H   UNL     1     -19.320  46.773 -18.074  0.00  0.00    +0.298 HD
BRANCH  13  15
ATOM     15  C   UNL     1     -19.486  45.165 -19.365  0.00  0.00    +0.239 C 
BRANCH  15  16
ATOM     16  C   UNL     1     -20.445  44.607 -18.348  0.00  0.00    +0.048 A 
ATOM     17  C   UNL     1     -21.685  45.226 -18.141  0.00  0.00    +0.019 A 
ATOM     18  C   UNL     1     -22.585  44.712 -17.211  0.00  0.00    -0.005 A 
ATOM     19  C   UNL     1     -22.250  43.577 -16.474  0.00  0.00    -0.022 A 
ATOM     20  C   UNL     1     -21.005  42.971 -16.650  0.00  0.00    -0.007 A 
ATOM     21  C   UNL     1     -20.100  43.491 -17.575  0.00  0.00    -0.020 A 
ENDBRANCH  15  16
ENDBRANCH  13  15
ENDBRANCH   5  11
BRANCH   8  22
ATOM     22  N   UNL     1     -17.769  45.197 -14.450  0.00  0.00    -0.430 NA
BRANCH  22  23
ATOM     23  C   UNL     1     -18.659  44.964 -13.305  0.00  0.00    +0.207 C 
ATOM     24  C   UNL     1     -17.883  45.163 -11.985  0.00  0.00    +0.040 C 
ATOM     25  C   UNL     1     -16.944  43.972 -11.801  0.00  0.00    +0.424 C 
ATOM     26  S   UNL     1     -17.818  42.566 -12.480  0.00  0.00    -0.956 S 
ATOM     27  O   UNL     1     -16.995  41.918 -13.487  0.00  0.00    -0.195 OA
ATOM     28  O   UNL     1     -18.364  41.796 -11.380  0.00  0.00    -0.218 OA
ATOM     29  C   UNL     1     -19.146  43.509 -13.239  0.00  0.00    +0.397 C 
ENDBRANCH  22  23
ENDBRANCH   8  22
TORSDOF 5
ENDMDL
