MODEL 1
REMARK VINA RESULT:    -6.802      0.000      0.000
REMARK INTER + INTRA:          -9.816
REMARK INTER:                  -8.592
REMARK INTRA:                  -1.224
REMARK UNBOUND:                -1.224
REMARK  Name = 
REMARK  5 active torsions:
REMARK  status: ('A' for Active; 'I' for Inactive)
REMARK    1  A    between atoms: N_1  and  C_2
REMARK    2  A    between atoms: C_2  and  C_4
REMARK    3  A    between atoms: C_7  and  N_8
REMARK    4  A    between atoms: N_16  and  C_17
REMARK    5  A    between atoms: C_17  and  C_18
REMARK                            x       y       z     vdW  Elec       q    Type
REMARK                         _______ _______ _______ _____ _____    ______ ____
ROOT
ATOM      1  C   UNL     1     -19.892  44.089 -16.677  0.00  0.00    -0.078 C 
ATOM      2  C   UNL     1     -20.398  45.532 -16.671  0.00  0.00    +0.180 C 
ATOM      3  C   UNL     1     -19.232  46.456 -16.407  0.00  0.00    +0.067 C 
ATOM      4  C   UNL     1     -18.639  46.174 -15.020  0.00  0.00    +0.382 C 
ATOM      5  N   UNL     1     -18.566  44.735 -14.719  0.00  0.00    -0.687 N 
ATOM      6  C   UNL     1     -19.220  43.774 -15.370  0.00  0.00    +0.533 C 
ATOM      7  N   UNL     1     -19.324  42.533 -14.922  0.00  0.00    -0.679 N 
ATOM      8  H   UNL     1     -18.022  44.457 -13.914  0.00  0.00    +0.320 HD
ATOM      9  H   UNL     1     -19.814  41.900 -15.599  0.00  0.00    +0.346 HD
ENDROOT
BRANCH   4  10
ATOM     10  N   UNL     1     -17.340  46.788 -14.710  0.00  0.00    -0.403 NA
ATOM     11  C   UNL     1     -16.336  45.683 -14.563  0.00  0.00    +0.099 C 
ATOM     12  C   UNL     1     -15.536  44.972 -13.446  0.00  0.00    -0.034 C 
ATOM     13  C   UNL     1     -15.721  45.585 -12.050  0.00  0.00    +0.001 C 
ATOM     14  C   UNL     1     -16.628  46.824 -11.960  0.00  0.00    -0.037 C 
ATOM     15  C   UNL     1     -17.283  47.269 -13.294  0.00  0.00    +0.126 C 
ENDBRANCH   4  10
BRANCH   1  16
ATOM     16  C   UNL     1     -21.065  43.154 -16.923  0.00  0.00    +0.549 C 
ATOM     17  O   UNL     1     -22.175  43.323 -16.456  0.00  0.00    -0.525 OA
BRANCH  16  18
ATOM     18  N   UNL     1     -20.710  42.107 -17.671  0.00  0.00    -0.658 NA
ATOM     19  H   UNL     1     -19.709  41.954 -17.494  0.00  0.00    +0.313 HD
ENDBRANCH  16  18
ENDBRANCH   1  16
BRANCH   7  20
ATOM     20  C   UNL     1     -19.334  42.133 -13.556  0.00  0.00    +0.220 C 
BRANCH  20  21
ATOM     21  C   UNL     1     -19.033  41.852 -12.190  0.00  0.00    -0.061 C 
ATOM     22  C   UNL     1     -18.081  42.632 -11.533  0.00  0.00    +0.017 C 
ATOM     23  C   UNL     1     -17.640  42.277 -10.260  0.00  0.00    -0.001 C 
ATOM     24  C   UNL     1     -18.142  41.131  -9.648  0.00  0.00    +0.003 C 
ATOM     25  C   UNL     1     -19.088  40.348 -10.306  0.00  0.00    -0.002 C 
ATOM     26  C   UNL     1     -19.529  40.702 -11.581  0.00  0.00    +0.010 C 
ENDBRANCH  20  21
ENDBRANCH   7  20
TORSDOF 5
ENDMDL
MODEL 2
REMARK VINA RESULT:    -6.739      2.107      5.436
REMARK INTER + INTRA:          -9.736
REMARK INTER:                  -8.602
REMARK INTRA:                  -1.134
REMARK UNBOUND:                -1.224
REMARK  Name = 
REMARK  5 active torsions:
REMARK  status: ('A' for Active; 'I' for Inactive)
REMARK    1  A    between atoms: N_1  and  C_2
REMARK    2  A    between atoms: C_2  and  C_4
REMARK    3  A    between atoms: C_7  and  N_8
REMARK    4  A    between atoms: N_16  and  C_17
REMARK    5  A    between atoms: C_17  and  C_18
REMARK                            x       y       z     vdW  Elec       q    Type
REMARK                         _______ _______ _______ _____ _____    ______ ____
ROOT
ATOM      1  C   UNL     1     -18.358  41.739 -12.003  0.00  0.00    -0.078 C 
ATOM      2  C   UNL     1     -16.880  41.344 -11.982  0.00  0.00    +0.180 C 
ATOM      3  C   UNL     1     -16.041  42.599 -11.935  0.00  0.00    +0.067 C 
ATOM      4  C   UNL     1     -16.272  43.437 -13.200  0.00  0.00    +0.382 C 
ATOM      5  N   UNL     1     -17.687  43.470 -13.605  0.00  0.00    -0.687 N 
ATOM      6  C   UNL     1     -18.634  42.636 -13.177  0.00  0.00    +0.533 C 
ATOM      7  N   UNL     1     -19.826  42.539 -13.743  0.00  0.00    -0.679 N 
ATOM      8  H   UNL     1     -17.951  44.144 -14.309  0.00  0.00    +0.320 HD
ATOM      9  H   UNL     1     -20.462  41.882 -13.231  0.00  0.00    +0.346 HD
ENDROOT
BRANCH   4  10
ATOM     10  N   UNL     1     -15.749  44.810 -13.198  0.00  0.00    -0.403 NA
ATOM     11  C   UNL     1     -16.320  45.514 -12.003  0.00  0.00    +0.099 C 
ATOM     12  C   UNL     1     -17.369  46.604 -11.681  0.00  0.00    -0.034 C 
ATOM     13  C   UNL     1     -17.999  47.260 -12.919  0.00  0.00    +0.001 C 
ATOM     14  C   UNL     1     -17.481  46.782 -14.287  0.00  0.00    -0.037 C 
ATOM     15  C   UNL     1     -16.417  45.654 -14.238  0.00  0.00    +0.126 C 
ENDBRANCH   4  10
BRANCH   1  16
ATOM     16  C   UNL     1     -19.206  40.480 -12.071  0.00  0.00    +0.549 C 
ATOM     17  O   UNL     1     -19.203  39.710 -13.013  0.00  0.00    -0.525 OA
BRANCH  16  18
ATOM     18  N   UNL     1     -19.985  40.353 -10.995  0.00  0.00    -0.658 NA
ATOM     19  H   UNL     1     -20.688  41.101 -11.060  0.00  0.00    +0.313 HD
ENDBRANCH  16  18
ENDBRANCH   1  16
BRANCH   7  20
ATOM     20  C   UNL     1     -20.125  42.775 -15.115  0.00  0.00    +0.220 C 
BRANCH  20  21
ATOM     21  C   UNL     1     -20.572  43.285 -16.370  0.00  0.00    -0.061 C 
ATOM     22  C   UNL     1     -19.642  43.483 -17.389  0.00  0.00    +0.017 C 
ATOM     23  C   UNL     1     -20.013  44.139 -18.561  0.00  0.00    -0.001 C 
ATOM     24  C   UNL     1     -21.315  44.610 -18.708  0.00  0.00    +0.003 C 
ATOM     25  C   UNL     1     -22.244  44.419 -17.688  0.00  0.00    -0.002 C 
ATOM     26  C   UNL     1     -21.873  43.764 -16.514  0.00  0.00    +0.010 C 
ENDBRANCH  20  21
ENDBRANCH   7  20
TORSDOF 5
ENDMDL
MODEL 3
REMARK VINA RESULT:    -6.479      4.245      6.077
REMARK INTER + INTRA:          -9.408
REMARK INTER:                  -8.318
REMARK INTRA:                  -1.090
REMARK UNBOUND:                -1.224
REMARK  Name = 
REMARK  5 active torsions:
REMARK  status: ('A' for Active; 'I' for Inactive)
REMARK    1  A    between atoms: N_1  and  C_2
REMARK    2  A    between atoms: C_2  and  C_4
REMARK    3  A    between atoms: C_7  and  N_8
REMARK    4  A    between atoms: N_16  and  C_17
REMARK    5  A    between atoms: C_17  and  C_18
REMARK                            x       y       z     vdW  Elec       q    Type
REMARK                         _______ _______ _______ _____ _____    ______ ____
ROOT
ATOM      1  C   UNL     1     -15.428  43.981 -12.724  0.00  0.00    -0.078 C 
ATOM      2  C   UNL     1     -14.362  44.817 -12.012  0.00  0.00    +0.180 C 
ATOM      3  C   UNL     1     -13.152  43.948 -11.757  0.00  0.00    +0.067 C 
ATOM      4  C   UNL     1     -13.524  42.787 -10.823  0.00  0.00    +0.382 C 
ATOM      5  N   UNL     1     -14.838  42.206 -11.140  0.00  0.00    -0.687 N 
ATOM      6  C   UNL     1     -15.775  42.776 -11.897  0.00  0.00    +0.533 C 
ATOM      7  N   UNL     1     -17.023  42.343 -11.957  0.00  0.00    -0.679 N 
ATOM      8  H   UNL     1     -15.073  41.327 -10.701  0.00  0.00    +0.320 HD
ATOM      9  H   UNL     1     -17.600  42.871 -12.655  0.00  0.00    +0.346 HD
ENDROOT
BRANCH   4  10
ATOM     10  N   UNL     1     -12.545  41.699 -10.687  0.00  0.00    -0.403 NA
ATOM     11  C   UNL     1     -11.702  41.992  -9.482  0.00  0.00    +0.099 C 
ATOM     12  C   UNL     1     -10.265  42.455  -9.145  0.00  0.00    -0.034 C 
ATOM     13  C   UNL     1      -9.348  42.605 -10.368  0.00  0.00    +0.001 C 
ATOM     14  C   UNL     1      -9.959  42.243 -11.733  0.00  0.00    -0.037 C 
ATOM     15  C   UNL     1     -11.450  41.816 -11.702  0.00  0.00    +0.126 C 
ENDBRANCH   4  10
BRANCH   1  16
ATOM     16  C   UNL     1     -16.654  44.845 -12.965  0.00  0.00    +0.549 C 
ATOM     17  O   UNL     1     -17.266  44.876 -14.016  0.00  0.00    -0.525 OA
BRANCH  16  18
ATOM     18  N   UNL     1     -16.944  45.596 -11.900  0.00  0.00    -0.658 NA
ATOM     19  H   UNL     1     -17.644  46.281 -12.214  0.00  0.00    +0.313 HD
ENDBRANCH  16  18
ENDBRANCH   1  16
BRANCH   7  20
ATOM     20  C   UNL     1     -17.733  41.683 -10.914  0.00  0.00    +0.220 C 
BRANCH  20  21
ATOM     21  C   UNL     1     -18.555  41.330  -9.802  0.00  0.00    -0.061 C 
ATOM     22  C   UNL     1     -19.506  40.322  -9.957  0.00  0.00    +0.017 C 
ATOM     23  C   UNL     1     -20.436  40.073  -8.950  0.00  0.00    -0.001 C 
ATOM     24  C   UNL     1     -20.423  40.843  -7.790  0.00  0.00    +0.003 C 
ATOM     25  C   UNL     1     -19.477  41.854  -7.636  0.00  0.00    -0.002 C 
ATOM     26  C   UNL     1     -18.547  42.105  -8.644  0.00  0.00    +0.010 C 
ENDBRANCH  20  21
ENDBRANCH   7  20
TORSDOF 5
ENDMDL
MODEL 4
REMARK VINA RESULT:    -6.259      2.303      4.882
REMARK INTER + INTRA:          -9.130
REMARK INTER:                  -7.991
REMARK INTRA:                  -1.140
REMARK UNBOUND:                -1.224
REMARK  Name = 
REMARK  5 active torsions:
REMARK  status: ('A' for Active; 'I' for Inactive)
REMARK    1  A    between atoms: N_1  and  C_2
REMARK    2  A    between atoms: C_2  and  C_4
REMARK    3  A    between atoms: C_7  and  N_8
REMARK    4  A    between atoms: N_16  and  C_17
REMARK    5  A    between atoms: C_17  and  C_18
REMARK                            x       y       z     vdW  Elec       q    Type
REMARK                         _______ _______ _______ _____ _____    ______ ____
ROOT
ATOM      1  C   UNL     1     -18.045  46.165 -15.740  0.00  0.00    -0.078 C 
ATOM      2  C   UNL     1     -17.503  46.112 -17.170  0.00  0.00    +0.180 C 
ATOM      3  C   UNL     1     -18.646  45.812 -18.113  0.00  0.00    +0.067 C 
ATOM      4  C   UNL     1     -19.243  44.434 -17.798  0.00  0.00    +0.382 C 
ATOM      5  N   UNL     1     -19.351  44.182 -16.352  0.00  0.00    -0.687 N 
ATOM      6  C   UNL     1     -18.723  44.867 -15.398  0.00  0.00    +0.533 C 
ATOM      7  N   UNL     1     -18.648  44.462 -14.141  0.00  0.00    -0.679 N 
ATOM      8  H   UNL     1     -19.900  43.386 -16.061  0.00  0.00    +0.320 HD
ATOM      9  H   UNL     1     -18.175  45.161 -13.519  0.00  0.00    +0.346 HD
ENDROOT
BRANCH   4  10
ATOM     10  N   UNL     1     -20.526  44.100 -18.433  0.00  0.00    -0.403 NA
ATOM     11  C   UNL     1     -21.308  45.371 -18.577  0.00  0.00    +0.099 C 
ATOM     12  C   UNL     1     -22.540  46.063 -17.946  0.00  0.00    -0.034 C 
ATOM     13  C   UNL     1     -23.277  45.209 -16.903  0.00  0.00    +0.001 C 
ATOM     14  C   UNL     1     -22.725  43.794 -16.661  0.00  0.00    -0.037 C 
ATOM     15  C   UNL     1     -21.455  43.427 -17.472  0.00  0.00    +0.126 C 
ENDBRANCH   4  10
BRANCH   1  16
ATOM     16  C   UNL     1     -16.897  46.445 -14.786  0.00  0.00    +0.549 C 
ATOM     17  O   UNL     1     -16.935  47.284 -13.906  0.00  0.00    -0.525 OA
BRANCH  16  18
ATOM     18  N   UNL     1     -15.831  45.691 -15.065  0.00  0.00    -0.658 NA
ATOM     19  H   UNL     1     -15.018  46.321 -15.030  0.00  0.00    +0.313 HD
ENDBRANCH  16  18
ENDBRANCH   1  16
BRANCH   7  20
ATOM     20  C   UNL     1     -18.645  43.110 -13.695  0.00  0.00    +0.220 C 
BRANCH  20  21
ATOM     21  C   UNL     1     -18.393  41.861 -13.053  0.00  0.00    -0.061 C 
ATOM     22  C   UNL     1     -19.446  41.201 -12.421  0.00  0.00    +0.017 C 
ATOM     23  C   UNL     1     -19.201  40.072 -11.642  0.00  0.00    -0.001 C 
ATOM     24  C   UNL     1     -17.897  39.611 -11.483  0.00  0.00    +0.003 C 
ATOM     25  C   UNL     1     -16.843  40.273 -12.109  0.00  0.00    -0.002 C 
ATOM     26  C   UNL     1     -17.088  41.403 -12.888  0.00  0.00    +0.010 C 
ENDBRANCH  20  21
ENDBRANCH   7  20
TORSDOF 5
ENDMDL
MODEL 5
REMARK VINA RESULT:    -6.107      3.025      5.991
REMARK INTER + INTRA:          -8.938
REMARK INTER:                  -7.912
REMARK INTRA:                  -1.026
REMARK UNBOUND:                -1.224
REMARK  Name = 
REMARK  5 active torsions:
REMARK  status: ('A' for Active; 'I' for Inactive)
REMARK    1  A    between atoms: N_1  and  C_2
REMARK    2  A    between atoms: C_2  and  C_4
REMARK    3  A    between atoms: C_7  and  N_8
REMARK    4  A    between atoms: N_16  and  C_17
REMARK    5  A    between atoms: C_17  and  C_18
REMARK                            x       y       z     vdW  Elec       q    Type
REMARK                         _______ _______ _______ _____ _____    ______ ____
ROOT
ATOM      1  C   UNL     1     -20.942  44.756 -17.287  0.00  0.00    -0.078 C 
ATOM      2  C   UNL     1     -21.216  43.289 -16.950  0.00  0.00    +0.180 C 
ATOM      3  C   UNL     1     -20.988  43.077 -15.471  0.00  0.00    +0.067 C 
ATOM      4  C   UNL     1     -19.522  43.362 -15.117  0.00  0.00    +0.382 C 
ATOM      5  N   UNL     1     -18.990  44.541 -15.819  0.00  0.00    -0.687 N 
ATOM      6  C   UNL     1     -19.541  45.123 -16.883  0.00  0.00    +0.533 C 
ATOM      7  N   UNL     1     -18.914  46.017 -17.629  0.00  0.00    -0.679 N 
ATOM      8  H   UNL     1     -18.101  44.905 -15.505  0.00  0.00    +0.320 HD
ATOM      9  H   UNL     1     -19.527  46.416 -18.381  0.00  0.00    +0.346 HD
ENDROOT
BRANCH   4  10
ATOM     10  N   UNL     1     -19.187  43.469 -13.691  0.00  0.00    -0.403 NA
ATOM     11  C   UNL     1     -18.138  44.532 -13.547  0.00  0.00    +0.099 C 
ATOM     12  C   UNL     1     -16.626  44.647 -13.246  0.00  0.00    -0.034 C 
ATOM     13  C   UNL     1     -15.946  43.312 -12.906  0.00  0.00    +0.001 C 
ATOM     14  C   UNL     1     -16.853  42.070 -12.873  0.00  0.00    -0.037 C 
ATOM     15  C   UNL     1     -18.339  42.321 -13.237  0.00  0.00    +0.126 C 
ENDBRANCH   4  10
BRANCH   1  16
ATOM     16  C   UNL     1     -21.150  44.969 -18.777  0.00  0.00    +0.549 C 
ATOM     17  O   UNL     1     -20.638  44.280 -19.638  0.00  0.00    -0.525 OA
BRANCH  16  18
ATOM     18  N   UNL     1     -21.924  46.030 -19.018  0.00  0.00    -0.658 NA
ATOM     19  H   UNL     1     -21.385  46.852 -18.714  0.00  0.00    +0.313 HD
ENDBRANCH  16  18
ENDBRANCH   1  16
BRANCH   7  20
ATOM     20  C   UNL     1     -17.509  46.089 -17.849  0.00  0.00    +0.220 C 
BRANCH  20  21
ATOM     21  C   UNL     1     -16.181  46.035 -18.367  0.00  0.00    -0.061 C 
ATOM     22  C   UNL     1     -15.155  46.664 -17.663  0.00  0.00    +0.017 C 
ATOM     23  C   UNL     1     -13.885  46.779 -18.225  0.00  0.00    -0.001 C 
ATOM     24  C   UNL     1     -13.645  46.276 -19.502  0.00  0.00    +0.003 C 
ATOM     25  C   UNL     1     -14.671  45.653 -20.209  0.00  0.00    -0.002 C 
ATOM     26  C   UNL     1     -15.943  45.539 -19.647  0.00  0.00    +0.010 C 
ENDBRANCH  20  21
ENDBRANCH   7  20
TORSDOF 5
ENDMDL
