MODEL 1
REMARK VINA RESULT:    -9.168      0.000      0.000
REMARK INTER + INTRA:         -12.362
REMARK INTER:                 -11.579
REMARK INTRA:                  -0.783
REMARK UNBOUND:                -0.783
REMARK  Name = 
REMARK  5 active torsions:
REMARK  status: ('A' for Active; 'I' for Inactive)
REMARK    1  A    between atoms: N_3  and  C_4
REMARK    2  A    between atoms: C_10  and  C_11
REMARK    3  A    between atoms: C_11  and  O_12
REMARK    4  A    between atoms: N_13  and  C_14
REMARK    5  A    between atoms: C_14  and  C_15
REMARK                            x       y       z     vdW  Elec       q    Type
REMARK                         _______ _______ _______ _____ _____    ______ ____
ROOT
ATOM      1  C   UNL     1     -18.178  41.972 -12.110  0.00  0.00    +0.382 C 
ATOM      2  N   UNL     1     -16.951  42.074 -11.323  0.00  0.00    -0.635 N 
ATOM      3  C   UNL     1     -15.952  41.142 -11.384  0.00  0.00    +0.506 C 
ATOM      4  N   UNL     1     -14.762  41.436 -10.979  0.00  0.00    -0.604 NA
ATOM      5  C   UNL     1     -16.238  39.730 -11.827  0.00  0.00    +0.079 C 
ATOM      6  C   UNL     1     -17.305  39.720 -12.909  0.00  0.00    +0.180 C 
ATOM      7  C   UNL     1     -18.537  40.525 -12.487  0.00  0.00    +0.013 C 
ATOM      8  H   UNL     1     -17.171  42.285 -10.350  0.00  0.00    +0.296 HD
ATOM      9  H   UNL     1     -14.755  42.430 -10.731  0.00  0.00    +0.307 HD
ENDROOT
BRANCH   1  12
ATOM     10  N   UNL     1     -20.072  42.695 -14.705  0.00  0.00    -0.166 NA
ATOM     11  N   UNL     1     -19.138  42.730 -14.055  0.00  0.00    +0.005 NA
ATOM     12  N   UNL     1     -18.107  42.747 -13.358  0.00  0.00    -0.261 NA
ENDBRANCH   1  12
BRANCH   7  13
ATOM     13  C   UNL     1     -19.272  39.840 -11.356  0.00  0.00    +0.425 C 
ATOM     14  N   UNL     1     -19.547  40.425 -10.252  0.00  0.00    -0.447 NA
BRANCH  13  15
ATOM     15  O   UNL     1     -19.565  38.557 -11.636  0.00  0.00    -0.614 OA
ATOM     16  H   UNL     1     -18.990  37.928 -11.179  0.00  0.00    +0.299 HD
ENDBRANCH  13  15
BRANCH  14  17
ATOM     17  C   UNL     1     -20.215  39.725  -9.167  0.00  0.00    +0.225 C 
BRANCH  17  18
ATOM     18  C   UNL     1     -20.722  40.699  -8.142  0.00  0.00    +0.019 C 
ATOM     19  C   UNL     1     -19.826  41.454  -7.382  0.00  0.00    -0.007 C 
ATOM     20  C   UNL     1     -20.294  42.332  -6.407  0.00  0.00    +0.004 C 
ATOM     21  C   UNL     1     -21.662  42.454  -6.177  0.00  0.00    +0.002 C 
ATOM     22  C   UNL     1     -22.561  41.691  -6.916  0.00  0.00    +0.004 C 
ATOM     23  C   UNL     1     -22.092  40.812  -7.891  0.00  0.00    -0.012 C 
ENDBRANCH  17  18
ENDBRANCH  14  17
ENDBRANCH   7  13
TORSDOF 5
ENDMDL
MODEL 2
REMARK VINA RESULT:    -7.750      1.929      2.634
REMARK INTER + INTRA:         -10.571
REMARK INTER:                 -10.170
REMARK INTRA:                  -0.401
REMARK UNBOUND:                -0.783
REMARK  Name = 
REMARK  5 active torsions:
REMARK  status: ('A' for Active; 'I' for Inactive)
REMARK    1  A    between atoms: N_3  and  C_4
REMARK    2  A    between atoms: C_10  and  C_11
REMARK    3  A    between atoms: C_11  and  O_12
REMARK    4  A    between atoms: N_13  and  C_14
REMARK    5  A    between atoms: C_14  and  C_15
REMARK                            x       y       z     vdW  Elec       q    Type
REMARK                         _______ _______ _______ _____ _____    ______ ____
ROOT
ATOM      1  C   UNL     1     -16.937  42.551 -11.696  0.00  0.00    +0.382 C 
ATOM      2  N   UNL     1     -16.381  41.326 -12.268  0.00  0.00    -0.635 N 
ATOM      3  C   UNL     1     -17.153  40.377 -12.879  0.00  0.00    +0.506 C 
ATOM      4  N   UNL     1     -16.616  39.517 -13.678  0.00  0.00    -0.604 NA
ATOM      5  C   UNL     1     -18.621  40.252 -12.560  0.00  0.00    +0.079 C 
ATOM      6  C   UNL     1     -19.226  41.621 -12.301  0.00  0.00    +0.180 C 
ATOM      7  C   UNL     1     -18.409  42.409 -11.274  0.00  0.00    +0.013 C 
ATOM      8  H   UNL     1     -15.745  40.882 -11.605  0.00  0.00    +0.296 HD
ATOM      9  H   UNL     1     -15.628  39.764 -13.782  0.00  0.00    +0.307 HD
ENDROOT
BRANCH   1  12
ATOM     10  N   UNL     1     -17.584  45.779 -11.746  0.00  0.00    -0.166 NA
ATOM     11  N   UNL     1     -17.223  44.783 -12.161  0.00  0.00    +0.005 NA
ATOM     12  N   UNL     1     -16.853  43.689 -12.625  0.00  0.00    -0.261 NA
ENDBRANCH   1  12
BRANCH   7  13
ATOM     13  C   UNL     1     -18.517  41.784  -9.900  0.00  0.00    +0.425 C 
ATOM     14  N   UNL     1     -19.356  40.859  -9.623  0.00  0.00    -0.447 NA
BRANCH  13  15
ATOM     15  O   UNL     1     -17.662  42.331  -9.018  0.00  0.00    -0.614 OA
ATOM     16  H   UNL     1     -17.699  41.915  -8.145  0.00  0.00    +0.299 HD
ENDBRANCH  13  15
BRANCH  14  17
ATOM     17  C   UNL     1     -19.466  40.310  -8.281  0.00  0.00    +0.225 C 
BRANCH  17  18
ATOM     18  C   UNL     1     -20.543  41.015  -7.508  0.00  0.00    +0.019 C 
ATOM     19  C   UNL     1     -21.882  40.888  -7.885  0.00  0.00    -0.007 C 
ATOM     20  C   UNL     1     -22.879  41.568  -7.190  0.00  0.00    +0.004 C 
ATOM     21  C   UNL     1     -22.544  42.389  -6.116  0.00  0.00    +0.002 C 
ATOM     22  C   UNL     1     -21.211  42.537  -5.744  0.00  0.00    +0.004 C 
ATOM     23  C   UNL     1     -20.214  41.857  -6.442  0.00  0.00    -0.012 C 
ENDBRANCH  17  18
ENDBRANCH  14  17
ENDBRANCH   7  13
TORSDOF 5
ENDMDL
MODEL 3
REMARK VINA RESULT:    -7.641      1.531      2.006
REMARK INTER + INTRA:         -10.435
REMARK INTER:                  -9.719
REMARK INTRA:                  -0.716
REMARK UNBOUND:                -0.783
REMARK  Name = 
REMARK  5 active torsions:
REMARK  status: ('A' for Active; 'I' for Inactive)
REMARK    1  A    between atoms: N_3  and  C_4
REMARK    2  A    between atoms: C_10  and  C_11
REMARK    3  A    between atoms: C_11  and  O_12
REMARK    4  A    between atoms: N_13  and  C_14
REMARK    5  A    between atoms: C_14  and  C_15
REMARK                            x       y       z     vdW  Elec       q    Type
REMARK                         _______ _______ _______ _____ _____    ______ ____
ROOT
ATOM      1  C   UNL     1     -18.912  42.113 -12.331  0.00  0.00    +0.382 C 
ATOM      2  N   UNL     1     -17.770  42.995 -12.562  0.00  0.00    -0.635 N 
ATOM      3  C   UNL     1     -16.478  42.546 -12.570  0.00  0.00    +0.506 C 
ATOM      4  N   UNL     1     -15.549  43.248 -13.128  0.00  0.00    -0.604 NA
ATOM      5  C   UNL     1     -16.094  41.281 -11.847  0.00  0.00    +0.079 C 
ATOM      6  C   UNL     1     -17.216  40.259 -11.934  0.00  0.00    +0.180 C 
ATOM      7  C   UNL     1     -18.557  40.863 -11.508  0.00  0.00    +0.013 C 
ATOM      8  H   UNL     1     -17.844  43.830 -11.982  0.00  0.00    +0.296 HD
ATOM      9  H   UNL     1     -15.995  44.056 -13.573  0.00  0.00    +0.307 HD
ENDROOT
BRANCH   1  12
ATOM     10  N   UNL     1     -19.659  43.287 -15.316  0.00  0.00    -0.166 NA
ATOM     11  N   UNL     1     -19.584  42.503 -14.494  0.00  0.00    +0.005 NA
ATOM     12  N   UNL     1     -19.526  41.654 -13.587  0.00  0.00    -0.261 NA
ENDBRANCH   1  12
BRANCH   7  13
ATOM     13  C   UNL     1     -18.567  41.172 -10.027  0.00  0.00    +0.425 C 
ATOM     14  N   UNL     1     -18.942  40.326  -9.145  0.00  0.00    -0.447 NA
BRANCH  13  15
ATOM     15  O   UNL     1     -18.170  42.430  -9.763  0.00  0.00    -0.614 OA
ATOM     16  H   UNL     1     -17.929  42.926 -10.557  0.00  0.00    +0.299 HD
ENDBRANCH  13  15
BRANCH  14  17
ATOM     17  C   UNL     1     -18.981  40.669  -7.732  0.00  0.00    +0.225 C 
BRANCH  17  18
ATOM     18  C   UNL     1     -20.362  41.106  -7.333  0.00  0.00    +0.019 C 
ATOM     19  C   UNL     1     -21.483  40.579  -7.977  0.00  0.00    -0.007 C 
ATOM     20  C   UNL     1     -22.763  41.009  -7.631  0.00  0.00    +0.004 C 
ATOM     21  C   UNL     1     -22.929  41.976  -6.643  0.00  0.00    +0.002 C 
ATOM     22  C   UNL     1     -21.816  42.521  -6.009  0.00  0.00    +0.004 C 
ATOM     23  C   UNL     1     -20.537  42.091  -6.357  0.00  0.00    -0.012 C 
ENDBRANCH  17  18
ENDBRANCH  14  17
ENDBRANCH   7  13
TORSDOF 5
ENDMDL
MODEL 4
REMARK VINA RESULT:    -7.384      3.184      6.284
REMARK INTER + INTRA:         -10.109
REMARK INTER:                  -9.161
REMARK INTRA:                  -0.949
REMARK UNBOUND:                -0.783
REMARK  Name = 
REMARK  5 active torsions:
REMARK  status: ('A' for Active; 'I' for Inactive)
REMARK    1  A    between atoms: N_3  and  C_4
REMARK    2  A    between atoms: C_10  and  C_11
REMARK    3  A    between atoms: C_11  and  O_12
REMARK    4  A    between atoms: N_13  and  C_14
REMARK    5  A    between atoms: C_14  and  C_15
REMARK                            x       y       z     vdW  Elec       q    Type
REMARK                         _______ _______ _______ _____ _____    ______ ____
ROOT
ATOM      1  C   UNL     1     -18.443  41.513 -10.346  0.00  0.00    +0.382 C 
ATOM      2  N   UNL     1     -19.411  40.797 -11.175  0.00  0.00    -0.635 N 
ATOM      3  C   UNL     1     -19.049  39.810 -12.049  0.00  0.00    +0.506 C 
ATOM      4  N   UNL     1     -19.928  38.966 -12.477  0.00  0.00    -0.604 NA
ATOM      5  C   UNL     1     -17.651  39.746 -12.607  0.00  0.00    +0.079 C 
ATOM      6  C   UNL     1     -16.642  40.192 -11.563  0.00  0.00    +0.180 C 
ATOM      7  C   UNL     1     -17.029  41.541 -10.951  0.00  0.00    +0.013 C 
ATOM      8  H   UNL     1     -20.040  41.456 -11.634  0.00  0.00    +0.296 HD
ATOM      9  H   UNL     1     -20.806  39.155 -11.984  0.00  0.00    +0.307 HD
ENDROOT
BRANCH   1  12
ATOM     10  N   UNL     1     -19.257  42.268  -7.245  0.00  0.00    -0.166 NA
ATOM     11  N   UNL     1     -18.827  41.628  -8.083  0.00  0.00    +0.005 NA
ATOM     12  N   UNL     1     -18.333  40.941  -8.995  0.00  0.00    -0.261 NA
ENDBRANCH   1  12
BRANCH   7  13
ATOM     13  C   UNL     1     -16.900  42.654 -11.967  0.00  0.00    +0.425 C 
ATOM     14  N   UNL     1     -17.880  43.406 -12.301  0.00  0.00    -0.447 NA
BRANCH  13  15
ATOM     15  O   UNL     1     -15.662  42.735 -12.486  0.00  0.00    -0.614 OA
ATOM     16  H   UNL     1     -15.453  42.003 -13.084  0.00  0.00    +0.299 HD
ENDBRANCH  13  15
BRANCH  14  17
ATOM     17  C   UNL     1     -17.733  44.439 -13.314  0.00  0.00    +0.225 C 
BRANCH  17  18
ATOM     18  C   UNL     1     -18.752  44.261 -14.403  0.00  0.00    +0.019 C 
ATOM     19  C   UNL     1     -19.587  43.141 -14.412  0.00  0.00    -0.007 C 
ATOM     20  C   UNL     1     -20.509  42.957 -15.441  0.00  0.00    +0.004 C 
ATOM     21  C   UNL     1     -20.596  43.887 -16.473  0.00  0.00    +0.002 C 
ATOM     22  C   UNL     1     -19.755  44.996 -16.482  0.00  0.00    +0.004 C 
ATOM     23  C   UNL     1     -18.832  45.178 -15.454  0.00  0.00    -0.012 C 
ENDBRANCH  17  18
ENDBRANCH  14  17
ENDBRANCH   7  13
TORSDOF 5
ENDMDL
MODEL 5
REMARK VINA RESULT:    -6.925      3.593      6.144
REMARK INTER + INTRA:          -9.529
REMARK INTER:                  -8.861
REMARK INTRA:                  -0.668
REMARK UNBOUND:                -0.783
REMARK  Name = 
REMARK  5 active torsions:
REMARK  status: ('A' for Active; 'I' for Inactive)
REMARK    1  A    between atoms: N_3  and  C_4
REMARK    2  A    between atoms: C_10  and  C_11
REMARK    3  A    between atoms: C_11  and  O_12
REMARK    4  A    between atoms: N_13  and  C_14
REMARK    5  A    between atoms: C_14  and  C_15
REMARK                            x       y       z     vdW  Elec       q    Type
REMARK                         _______ _______ _______ _____ _____    ______ ____
ROOT
ATOM      1  C   UNL     1     -18.732  41.439  -9.834  0.00  0.00    +0.382 C 
ATOM      2  N   UNL     1     -19.557  40.505 -10.597  0.00  0.00    -0.635 N 
ATOM      3  C   UNL     1     -19.027  39.540 -11.408  0.00  0.00    +0.506 C 
ATOM      4  N   UNL     1     -19.741  38.525 -11.763  0.00  0.00    -0.604 NA
ATOM      5  C   UNL     1     -17.641  39.688 -11.982  0.00  0.00    +0.079 C 
ATOM      6  C   UNL     1     -16.726  40.380 -10.986  0.00  0.00    +0.180 C 
ATOM      7  C   UNL     1     -17.348  41.677 -10.462  0.00  0.00    +0.013 C 
ATOM      8  H   UNL     1     -20.295  41.007 -11.090  0.00  0.00    +0.296 HD
ATOM      9  H   UNL     1     -20.637  38.587 -11.271  0.00  0.00    +0.307 HD
ENDROOT
BRANCH   1  12
ATOM     10  N   UNL     1     -19.605  42.291  -6.775  0.00  0.00    -0.166 NA
ATOM     11  N   UNL     1     -19.095  41.663  -7.576  0.00  0.00    +0.005 NA
ATOM     12  N   UNL     1     -18.516  40.992  -8.449  0.00  0.00    -0.261 NA
ENDBRANCH   1  12
BRANCH   7  13
ATOM     13  C   UNL     1     -17.423  42.722 -11.553  0.00  0.00    +0.425 C 
ATOM     14  N   UNL     1     -16.421  43.438 -11.899  0.00  0.00    -0.447 NA
BRANCH  13  15
ATOM     15  O   UNL     1     -18.656  42.824 -12.082  0.00  0.00    -0.614 OA
ATOM     16  H   UNL     1     -18.911  43.736 -12.277  0.00  0.00    +0.299 HD
ENDBRANCH  13  15
BRANCH  14  17
ATOM     17  C   UNL     1     -16.539  44.464 -12.922  0.00  0.00    +0.225 C 
BRANCH  17  18
ATOM     18  C   UNL     1     -16.730  45.816 -12.296  0.00  0.00    +0.019 C 
ATOM     19  C   UNL     1     -18.011  46.272 -11.976  0.00  0.00    -0.007 C 
ATOM     20  C   UNL     1     -18.193  47.539 -11.427  0.00  0.00    +0.004 C 
ATOM     21  C   UNL     1     -17.094  48.365 -11.202  0.00  0.00    +0.002 C 
ATOM     22  C   UNL     1     -15.816  47.927 -11.535  0.00  0.00    +0.004 C 
ATOM     23  C   UNL     1     -15.636  46.659 -12.085  0.00  0.00    -0.012 C 
ENDBRANCH  17  18
ENDBRANCH  14  17
ENDBRANCH   7  13
TORSDOF 5
ENDMDL
