MODEL 1
REMARK VINA RESULT:    -8.595      0.000      0.000
REMARK INTER + INTRA:         -11.654
REMARK INTER:                 -11.108
REMARK INTRA:                  -0.546
REMARK UNBOUND:                -0.546
REMARK  Name = 
REMARK  5 active torsions:
REMARK  status: ('A' for Active; 'I' for Inactive)
REMARK    1  A    between atoms: C_2  and  C_3
REMARK    2  A    between atoms: C_3  and  C_12
REMARK    3  A    between atoms: N_4  and  C_5
REMARK    4  A    between atoms: C_5  and  C_6
REMARK    5  A    between atoms: C_17  and  N_18
REMARK                            x       y       z     vdW  Elec       q    Type
REMARK                         _______ _______ _______ _____ _____    ______ ____
ROOT
ATOM      1  C   UNL     1     -18.258  41.211 -10.517  0.00  0.00    +0.177 C 
ATOM      2  N   UNL     1     -18.349  41.549  -9.278  0.00  0.00    -0.325 NA
ENDROOT
BRANCH   1   3
ATOM      3  C   UNL     1     -17.722  42.153 -11.522  0.00  0.00    -0.081 C 
ATOM      4  C   UNL     1     -16.484  42.721 -11.218  0.00  0.00    +0.111 C 
ATOM      5  C   UNL     1     -15.879  43.611 -12.092  0.00  0.00    +0.002 C 
ATOM      6  C   UNL     1     -16.515  43.908 -13.287  0.00  0.00    +0.308 C 
ATOM      7  N   UNL     1     -17.700  43.340 -13.568  0.00  0.00    -0.636 N 
ATOM      8  C   UNL     1     -18.345  42.493 -12.735  0.00  0.00    +0.431 C 
ATOM      9  H   UNL     1     -18.099  43.556 -14.482  0.00  0.00    +0.351 HD
BRANCH   8  10
ATOM     10  N   UNL     1     -19.536  41.903 -13.181  0.00  0.00    -0.239 NA
ATOM     11  N   UNL     1     -19.951  42.304 -14.284  0.00  0.00    +0.031 NA
ATOM     12  N   UNL     1     -20.209  42.683 -15.323  0.00  0.00    -0.064 NA
ENDBRANCH   8  10
ENDBRANCH   1   3
BRANCH   1  14
ATOM     13  N   UNL     1     -19.183  38.917 -11.339  0.00  0.00    -0.243 NA
ATOM     14  C   UNL     1     -18.743  39.917 -10.949  0.00  0.00    +0.231 C 
ENDBRANCH   1  14
BRANCH   2  15
ATOM     15  C   UNL     1     -18.935  40.639  -8.280  0.00  0.00    +0.269 C 
BRANCH  15  16
ATOM     16  C   UNL     1     -20.215  41.172  -7.673  0.00  0.00    +0.086 A 
ATOM     17  C   UNL     1     -21.455  40.728  -8.164  0.00  0.00    +0.081 A 
ATOM     18  C   UNL     1     -22.650  41.128  -7.561  0.00  0.00    +0.138 A 
ATOM     19  C   UNL     1     -22.623  41.971  -6.454  0.00  0.00    +0.125 A 
ATOM     20  C   UNL     1     -21.404  42.424  -5.956  0.00  0.00    +0.132 A 
ATOM     21  C   UNL     1     -20.207  42.024  -6.559  0.00  0.00    +0.115 A 
ENDBRANCH  15  16
ENDBRANCH   2  15
TORSDOF 5
ENDMDL
MODEL 2
REMARK VINA RESULT:    -6.792      1.822      2.353
REMARK INTER + INTRA:          -9.323
REMARK INTER:                  -8.630
REMARK INTRA:                  -0.693
REMARK UNBOUND:                -0.546
REMARK  Name = 
REMARK  5 active torsions:
REMARK  status: ('A' for Active; 'I' for Inactive)
REMARK    1  A    between atoms: C_2  and  C_3
REMARK    2  A    between atoms: C_3  and  C_12
REMARK    3  A    between atoms: N_4  and  C_5
REMARK    4  A    between atoms: C_5  and  C_6
REMARK    5  A    between atoms: C_17  and  N_18
REMARK                            x       y       z     vdW  Elec       q    Type
REMARK                         _______ _______ _______ _____ _____    ______ ____
ROOT
ATOM      1  C   UNL     1     -17.038  41.921 -11.055  0.00  0.00    +0.177 C 
ATOM      2  N   UNL     1     -17.835  41.992 -10.046  0.00  0.00    -0.325 NA
ENDROOT
BRANCH   1   3
ATOM      3  C   UNL     1     -16.213  43.080 -11.452  0.00  0.00    -0.081 C 
ATOM      4  C   UNL     1     -14.838  42.939 -11.258  0.00  0.00    +0.111 C 
ATOM      5  C   UNL     1     -13.965  43.958 -11.605  0.00  0.00    +0.002 C 
ATOM      6  C   UNL     1     -14.480  45.114 -12.171  0.00  0.00    +0.308 C 
ATOM      7  N   UNL     1     -15.805  45.225 -12.363  0.00  0.00    -0.636 N 
ATOM      8  C   UNL     1     -16.700  44.274 -12.012  0.00  0.00    +0.431 C 
ATOM      9  H   UNL     1     -16.124  46.076 -12.827  0.00  0.00    +0.351 HD
BRANCH   8  10
ATOM     10  N   UNL     1     -18.047  44.477 -12.342  0.00  0.00    -0.239 NA
ATOM     11  N   UNL     1     -18.459  45.644 -12.216  0.00  0.00    +0.031 NA
ATOM     12  N   UNL     1     -18.718  46.747 -12.135  0.00  0.00    -0.064 NA
ENDBRANCH   8  10
ENDBRANCH   1   3
BRANCH   1  14
ATOM     13  N   UNL     1     -17.030  39.740 -12.483  0.00  0.00    -0.243 NA
ATOM     14  C   UNL     1     -16.992  40.713 -11.852  0.00  0.00    +0.231 C 
ENDBRANCH   1  14
BRANCH   2  15
ATOM     15  C   UNL     1     -18.703  40.863  -9.678  0.00  0.00    +0.269 C 
BRANCH  15  16
ATOM     16  C   UNL     1     -19.728  41.223  -8.622  0.00  0.00    +0.086 A 
ATOM     17  C   UNL     1     -21.019  40.672  -8.692  0.00  0.00    +0.081 A 
ATOM     18  C   UNL     1     -21.954  40.910  -7.681  0.00  0.00    +0.138 A 
ATOM     19  C   UNL     1     -21.610  41.695  -6.584  0.00  0.00    +0.125 A 
ATOM     20  C   UNL     1     -20.336  42.250  -6.501  0.00  0.00    +0.132 A 
ATOM     21  C   UNL     1     -19.399  42.013  -7.511  0.00  0.00    +0.115 A 
ENDBRANCH  15  16
ENDBRANCH   2  15
TORSDOF 5
ENDMDL
MODEL 3
REMARK VINA RESULT:    -6.589      2.548      5.904
REMARK INTER + INTRA:          -9.061
REMARK INTER:                  -8.628
REMARK INTRA:                  -0.433
REMARK UNBOUND:                -0.546
REMARK  Name = 
REMARK  5 active torsions:
REMARK  status: ('A' for Active; 'I' for Inactive)
REMARK    1  A    between atoms: C_2  and  C_3
REMARK    2  A    between atoms: C_3  and  C_12
REMARK    3  A    between atoms: N_4  and  C_5
REMARK    4  A    between atoms: C_5  and  C_6
REMARK    5  A    between atoms: C_17  and  N_18
REMARK                            x       y       z     vdW  Elec       q    Type
REMARK                         _______ _______ _______ _____ _____    ______ ____
ROOT
ATOM      1  C   UNL     1     -17.588  42.568 -11.415  0.00  0.00    +0.177 C 
ATOM      2  N   UNL     1     -18.123  43.498 -12.127  0.00  0.00    -0.325 NA
ENDROOT
BRANCH   1   3
ATOM      3  C   UNL     1     -18.426  41.650 -10.615  0.00  0.00    -0.081 C 
ATOM      4  C   UNL     1     -18.382  41.840  -9.233  0.00  0.00    +0.111 C 
ATOM      5  C   UNL     1     -19.136  41.045  -8.384  0.00  0.00    +0.002 C 
ATOM      6  C   UNL     1     -19.955  40.071  -8.935  0.00  0.00    +0.308 C 
ATOM      7  N   UNL     1     -19.995  39.914 -10.268  0.00  0.00    -0.636 N 
ATOM      8  C   UNL     1     -19.255  40.642 -11.135  0.00  0.00    +0.431 C 
ATOM      9  H   UNL     1     -20.651  39.217 -10.621  0.00  0.00    +0.351 HD
BRANCH   8  10
ATOM     10  N   UNL     1     -19.451  40.436 -12.508  0.00  0.00    -0.239 NA
ATOM     11  N   UNL     1     -18.444  40.075 -13.144  0.00  0.00    +0.031 NA
ATOM     12  N   UNL     1     -17.490  39.683 -13.619  0.00  0.00    -0.064 NA
ENDBRANCH   8  10
ENDBRANCH   1   3
BRANCH   1  14
ATOM     13  N   UNL     1     -14.987  42.416 -11.340  0.00  0.00    -0.243 NA
ATOM     14  C   UNL     1     -16.147  42.454 -11.343  0.00  0.00    +0.231 C 
ENDBRANCH   1  14
BRANCH   2  15
ATOM     15  C   UNL     1     -17.295  44.452 -12.882  0.00  0.00    +0.269 C 
BRANCH  15  16
ATOM     16  C   UNL     1     -17.171  45.798 -12.198  0.00  0.00    +0.086 A 
ATOM     17  C   UNL     1     -15.911  46.411 -12.094  0.00  0.00    +0.081 A 
ATOM     18  C   UNL     1     -15.780  47.693 -11.556  0.00  0.00    +0.138 A 
ATOM     19  C   UNL     1     -16.907  48.384 -11.120  0.00  0.00    +0.125 A 
ATOM     20  C   UNL     1     -18.164  47.791 -11.213  0.00  0.00    +0.132 A 
ATOM     21  C   UNL     1     -18.296  46.507 -11.752  0.00  0.00    +0.115 A 
ENDBRANCH  15  16
ENDBRANCH   2  15
TORSDOF 5
ENDMDL
MODEL 4
REMARK VINA RESULT:    -6.423      2.495      6.309
REMARK INTER + INTRA:          -8.847
REMARK INTER:                  -8.421
REMARK INTRA:                  -0.426
REMARK UNBOUND:                -0.546
REMARK  Name = 
REMARK  5 active torsions:
REMARK  status: ('A' for Active; 'I' for Inactive)
REMARK    1  A    between atoms: C_2  and  C_3
REMARK    2  A    between atoms: C_3  and  C_12
REMARK    3  A    between atoms: N_4  and  C_5
REMARK    4  A    between atoms: C_5  and  C_6
REMARK    5  A    between atoms: C_17  and  N_18
REMARK                            x       y       z     vdW  Elec       q    Type
REMARK                         _______ _______ _______ _____ _____    ______ ____
ROOT
ATOM      1  C   UNL     1     -17.826  42.666 -11.525  0.00  0.00    +0.177 C 
ATOM      2  N   UNL     1     -18.482  43.513 -12.239  0.00  0.00    -0.325 NA
ENDROOT
BRANCH   1   3
ATOM      3  C   UNL     1     -18.530  41.711 -10.645  0.00  0.00    -0.081 C 
ATOM      4  C   UNL     1     -18.326  41.886  -9.276  0.00  0.00    +0.111 C 
ATOM      5  C   UNL     1     -18.945  41.055  -8.354  0.00  0.00    +0.002 C 
ATOM      6  C   UNL     1     -19.792  40.060  -8.817  0.00  0.00    +0.308 C 
ATOM      7  N   UNL     1     -19.988  39.917 -10.139  0.00  0.00    -0.636 N 
ATOM      8  C   UNL     1     -19.382  40.680 -11.077  0.00  0.00    +0.431 C 
ATOM      9  H   UNL     1     -20.658  39.202 -10.420  0.00  0.00    +0.351 HD
BRANCH   8  10
ATOM     10  N   UNL     1     -19.735  40.483 -12.419  0.00  0.00    -0.239 NA
ATOM     11  N   UNL     1     -18.810  40.121 -13.168  0.00  0.00    +0.031 NA
ATOM     12  N   UNL     1     -17.919  39.727 -13.752  0.00  0.00    -0.064 NA
ENDBRANCH   8  10
ENDBRANCH   1   3
BRANCH   1  14
ATOM     13  N   UNL     1     -15.222  42.776 -11.550  0.00  0.00    -0.243 NA
ATOM     14  C   UNL     1     -16.378  42.685 -11.534  0.00  0.00    +0.231 C 
ENDBRANCH   1  14
BRANCH   2  15
ATOM     15  C   UNL     1     -17.788  44.505 -13.075  0.00  0.00    +0.269 C 
BRANCH  15  16
ATOM     16  C   UNL     1     -18.476  44.745 -14.403  0.00  0.00    +0.086 A 
ATOM     17  C   UNL     1     -19.259  43.728 -14.974  0.00  0.00    +0.081 A 
ATOM     18  C   UNL     1     -19.982  43.953 -16.148  0.00  0.00    +0.138 A 
ATOM     19  C   UNL     1     -19.938  45.200 -16.764  0.00  0.00    +0.125 A 
ATOM     20  C   UNL     1     -19.165  46.219 -16.214  0.00  0.00    +0.132 A 
ATOM     21  C   UNL     1     -18.441  45.995 -15.038  0.00  0.00    +0.115 A 
ENDBRANCH  15  16
ENDBRANCH   2  15
TORSDOF 5
ENDMDL
MODEL 5
REMARK VINA RESULT:    -6.349      2.481      6.499
REMARK INTER + INTRA:          -8.751
REMARK INTER:                  -8.271
REMARK INTRA:                  -0.480
REMARK UNBOUND:                -0.546
REMARK  Name = 
REMARK  5 active torsions:
REMARK  status: ('A' for Active; 'I' for Inactive)
REMARK    1  A    between atoms: C_2  and  C_3
REMARK    2  A    between atoms: C_3  and  C_12
REMARK    3  A    between atoms: N_4  and  C_5
REMARK    4  A    between atoms: C_5  and  C_6
REMARK    5  A    between atoms: C_17  and  N_18
REMARK                            x       y       z     vdW  Elec       q    Type
REMARK                         _______ _______ _______ _____ _____    ______ ____
ROOT
ATOM      1  C   UNL     1     -17.438  42.592 -11.303  0.00  0.00    +0.177 C 
ATOM      2  N   UNL     1     -16.174  42.345 -11.342  0.00  0.00    -0.325 NA
ENDROOT
BRANCH   1   3
ATOM      3  C   UNL     1     -18.365  41.688 -10.592  0.00  0.00    -0.081 C 
ATOM      4  C   UNL     1     -18.417  41.842  -9.206  0.00  0.00    +0.111 C 
ATOM      5  C   UNL     1     -19.259  41.055  -8.436  0.00  0.00    +0.002 C 
ATOM      6  C   UNL     1     -20.069  40.127  -9.071  0.00  0.00    +0.308 C 
ATOM      7  N   UNL     1     -20.015  40.003 -10.407  0.00  0.00    -0.636 N 
ATOM      8  C   UNL     1     -19.188  40.723 -11.198  0.00  0.00    +0.431 C 
ATOM      9  H   UNL     1     -20.668  39.340 -10.825  0.00  0.00    +0.351 HD
BRANCH   8  10
ATOM     10  N   UNL     1     -19.288  40.558 -12.586  0.00  0.00    -0.239 NA
ATOM     11  N   UNL     1     -18.283  40.082 -13.143  0.00  0.00    +0.031 NA
ATOM     12  N   UNL     1     -17.347  39.580 -13.545  0.00  0.00    -0.064 NA
ENDBRANCH   8  10
ENDBRANCH   1   3
BRANCH   1  14
ATOM     13  N   UNL     1     -18.420  44.678 -12.518  0.00  0.00    -0.243 NA
ATOM     14  C   UNL     1     -17.971  43.734 -12.015  0.00  0.00    +0.231 C 
ENDBRANCH   1  14
BRANCH   2  15
ATOM     15  C   UNL     1     -15.251  43.208 -12.096  0.00  0.00    +0.269 C 
BRANCH  15  16
ATOM     16  C   UNL     1     -13.902  43.360 -11.426  0.00  0.00    +0.086 A 
ATOM     17  C   UNL     1     -13.313  44.632 -11.328  0.00  0.00    +0.081 A 
ATOM     18  C   UNL     1     -12.116  44.816 -10.632  0.00  0.00    +0.138 A 
ATOM     19  C   UNL     1     -11.494  43.733 -10.017  0.00  0.00    +0.125 A 
ATOM     20  C   UNL     1     -12.062  42.465 -10.106  0.00  0.00    +0.132 A 
ATOM     21  C   UNL     1     -13.260  42.279 -10.803  0.00  0.00    +0.115 A 
ENDBRANCH  15  16
ENDBRANCH   2  15
TORSDOF 5
ENDMDL
