MODEL 1
REMARK VINA RESULT:    -6.915      0.000      0.000
REMARK INTER + INTRA:          -9.158
REMARK INTER:                  -8.734
REMARK INTRA:                  -0.423
REMARK UNBOUND:                -0.423
REMARK  Name = 
REMARK  5 active torsions:
REMARK  status: ('A' for Active; 'I' for Inactive)
REMARK    1  A    between atoms: C_2  and  C_3
REMARK    2  A    between atoms: C_3  and  C_12
REMARK    3  A    between atoms: N_4  and  C_5
REMARK    4  A    between atoms: C_5  and  C_6
REMARK    5  A    between atoms: C_18  and  N_19
REMARK                            x       y       z     vdW  Elec       q    Type
REMARK                         _______ _______ _______ _____ _____    ______ ____
ROOT
ATOM      1  C   UNL     1     -17.384  40.849 -12.602  0.00  0.00    +0.022 C 
ATOM      2  C   UNL     1     -18.415  39.837 -12.047  0.00  0.00    +0.196 C 
ATOM      3  C   UNL     1     -19.154  40.342 -10.805  0.00  0.00    +0.097 C 
ATOM      4  C   UNL     1     -18.141  40.883  -9.836  0.00  0.00    +0.518 C 
ATOM      5  N   UNL     1     -18.049  40.511  -8.609  0.00  0.00    -0.563 NA
ATOM      6  N   UNL     1     -17.219  41.761 -10.312  0.00  0.00    -0.650 N 
ATOM      7  C   UNL     1     -16.491  41.465 -11.503  0.00  0.00    +0.512 C 
ATOM      8  H   UNL     1     -18.799  39.853  -8.352  0.00  0.00    +0.300 HD
ATOM      9  H   UNL     1     -16.724  42.249  -9.568  0.00  0.00    +0.332 HD
ENDROOT
BRANCH   7  10
ATOM     10  N   UNL     1     -15.486  40.500 -11.038  0.00  0.00    -1.008 N 
ATOM     11  H   UNL     1     -15.094  40.796 -10.137  0.00  0.00    +0.352 HD
ATOM     12  H   UNL     1     -14.694  40.507 -11.689  0.00  0.00    +0.354 HD
ATOM     13  H   UNL     1     -15.833  39.538 -10.969  0.00  0.00    +0.344 HD
ENDBRANCH   7  10
BRANCH   1  14
ATOM     14  C   UNL     1     -18.048  41.960 -13.397  0.00  0.00    +0.166 C 
ATOM     15  N   UNL     1     -19.122  41.727 -14.079  0.00  0.00    -0.394 NA
BRANCH  14  17
ATOM     16  N   UNL     1     -17.071  44.378 -13.342  0.00  0.00    -0.278 NA
ATOM     17  C   UNL     1     -17.510  43.303 -13.324  0.00  0.00    +0.206 C 
ENDBRANCH  14  17
BRANCH  15  18
ATOM     18  C   UNL     1     -19.731  42.667 -14.812  0.00  0.00    +0.235 C 
BRANCH  18  19
ATOM     19  C   UNL     1     -20.388  43.558 -15.711  0.00  0.00    -0.046 C 
ATOM     20  C   UNL     1     -19.688  44.667 -16.182  0.00  0.00    +0.063 C 
ATOM     21  C   UNL     1     -20.316  45.582 -17.021  0.00  0.00    +0.055 C 
ATOM     22  C   UNL     1     -21.645  45.385 -17.387  0.00  0.00    +0.063 C 
ATOM     23  C   UNL     1     -22.341  44.271 -16.920  0.00  0.00    +0.057 C 
ATOM     24  C   UNL     1     -21.713  43.354 -16.080  0.00  0.00    +0.066 C 
ENDBRANCH  18  19
ENDBRANCH  15  18
ENDBRANCH   1  14
TORSDOF 5
ENDMDL
MODEL 2
REMARK VINA RESULT:    -6.700      1.628      2.537
REMARK INTER + INTRA:          -8.886
REMARK INTER:                  -8.224
REMARK INTRA:                  -0.662
REMARK UNBOUND:                -0.423
REMARK  Name = 
REMARK  5 active torsions:
REMARK  status: ('A' for Active; 'I' for Inactive)
REMARK    1  A    between atoms: C_2  and  C_3
REMARK    2  A    between atoms: C_3  and  C_12
REMARK    3  A    between atoms: N_4  and  C_5
REMARK    4  A    between atoms: C_5  and  C_6
REMARK    5  A    between atoms: C_18  and  N_19
REMARK                            x       y       z     vdW  Elec       q    Type
REMARK                         _______ _______ _______ _____ _____    ______ ____
ROOT
ATOM      1  C   UNL     1     -19.086  41.817 -11.993  0.00  0.00    +0.022 C 
ATOM      2  C   UNL     1     -17.829  42.188 -11.171  0.00  0.00    +0.196 C 
ATOM      3  C   UNL     1     -16.524  41.697 -11.802  0.00  0.00    +0.097 C 
ATOM      4  C   UNL     1     -16.692  40.250 -12.175  0.00  0.00    +0.518 C 
ATOM      5  N   UNL     1     -15.893  39.315 -11.804  0.00  0.00    -0.563 NA
ATOM      6  N   UNL     1     -17.800  39.907 -12.884  0.00  0.00    -0.650 N 
ATOM      7  C   UNL     1     -19.090  40.345 -12.461  0.00  0.00    +0.512 C 
ATOM      8  H   UNL     1     -15.086  39.685 -11.282  0.00  0.00    +0.300 HD
ATOM      9  H   UNL     1     -17.730  38.975 -13.289  0.00  0.00    +0.332 HD
ENDROOT
BRANCH   7  10
ATOM     10  N   UNL     1     -19.392  39.438 -11.346  0.00  0.00    -1.008 N 
ATOM     11  H   UNL     1     -20.396  39.228 -11.315  0.00  0.00    +0.352 HD
ATOM     12  H   UNL     1     -19.193  39.920 -10.463  0.00  0.00    +0.354 HD
ATOM     13  H   UNL     1     -18.853  38.566 -11.361  0.00  0.00    +0.344 HD
ENDBRANCH   7  10
BRANCH   1  14
ATOM     14  C   UNL     1     -19.274  42.730 -13.192  0.00  0.00    +0.166 C 
ATOM     15  N   UNL     1     -19.824  42.286 -14.275  0.00  0.00    -0.394 NA
BRANCH  14  17
ATOM     16  N   UNL     1     -18.610  45.239 -12.927  0.00  0.00    -0.278 NA
ATOM     17  C   UNL     1     -18.899  44.126 -13.086  0.00  0.00    +0.206 C 
ENDBRANCH  14  17
BRANCH  15  18
ATOM     18  C   UNL     1     -19.991  43.045 -15.365  0.00  0.00    +0.235 C 
BRANCH  18  19
ATOM     19  C   UNL     1     -20.309  43.776 -16.547  0.00  0.00    -0.046 C 
ATOM     20  C   UNL     1     -21.127  43.176 -17.503  0.00  0.00    +0.063 C 
ATOM     21  C   UNL     1     -21.416  43.843 -18.690  0.00  0.00    +0.055 C 
ATOM     22  C   UNL     1     -20.884  45.110 -18.917  0.00  0.00    +0.063 C 
ATOM     23  C   UNL     1     -20.071  45.710 -17.956  0.00  0.00    +0.057 C 
ATOM     24  C   UNL     1     -19.781  45.044 -16.768  0.00  0.00    +0.066 C 
ENDBRANCH  18  19
ENDBRANCH  15  18
ENDBRANCH   1  14
TORSDOF 5
ENDMDL
MODEL 3
REMARK VINA RESULT:    -6.392      1.916      2.759
REMARK INTER + INTRA:          -8.497
REMARK INTER:                  -7.798
REMARK INTRA:                  -0.700
REMARK UNBOUND:                -0.423
REMARK  Name = 
REMARK  5 active torsions:
REMARK  status: ('A' for Active; 'I' for Inactive)
REMARK    1  A    between atoms: C_2  and  C_3
REMARK    2  A    between atoms: C_3  and  C_12
REMARK    3  A    between atoms: N_4  and  C_5
REMARK    4  A    between atoms: C_5  and  C_6
REMARK    5  A    between atoms: C_18  and  N_19
REMARK                            x       y       z     vdW  Elec       q    Type
REMARK                         _______ _______ _______ _____ _____    ______ ____
ROOT
ATOM      1  C   UNL     1     -17.755  40.981 -12.810  0.00  0.00    +0.022 C 
ATOM      2  C   UNL     1     -18.977  40.308 -12.141  0.00  0.00    +0.196 C 
ATOM      3  C   UNL     1     -19.289  40.860 -10.748  0.00  0.00    +0.097 C 
ATOM      4  C   UNL     1     -18.012  40.897  -9.955  0.00  0.00    +0.518 C 
ATOM      5  N   UNL     1     -17.870  40.355  -8.799  0.00  0.00    -0.563 NA
ATOM      6  N   UNL     1     -16.926  41.471 -10.536  0.00  0.00    -0.650 N 
ATOM      7  C   UNL     1     -16.543  41.110 -11.862  0.00  0.00    +0.512 C 
ATOM      8  H   UNL     1     -18.753  39.958  -8.449  0.00  0.00    +0.300 HD
ATOM      9  H   UNL     1     -16.181  41.661  -9.867  0.00  0.00    +0.332 HD
ENDROOT
BRANCH   7  10
ATOM     10  N   UNL     1     -15.885  39.812 -11.668  0.00  0.00    -1.008 N 
ATOM     11  H   UNL     1     -15.478  39.751 -10.728  0.00  0.00    +0.352 HD
ATOM     12  H   UNL     1     -15.087  39.745 -12.309  0.00  0.00    +0.354 HD
ATOM     13  H   UNL     1     -16.496  39.006 -11.836  0.00  0.00    +0.344 HD
ENDBRANCH   7  10
BRANCH   1  14
ATOM     14  C   UNL     1     -18.098  42.345 -13.382  0.00  0.00    +0.166 C 
ATOM     15  N   UNL     1     -17.307  43.351 -13.198  0.00  0.00    -0.394 NA
BRANCH  14  17
ATOM     16  N   UNL     1     -20.200  42.570 -14.910  0.00  0.00    -0.278 NA
ATOM     17  C   UNL     1     -19.284  42.494 -14.201  0.00  0.00    +0.206 C 
ENDBRANCH  14  17
BRANCH  15  18
ATOM     18  C   UNL     1     -17.575  44.578 -13.663  0.00  0.00    +0.235 C 
BRANCH  18  19
ATOM     19  C   UNL     1     -17.988  45.818 -14.233  0.00  0.00    -0.046 C 
ATOM     20  C   UNL     1     -17.695  46.997 -13.550  0.00  0.00    +0.063 C 
ATOM     21  C   UNL     1     -18.127  48.220 -14.056  0.00  0.00    +0.055 C 
ATOM     22  C   UNL     1     -18.853  48.259 -15.243  0.00  0.00    +0.063 C 
ATOM     23  C   UNL     1     -19.139  47.078 -15.927  0.00  0.00    +0.057 C 
ATOM     24  C   UNL     1     -18.707  45.853 -15.423  0.00  0.00    +0.066 C 
ENDBRANCH  18  19
ENDBRANCH  15  18
ENDBRANCH   1  14
TORSDOF 5
ENDMDL
MODEL 4
REMARK VINA RESULT:    -6.040      3.471      4.396
REMARK INTER + INTRA:          -8.052
REMARK INTER:                  -7.335
REMARK INTRA:                  -0.717
REMARK UNBOUND:                -0.423
REMARK  Name = 
REMARK  5 active torsions:
REMARK  status: ('A' for Active; 'I' for Inactive)
REMARK    1  A    between atoms: C_2  and  C_3
REMARK    2  A    between atoms: C_3  and  C_12
REMARK    3  A    between atoms: N_4  and  C_5
REMARK    4  A    between atoms: C_5  and  C_6
REMARK    5  A    between atoms: C_18  and  N_19
REMARK                            x       y       z     vdW  Elec       q    Type
REMARK                         _______ _______ _______ _____ _____    ______ ____
ROOT
ATOM      1  C   UNL     1     -17.297  41.194 -10.568  0.00  0.00    +0.022 C 
ATOM      2  C   UNL     1     -16.818  40.063 -11.507  0.00  0.00    +0.196 C 
ATOM      3  C   UNL     1     -17.750  39.823 -12.697  0.00  0.00    +0.097 C 
ATOM      4  C   UNL     1     -19.160  39.731 -12.184  0.00  0.00    +0.518 C 
ATOM      5  N   UNL     1     -19.952  38.750 -12.431  0.00  0.00    -0.563 NA
ATOM      6  N   UNL     1     -19.591  40.710 -11.345  0.00  0.00    -0.650 N 
ATOM      7  C   UNL     1     -18.800  41.096 -10.222  0.00  0.00    +0.512 C 
ATOM      8  H   UNL     1     -19.530  38.071 -13.082  0.00  0.00    +0.300 HD
ATOM      9  H   UNL     1     -20.603  40.705 -11.227  0.00  0.00    +0.332 HD
ENDROOT
BRANCH   7  10
ATOM     10  N   UNL     1     -19.050  40.015  -9.261  0.00  0.00    -1.008 N 
ATOM     11  H   UNL     1     -19.341  40.400  -8.355  0.00  0.00    +0.352 HD
ATOM     12  H   UNL     1     -18.168  39.527  -9.073  0.00  0.00    +0.354 HD
ATOM     13  H   UNL     1     -19.735  39.323  -9.582  0.00  0.00    +0.344 HD
ENDBRANCH   7  10
BRANCH   1  14
ATOM     14  C   UNL     1     -16.997  42.571 -11.134  0.00  0.00    +0.166 C 
ATOM     15  N   UNL     1     -17.954  43.409 -11.365  0.00  0.00    -0.394 NA
BRANCH  14  17
ATOM     16  N   UNL     1     -14.530  43.291 -11.584  0.00  0.00    -0.278 NA
ATOM     17  C   UNL     1     -15.619  42.967 -11.342  0.00  0.00    +0.206 C 
ENDBRANCH  14  17
BRANCH  15  18
ATOM     18  C   UNL     1     -17.742  44.625 -11.883  0.00  0.00    +0.235 C 
BRANCH  18  19
ATOM     19  C   UNL     1     -17.460  45.962 -12.290  0.00  0.00    -0.046 C 
ATOM     20  C   UNL     1     -17.167  46.204 -13.631  0.00  0.00    +0.063 C 
ATOM     21  C   UNL     1     -16.839  47.489 -14.051  0.00  0.00    +0.055 C 
ATOM     22  C   UNL     1     -16.803  48.530 -13.126  0.00  0.00    +0.063 C 
ATOM     23  C   UNL     1     -17.102  48.286 -11.787  0.00  0.00    +0.057 C 
ATOM     24  C   UNL     1     -17.432  47.000 -11.365  0.00  0.00    +0.066 C 
ENDBRANCH  18  19
ENDBRANCH  15  18
ENDBRANCH   1  14
TORSDOF 5
ENDMDL
MODEL 5
REMARK VINA RESULT:    -5.951      3.055      7.343
REMARK INTER + INTRA:          -7.940
REMARK INTER:                  -7.327
REMARK INTRA:                  -0.613
REMARK UNBOUND:                -0.423
REMARK  Name = 
REMARK  5 active torsions:
REMARK  status: ('A' for Active; 'I' for Inactive)
REMARK    1  A    between atoms: C_2  and  C_3
REMARK    2  A    between atoms: C_3  and  C_12
REMARK    3  A    between atoms: N_4  and  C_5
REMARK    4  A    between atoms: C_5  and  C_6
REMARK    5  A    between atoms: C_18  and  N_19
REMARK                            x       y       z     vdW  Elec       q    Type
REMARK                         _______ _______ _______ _____ _____    ______ ____
ROOT
ATOM      1  C   UNL     1     -20.054  44.550 -17.544  0.00  0.00    +0.022 C 
ATOM      2  C   UNL     1     -20.237  46.068 -17.779  0.00  0.00    +0.196 C 
ATOM      3  C   UNL     1     -21.547  46.618 -17.209  0.00  0.00    +0.097 C 
ATOM      4  C   UNL     1     -22.670  45.720 -17.646  0.00  0.00    +0.518 C 
ATOM      5  N   UNL     1     -23.727  46.133 -18.248  0.00  0.00    -0.563 NA
ATOM      6  N   UNL     1     -22.516  44.383 -17.460  0.00  0.00    -0.650 N 
ATOM      7  C   UNL     1     -21.318  43.730 -17.879  0.00  0.00    +0.512 C 
ATOM      8  H   UNL     1     -23.745  47.160 -18.330  0.00  0.00    +0.300 HD
ATOM      9  H   UNL     1     -23.391  43.871 -17.565  0.00  0.00    +0.332 HD
ENDROOT
BRANCH   7  10
ATOM     10  N   UNL     1     -21.503  43.614 -19.331  0.00  0.00    -1.008 N 
ATOM     11  H   UNL     1     -22.107  44.367 -19.679  0.00  0.00    +0.352 HD
ATOM     12  H   UNL     1     -22.013  42.748 -19.532  0.00  0.00    +0.354 HD
ATOM     13  H   UNL     1     -20.626  43.597 -19.862  0.00  0.00    +0.344 HD
ENDBRANCH   7  10
BRANCH   1  14
ATOM     14  C   UNL     1     -19.612  44.243 -16.124  0.00  0.00    +0.166 C 
ATOM     15  N   UNL     1     -19.915  43.112 -15.573  0.00  0.00    -0.394 NA
BRANCH  14  17
ATOM     16  N   UNL     1     -18.166  45.956 -14.790  0.00  0.00    -0.278 NA
ATOM     17  C   UNL     1     -18.783  45.197 -15.416  0.00  0.00    +0.206 C 
ENDBRANCH  14  17
BRANCH  15  18
ATOM     18  C   UNL     1     -19.567  42.804 -14.317  0.00  0.00    +0.235 C 
BRANCH  18  19
ATOM     19  C   UNL     1     -19.073  42.395 -13.045  0.00  0.00    -0.046 C 
ATOM     20  C   UNL     1     -19.599  41.242 -12.463  0.00  0.00    +0.063 C 
ATOM     21  C   UNL     1     -19.173  40.843 -11.199  0.00  0.00    +0.055 C 
ATOM     22  C   UNL     1     -18.221  41.600 -10.520  0.00  0.00    +0.063 C 
ATOM     23  C   UNL     1     -17.692  42.748 -11.107  0.00  0.00    +0.057 C 
ATOM     24  C   UNL     1     -18.117  43.149 -12.372  0.00  0.00    +0.066 C 
ENDBRANCH  18  19
ENDBRANCH  15  18
ENDBRANCH   1  14
TORSDOF 5
ENDMDL
