MODEL 1
REMARK VINA RESULT:    -7.252      0.000      0.000
REMARK INTER + INTRA:          -7.820
REMARK INTER:                  -7.676
REMARK INTRA:                  -0.144
REMARK UNBOUND:                -0.144
REMARK  Name = 
REMARK  1 active torsions:
REMARK  status: ('A' for Active; 'I' for Inactive)
REMARK    1  A    between atoms: C_7  and  C_8
REMARK                            x       y       z     vdW  Elec       q    Type
REMARK                         _______ _______ _______ _____ _____    ______ ____
ROOT
ATOM      1  O   UNL     1     -17.706  45.945 -15.864  0.00  0.00    -0.387 OA
ATOM      2  C   UNL     1     -18.491  45.296 -15.193  0.00  0.00    +0.586 C 
ATOM      3  N   UNL     1     -18.386  45.182 -13.840  0.00  0.00    -0.319 NA
ATOM      4  C   UNL     1     -18.295  44.056 -13.232  0.00  0.00    +0.180 C 
ATOM      5  C   UNL     1     -17.916  44.187 -11.862  0.00  0.00    +0.166 C 
ATOM      6  C   UNL     1     -17.468  42.872 -11.307  0.00  0.00    +0.120 C 
ATOM      7  C   UNL     1     -17.437  41.675 -11.809  0.00  0.00    +0.158 C 
ATOM      8  N   UNL     1     -18.032  41.570 -13.089  0.00  0.00    -0.269 NA
ATOM      9  C   UNL     1     -18.445  42.623 -13.761  0.00  0.00    +0.369 C 
ATOM     10  N   UNL     1     -19.204  42.274 -15.056  0.00  0.00    -0.589 N 
ATOM     11  C   UNL     1     -19.739  43.094 -15.870  0.00  0.00    +0.503 C 
ATOM     12  N   UNL     1     -20.486  42.523 -16.923  0.00  0.00    -0.381 NA
ATOM     13  C   UNL     1     -20.873  43.335 -17.685  0.00  0.00    +0.375 C 
ATOM     14  C   UNL     1     -20.884  44.834 -17.944  0.00  0.00    +0.090 C 
ATOM     15  C   UNL     1     -20.278  45.210 -16.980  0.00  0.00    +0.159 C 
ATOM     16  C   UNL     1     -19.634  44.621 -15.835  0.00  0.00    -0.102 C 
ATOM     17  H   UNL     1     -19.340  41.274 -15.206  0.00  0.00    +0.389 HD
ENDROOT
BRANCH   7  18
ATOM     18  C   UNL     1     -16.921  40.450 -11.073  0.00  0.00    +0.607 C 
ATOM     19  F   UNL     1     -17.374  40.409  -9.794  0.00  0.00    -0.215 F 
ATOM     20  F   UNL     1     -17.323  39.305 -11.676  0.00  0.00    -0.220 F 
ATOM     21  F   UNL     1     -15.567  40.432 -11.016  0.00  0.00    -0.221 F 
ENDBRANCH   7  18
TORSDOF 1
ENDMDL
MODEL 2
REMARK VINA RESULT:    -7.163      3.892      6.482
REMARK INTER + INTRA:          -7.726
REMARK INTER:                  -7.582
REMARK INTRA:                  -0.145
REMARK UNBOUND:                -0.144
REMARK  Name = 
REMARK  1 active torsions:
REMARK  status: ('A' for Active; 'I' for Inactive)
REMARK    1  A    between atoms: C_7  and  C_8
REMARK                            x       y       z     vdW  Elec       q    Type
REMARK                         _______ _______ _______ _____ _____    ______ ____
ROOT
ATOM      1  O   UNL     1     -19.138  39.321 -12.090  0.00  0.00    -0.387 OA
ATOM      2  C   UNL     1     -19.402  40.484 -11.833  0.00  0.00    +0.586 C 
ATOM      3  N   UNL     1     -19.598  41.426 -12.797  0.00  0.00    -0.319 NA
ATOM      4  C   UNL     1     -18.920  42.513 -12.870  0.00  0.00    +0.180 C 
ATOM      5  C   UNL     1     -19.100  43.206 -14.105  0.00  0.00    +0.166 C 
ATOM      6  C   UNL     1     -18.036  44.240 -14.293  0.00  0.00    +0.120 C 
ATOM      7  C   UNL     1     -17.068  44.648 -13.532  0.00  0.00    +0.158 C 
ATOM      8  N   UNL     1     -17.075  44.082 -12.234  0.00  0.00    -0.269 NA
ATOM      9  C   UNL     1     -17.907  43.123 -11.891  0.00  0.00    +0.369 C 
ATOM     10  N   UNL     1     -17.856  42.764 -10.393  0.00  0.00    -0.589 N 
ATOM     11  C   UNL     1     -18.575  41.902  -9.791  0.00  0.00    +0.503 C 
ATOM     12  N   UNL     1     -18.426  41.842  -8.388  0.00  0.00    -0.381 NA
ATOM     13  C   UNL     1     -19.052  40.964  -7.912  0.00  0.00    +0.375 C 
ATOM     14  C   UNL     1     -20.018  39.844  -8.267  0.00  0.00    +0.090 C 
ATOM     15  C   UNL     1     -20.108  40.022  -9.450  0.00  0.00    +0.159 C 
ATOM     16  C   UNL     1     -19.557  40.918 -10.433  0.00  0.00    -0.102 C 
ATOM     17  H   UNL     1     -17.226  43.348  -9.843  0.00  0.00    +0.389 HD
ENDROOT
BRANCH   7  18
ATOM     18  C   UNL     1     -16.065  45.722 -13.921  0.00  0.00    +0.607 C 
ATOM     19  F   UNL     1     -15.489  45.454 -15.121  0.00  0.00    -0.215 F 
ATOM     20  F   UNL     1     -16.655  46.936 -14.023  0.00  0.00    -0.220 F 
ATOM     21  F   UNL     1     -15.063  45.824 -13.014  0.00  0.00    -0.221 F 
ENDBRANCH   7  18
TORSDOF 1
ENDMDL
MODEL 3
REMARK VINA RESULT:    -7.057      3.930      6.206
REMARK INTER + INTRA:          -7.613
REMARK INTER:                  -7.471
REMARK INTRA:                  -0.143
REMARK UNBOUND:                -0.144
REMARK  Name = 
REMARK  1 active torsions:
REMARK  status: ('A' for Active; 'I' for Inactive)
REMARK    1  A    between atoms: C_7  and  C_8
REMARK                            x       y       z     vdW  Elec       q    Type
REMARK                         _______ _______ _______ _____ _____    ______ ____
ROOT
ATOM      1  O   UNL     1     -17.727  44.189 -11.164  0.00  0.00    -0.387 OA
ATOM      2  C   UNL     1     -17.587  43.676 -12.262  0.00  0.00    +0.586 C 
ATOM      3  N   UNL     1     -17.637  44.391 -13.420  0.00  0.00    -0.319 NA
ATOM      4  C   UNL     1     -18.454  44.132 -14.376  0.00  0.00    +0.180 C 
ATOM      5  C   UNL     1     -18.519  45.168 -15.355  0.00  0.00    +0.166 C 
ATOM      6  C   UNL     1     -19.724  45.000 -16.226  0.00  0.00    +0.120 C 
ATOM      7  C   UNL     1     -20.636  44.078 -16.290  0.00  0.00    +0.158 C 
ATOM      8  N   UNL     1     -20.394  42.967 -15.447  0.00  0.00    -0.269 NA
ATOM      9  C   UNL     1     -19.409  42.947 -14.576  0.00  0.00    +0.369 C 
ATOM     10  N   UNL     1     -19.227  41.586 -13.876  0.00  0.00    -0.589 N 
ATOM     11  C   UNL     1     -18.334  41.282 -13.021  0.00  0.00    +0.503 C 
ATOM     12  N   UNL     1     -18.300  39.930 -12.615  0.00  0.00    -0.381 NA
ATOM     13  C   UNL     1     -17.511  39.743 -11.759  0.00  0.00    +0.375 C 
ATOM     14  C   UNL     1     -16.458  40.449 -10.917  0.00  0.00    +0.090 C 
ATOM     15  C   UNL     1     -16.539  41.554 -11.376  0.00  0.00    +0.159 C 
ATOM     16  C   UNL     1     -17.319  42.231 -12.378  0.00  0.00    -0.102 C 
ATOM     17  H   UNL     1     -19.855  40.855 -14.211  0.00  0.00    +0.389 HD
ENDROOT
BRANCH   7  18
ATOM     18  C   UNL     1     -21.810  44.100 -17.254  0.00  0.00    +0.607 C 
ATOM     19  F   UNL     1     -22.977  43.805 -16.625  0.00  0.00    -0.215 F 
ATOM     20  F   UNL     1     -21.960  45.320 -17.823  0.00  0.00    -0.220 F 
ATOM     21  F   UNL     1     -21.657  43.196 -18.252  0.00  0.00    -0.221 F 
ENDBRANCH   7  18
TORSDOF 1
ENDMDL
MODEL 4
REMARK VINA RESULT:    -6.101      4.088      5.549
REMARK INTER + INTRA:          -6.602
REMARK INTER:                  -6.458
REMARK INTRA:                  -0.143
REMARK UNBOUND:                -0.144
REMARK  Name = 
REMARK  1 active torsions:
REMARK  status: ('A' for Active; 'I' for Inactive)
REMARK    1  A    between atoms: C_7  and  C_8
REMARK                            x       y       z     vdW  Elec       q    Type
REMARK                         _______ _______ _______ _____ _____    ______ ____
ROOT
ATOM      1  O   UNL     1     -18.589  42.894 -14.265  0.00  0.00    -0.387 OA
ATOM      2  C   UNL     1     -18.188  43.053 -13.124  0.00  0.00    +0.586 C 
ATOM      3  N   UNL     1     -17.711  44.244 -12.670  0.00  0.00    -0.319 NA
ATOM      4  C   UNL     1     -16.539  44.391 -12.166  0.00  0.00    +0.180 C 
ATOM      5  C   UNL     1     -16.157  45.758 -12.021  0.00  0.00    +0.166 C 
ATOM      6  C   UNL     1     -14.684  45.875 -11.790  0.00  0.00    +0.120 C 
ATOM      7  C   UNL     1     -13.750  44.988 -11.630  0.00  0.00    +0.158 C 
ATOM      8  N   UNL     1     -14.224  43.656 -11.561  0.00  0.00    -0.269 NA
ATOM      9  C   UNL     1     -15.482  43.346 -11.785  0.00  0.00    +0.369 C 
ATOM     10  N   UNL     1     -15.816  41.868 -11.502  0.00  0.00    -0.589 N 
ATOM     11  C   UNL     1     -16.958  41.312 -11.600  0.00  0.00    +0.503 C 
ATOM     12  N   UNL     1     -17.033  39.971 -11.166  0.00  0.00    -0.381 NA
ATOM     13  C   UNL     1     -18.093  39.497 -11.371  0.00  0.00    +0.375 C 
ATOM     14  C   UNL     1     -19.470  39.822 -11.931  0.00  0.00    +0.090 C 
ATOM     15  C   UNL     1     -19.305  40.976 -12.214  0.00  0.00    +0.159 C 
ATOM     16  C   UNL     1     -18.238  41.940 -12.158  0.00  0.00    -0.102 C 
ATOM     17  H   UNL     1     -15.038  41.327 -11.126  0.00  0.00    +0.389 HD
ENDROOT
BRANCH   7  18
ATOM     18  C   UNL     1     -12.282  45.318 -11.418  0.00  0.00    +0.607 C 
ATOM     19  F   UNL     1     -11.989  45.462 -10.100  0.00  0.00    -0.215 F 
ATOM     20  F   UNL     1     -11.480  44.339 -11.900  0.00  0.00    -0.220 F 
ATOM     21  F   UNL     1     -11.934  46.475 -12.031  0.00  0.00    -0.221 F 
ENDBRANCH   7  18
TORSDOF 1
ENDMDL
MODEL 5
REMARK VINA RESULT:    -6.016      2.845      4.821
REMARK INTER + INTRA:          -6.511
REMARK INTER:                  -6.368
REMARK INTRA:                  -0.143
REMARK UNBOUND:                -0.144
REMARK  Name = 
REMARK  1 active torsions:
REMARK  status: ('A' for Active; 'I' for Inactive)
REMARK    1  A    between atoms: C_7  and  C_8
REMARK                            x       y       z     vdW  Elec       q    Type
REMARK                         _______ _______ _______ _____ _____    ______ ____
ROOT
ATOM      1  O   UNL     1     -18.769  47.177 -11.724  0.00  0.00    -0.387 OA
ATOM      2  C   UNL     1     -18.077  46.506 -12.471  0.00  0.00    +0.586 C 
ATOM      3  N   UNL     1     -18.592  45.554 -13.296  0.00  0.00    -0.319 NA
ATOM      4  C   UNL     1     -18.220  44.325 -13.276  0.00  0.00    +0.180 C 
ATOM      5  C   UNL     1     -19.082  43.465 -14.019  0.00  0.00    +0.166 C 
ATOM      6  C   UNL     1     -18.832  42.032 -13.670  0.00  0.00    +0.120 C 
ATOM      7  C   UNL     1     -17.958  41.459 -12.900  0.00  0.00    +0.158 C 
ATOM      8  N   UNL     1     -16.990  42.343 -12.366  0.00  0.00    -0.269 NA
ATOM      9  C   UNL     1     -17.066  43.647 -12.525  0.00  0.00    +0.369 C 
ATOM     10  N   UNL     1     -15.832  44.408 -12.003  0.00  0.00    -0.589 N 
ATOM     11  C   UNL     1     -15.630  45.664 -12.063  0.00  0.00    +0.503 C 
ATOM     12  N   UNL     1     -14.363  46.109 -11.626  0.00  0.00    -0.381 NA
ATOM     13  C   UNL     1     -14.282  47.285 -11.624  0.00  0.00    +0.375 C 
ATOM     14  C   UNL     1     -15.064  48.547 -11.958  0.00  0.00    +0.090 C 
ATOM     15  C   UNL     1     -16.081  48.053 -12.360  0.00  0.00    +0.159 C 
ATOM     16  C   UNL     1     -16.621  46.731 -12.535  0.00  0.00    -0.102 C 
ATOM     17  H   UNL     1     -15.087  43.807 -11.650  0.00  0.00    +0.389 HD
ENDROOT
BRANCH   7  18
ATOM     18  C   UNL     1     -17.877  39.960 -12.662  0.00  0.00    +0.607 C 
ATOM     19  F   UNL     1     -17.567  39.676 -11.371  0.00  0.00    -0.215 F 
ATOM     20  F   UNL     1     -19.057  39.352 -12.932  0.00  0.00    -0.220 F 
ATOM     21  F   UNL     1     -16.928  39.380 -13.436  0.00  0.00    -0.221 F 
ENDBRANCH   7  18
TORSDOF 1
ENDMDL
