MODEL 1
REMARK VINA RESULT:    -8.430      0.000      0.000
REMARK INTER + INTRA:          -9.396
REMARK INTER:                  -9.169
REMARK INTRA:                  -0.227
REMARK UNBOUND:                -0.227
REMARK  Name = 
REMARK  2 active torsions:
REMARK  status: ('A' for Active; 'I' for Inactive)
REMARK    1  A    between atoms: O_1  and  C_2
REMARK    2  A    between atoms: C_4  and  C_5
REMARK                            x       y       z     vdW  Elec       q    Type
REMARK                         _______ _______ _______ _____ _____    ______ ____
ROOT
ATOM      1  C   UNL     1     -18.104  42.348  -9.870  0.00  0.00    +0.480 C 
ATOM      2  N   UNL     1     -18.142  42.046  -8.619  0.00  0.00    -0.548 NA
ATOM      3  C   UNL     1     -18.830  40.878  -8.331  0.00  0.00    +0.354 C 
ATOM      4  N   UNL     1     -18.903  39.795  -9.186  0.00  0.00    -0.495 NA
ATOM      5  C   UNL     1     -18.866  40.093 -10.443  0.00  0.00    +0.410 C 
ATOM      6  N   UNL     1     -19.098  39.112 -11.431  0.00  0.00    -0.475 NA
ATOM      7  C   UNL     1     -19.110  39.593 -12.506  0.00  0.00    +0.257 C 
ATOM      8  C   UNL     1     -18.915  40.929 -13.227  0.00  0.00    -0.091 C 
ATOM      9  C   UNL     1     -18.669  41.694 -12.337  0.00  0.00    +0.076 C 
ATOM     10  C   UNL     1     -18.589  41.503 -10.931  0.00  0.00    -0.171 C 
ENDROOT
BRANCH   3  11
ATOM     11  C   UNL     1     -20.034  41.026  -7.412  0.00  0.00    +0.047 C 
ATOM     12  C   UNL     1     -21.314  40.856  -8.253  0.00  0.00    +0.117 C 
ATOM     13  C   UNL     1     -22.579  41.034  -7.430  0.00  0.00    +0.076 C 
ATOM     14  C   UNL     1     -22.566  42.371  -6.700  0.00  0.00    +0.075 C 
ATOM     15  C   UNL     1     -21.327  42.506  -5.818  0.00  0.00    +0.073 C 
ATOM     16  C   UNL     1     -20.039  42.344  -6.626  0.00  0.00    +0.107 C 
ENDBRANCH   3  11
BRANCH   1  17
ATOM     17  O   UNL     1     -17.595  43.524 -10.248  0.00  0.00    -0.605 OA
ATOM     18  H   UNL     1     -18.263  43.967 -10.799  0.00  0.00    +0.312 HD
ENDBRANCH   1  17
TORSDOF 2
ENDMDL
MODEL 2
REMARK VINA RESULT:    -7.999      2.334      5.668
REMARK INTER + INTRA:          -8.927
REMARK INTER:                  -8.596
REMARK INTRA:                  -0.331
REMARK UNBOUND:                -0.227
REMARK  Name = 
REMARK  2 active torsions:
REMARK  status: ('A' for Active; 'I' for Inactive)
REMARK    1  A    between atoms: O_1  and  C_2
REMARK    2  A    between atoms: C_4  and  C_5
REMARK                            x       y       z     vdW  Elec       q    Type
REMARK                         _______ _______ _______ _____ _____    ______ ____
ROOT
ATOM      1  C   UNL     1     -18.912  39.567 -11.388  0.00  0.00    +0.480 C 
ATOM      2  N   UNL     1     -17.986  39.923 -12.208  0.00  0.00    -0.548 NA
ATOM      3  C   UNL     1     -17.442  41.172 -11.955  0.00  0.00    +0.354 C 
ATOM      4  N   UNL     1     -17.335  41.725 -10.693  0.00  0.00    -0.495 NA
ATOM      5  C   UNL     1     -18.264  41.372  -9.866  0.00  0.00    +0.410 C 
ATOM      6  N   UNL     1     -18.380  41.983  -8.598  0.00  0.00    -0.475 NA
ATOM      7  C   UNL     1     -19.335  41.592  -8.030  0.00  0.00    +0.257 C 
ATOM      8  C   UNL     1     -20.493  40.601  -8.168  0.00  0.00    -0.091 C 
ATOM      9  C   UNL     1     -20.296  40.085  -9.232  0.00  0.00    +0.076 C 
ATOM     10  C   UNL     1     -19.284  40.301 -10.206  0.00  0.00    -0.171 C 
ENDROOT
BRANCH   3  11
ATOM     11  C   UNL     1     -17.582  42.195 -13.072  0.00  0.00    +0.047 C 
ATOM     12  C   UNL     1     -16.898  43.502 -12.625  0.00  0.00    +0.117 C 
ATOM     13  C   UNL     1     -17.024  44.609 -13.659  0.00  0.00    +0.076 C 
ATOM     14  C   UNL     1     -18.484  44.842 -14.026  0.00  0.00    +0.075 C 
ATOM     15  C   UNL     1     -19.138  43.558 -14.530  0.00  0.00    +0.073 C 
ATOM     16  C   UNL     1     -19.037  42.431 -13.501  0.00  0.00    +0.107 C 
ENDBRANCH   3  11
BRANCH   1  17
ATOM     17  O   UNL     1     -19.605  38.449 -11.622  0.00  0.00    -0.605 OA
ATOM     18  H   UNL     1     -20.418  38.704 -12.093  0.00  0.00    +0.312 HD
ENDBRANCH   1  17
TORSDOF 2
ENDMDL
MODEL 3
REMARK VINA RESULT:    -7.679      1.807      2.414
REMARK INTER + INTRA:          -8.579
REMARK INTER:                  -8.246
REMARK INTRA:                  -0.333
REMARK UNBOUND:                -0.227
REMARK  Name = 
REMARK  2 active torsions:
REMARK  status: ('A' for Active; 'I' for Inactive)
REMARK    1  A    between atoms: O_1  and  C_2
REMARK    2  A    between atoms: C_4  and  C_5
REMARK                            x       y       z     vdW  Elec       q    Type
REMARK                         _______ _______ _______ _____ _____    ______ ____
ROOT
ATOM      1  C   UNL     1     -16.724  41.228 -11.266  0.00  0.00    +0.480 C 
ATOM      2  N   UNL     1     -17.173  40.316 -10.475  0.00  0.00    -0.548 NA
ATOM      3  C   UNL     1     -18.555  40.223 -10.431  0.00  0.00    +0.354 C 
ATOM      4  N   UNL     1     -19.382  40.515 -11.499  0.00  0.00    -0.495 NA
ATOM      5  C   UNL     1     -18.936  41.431 -12.295  0.00  0.00    +0.410 C 
ATOM      6  N   UNL     1     -19.743  41.951 -13.331  0.00  0.00    -0.475 NA
ATOM      7  C   UNL     1     -19.195  42.833 -13.887  0.00  0.00    +0.257 C 
ATOM      8  C   UNL     1     -17.871  43.600 -13.911  0.00  0.00    -0.091 C 
ATOM      9  C   UNL     1     -17.224  43.070 -13.051  0.00  0.00    +0.076 C 
ATOM     10  C   UNL     1     -17.539  42.009 -12.161  0.00  0.00    -0.171 C 
ENDROOT
BRANCH   3  11
ATOM     11  C   UNL     1     -19.193  40.455  -9.070  0.00  0.00    +0.047 C 
ATOM     12  C   UNL     1     -20.717  40.273  -9.208  0.00  0.00    +0.117 C 
ATOM     13  C   UNL     1     -21.455  40.532  -7.904  0.00  0.00    +0.076 C 
ATOM     14  C   UNL     1     -21.107  41.907  -7.349  0.00  0.00    +0.075 C 
ATOM     15  C   UNL     1     -19.600  42.057  -7.154  0.00  0.00    +0.073 C 
ATOM     16  C   UNL     1     -18.835  41.816  -8.456  0.00  0.00    +0.107 C 
ENDBRANCH   3  11
BRANCH   1  17
ATOM     17  O   UNL     1     -15.416  41.504 -11.277  0.00  0.00    -0.605 OA
ATOM     18  H   UNL     1     -14.940  40.663 -11.168  0.00  0.00    +0.312 HD
ENDBRANCH   1  17
TORSDOF 2
ENDMDL
MODEL 4
REMARK VINA RESULT:    -6.919      2.877      5.598
REMARK INTER + INTRA:          -7.752
REMARK INTER:                  -7.481
REMARK INTRA:                  -0.272
REMARK UNBOUND:                -0.227
REMARK  Name = 
REMARK  2 active torsions:
REMARK  status: ('A' for Active; 'I' for Inactive)
REMARK    1  A    between atoms: O_1  and  C_2
REMARK    2  A    between atoms: C_4  and  C_5
REMARK                            x       y       z     vdW  Elec       q    Type
REMARK                         _______ _______ _______ _____ _____    ______ ____
ROOT
ATOM      1  C   UNL     1     -19.193  40.721 -12.021  0.00  0.00    +0.480 C 
ATOM      2  N   UNL     1     -18.497  41.547 -12.722  0.00  0.00    -0.548 NA
ATOM      3  C   UNL     1     -17.988  42.619 -12.007  0.00  0.00    +0.354 C 
ATOM      4  N   UNL     1     -17.636  42.560 -10.672  0.00  0.00    -0.495 NA
ATOM      5  C   UNL     1     -18.333  41.732  -9.965  0.00  0.00    +0.410 C 
ATOM      6  N   UNL     1     -18.201  41.685  -8.559  0.00  0.00    -0.475 NA
ATOM      7  C   UNL     1     -18.979  40.936  -8.089  0.00  0.00    +0.257 C 
ATOM      8  C   UNL     1     -20.075  39.942  -8.478  0.00  0.00    -0.091 C 
ATOM      9  C   UNL     1     -20.090  39.995  -9.676  0.00  0.00    +0.076 C 
ATOM     10  C   UNL     1     -19.336  40.780 -10.589  0.00  0.00    -0.171 C 
ENDROOT
BRANCH   3  11
ATOM     11  C   UNL     1     -18.436  43.998 -12.470  0.00  0.00    +0.047 C 
ATOM     12  C   UNL     1     -18.293  44.068 -14.002  0.00  0.00    +0.117 C 
ATOM     13  C   UNL     1     -18.673  45.430 -14.561  0.00  0.00    +0.076 C 
ATOM     14  C   UNL     1     -17.880  46.536 -13.876  0.00  0.00    +0.075 C 
ATOM     15  C   UNL     1     -18.078  46.501 -12.363  0.00  0.00    +0.073 C 
ATOM     16  C   UNL     1     -17.689  45.144 -11.774  0.00  0.00    +0.107 C 
ENDBRANCH   3  11
BRANCH   1  17
ATOM     17  O   UNL     1     -19.851  39.731 -12.633  0.00  0.00    -0.605 OA
ATOM     18  H   UNL     1     -20.788  39.806 -12.380  0.00  0.00    +0.312 HD
ENDBRANCH   1  17
TORSDOF 2
ENDMDL
MODEL 5
REMARK VINA RESULT:    -6.306      4.446      6.975
REMARK INTER + INTRA:          -7.086
REMARK INTER:                  -6.813
REMARK INTRA:                  -0.272
REMARK UNBOUND:                -0.227
REMARK  Name = 
REMARK  2 active torsions:
REMARK  status: ('A' for Active; 'I' for Inactive)
REMARK    1  A    between atoms: O_1  and  C_2
REMARK    2  A    between atoms: C_4  and  C_5
REMARK                            x       y       z     vdW  Elec       q    Type
REMARK                         _______ _______ _______ _____ _____    ______ ____
ROOT
ATOM      1  C   UNL     1     -17.402  43.275 -13.315  0.00  0.00    +0.480 C 
ATOM      2  N   UNL     1     -18.249  44.063 -13.879  0.00  0.00    -0.548 NA
ATOM      3  C   UNL     1     -19.392  43.436 -14.349  0.00  0.00    +0.354 C 
ATOM      4  N   UNL     1     -19.950  42.313 -13.768  0.00  0.00    -0.495 NA
ATOM      5  C   UNL     1     -19.103  41.518 -13.201  0.00  0.00    +0.410 C 
ATOM      6  N   UNL     1     -19.504  40.255 -12.714  0.00  0.00    -0.475 NA
ATOM      7  C   UNL     1     -18.578  39.645 -12.316  0.00  0.00    +0.257 C 
ATOM      8  C   UNL     1     -17.067  39.762 -12.096  0.00  0.00    -0.091 C 
ATOM      9  C   UNL     1     -16.813  40.870 -12.477  0.00  0.00    +0.076 C 
ATOM     10  C   UNL     1     -17.639  41.881 -13.038  0.00  0.00    -0.171 C 
ENDROOT
BRANCH   3  11
ATOM     11  C   UNL     1     -19.646  43.553 -15.844  0.00  0.00    +0.047 C 
ATOM     12  C   UNL     1     -19.333  44.997 -16.281  0.00  0.00    +0.117 C 
ATOM     13  C   UNL     1     -19.603  45.230 -17.759  0.00  0.00    +0.076 C 
ATOM     14  C   UNL     1     -21.030  44.837 -18.117  0.00  0.00    +0.075 C 
ATOM     15  C   UNL     1     -21.314  43.385 -17.740  0.00  0.00    +0.073 C 
ATOM     16  C   UNL     1     -21.064  43.128 -16.254  0.00  0.00    +0.107 C 
ENDBRANCH   3  11
BRANCH   1  17
ATOM     17  O   UNL     1     -16.203  43.745 -12.957  0.00  0.00    -0.605 OA
ATOM     18  H   UNL     1     -16.158  43.717 -11.985  0.00  0.00    +0.312 HD
ENDBRANCH   1  17
TORSDOF 2
ENDMDL
