MODEL 1
REMARK VINA RESULT:    -8.326      0.000      0.000
REMARK INTER + INTRA:         -11.797
REMARK INTER:                 -11.003
REMARK INTRA:                  -0.794
REMARK UNBOUND:                -0.794
REMARK  Name = 
REMARK  6 active torsions:
REMARK  status: ('A' for Active; 'I' for Inactive)
REMARK    1  A    between atoms: C_2  and  C_3
REMARK    2  A    between atoms: C_2  and  C_8
REMARK    3  A    between atoms: C_3  and  N_5
REMARK    4  A    between atoms: C_8  and  O_9
REMARK    5  A    between atoms: N_10  and  C_11
REMARK    6  A    between atoms: C_14  and  C_15
REMARK                            x       y       z     vdW  Elec       q    Type
REMARK                         _______ _______ _______ _____ _____    ______ ____
ROOT
ATOM      1  C   UNL     1     -19.138  40.563  -9.028  0.00  0.00    +0.502 A 
ATOM      2  C   UNL     1     -18.896  41.636  -8.159  0.00  0.00    +0.100 A 
ATOM      3  C   UNL     1     -19.935  42.162  -7.387  0.00  0.00    +0.212 A 
ATOM      4  C   UNL     1     -21.206  41.604  -7.496  0.00  0.00    -0.085 A 
ATOM      5  C   UNL     1     -21.418  40.589  -8.423  0.00  0.00    +0.422 A 
ATOM      6  N   UNL     1     -20.397  40.127  -9.162  0.00  0.00    -0.638 N 
ATOM      7  H   UNL     1     -20.598  39.401  -9.854  0.00  0.00    +0.328 HD
ENDROOT
BRANCH   4   8
ATOM      8  C   UNL     1     -22.369  42.048  -6.708  0.00  0.00    +0.642 C 
ATOM      9  N   UNL     1     -22.280  43.233  -6.040  0.00  0.00    -0.791 N 
ATOM     10  O   UNL     1     -23.352  41.324  -6.639  0.00  0.00    -0.444 OA
ATOM     11  H   UNL     1     -21.443  43.787  -5.934  0.00  0.00    +0.370 HD
ATOM     12  H   UNL     1     -23.074  43.501  -5.466  0.00  0.00    +0.404 HD
ENDBRANCH   4   8
BRANCH   1  14
ATOM     13  C   UNL     1     -17.665  40.489 -10.920  0.00  0.00    +0.533 C 
ATOM     14  N   UNL     1     -18.100  40.029  -9.791  0.00  0.00    -0.416 NA
BRANCH  13  16
ATOM     15  C   UNL     1     -17.290  43.020 -11.311  0.00  0.00    +0.156 C 
ATOM     16  C   UNL     1     -18.019  41.721 -11.679  0.00  0.00    -0.119 C 
BRANCH  16  17
ATOM     17  C   UNL     1     -19.121  41.697 -12.679  0.00  0.00    +0.617 C 
ATOM     18  O   UNL     1     -19.830  40.704 -12.785  0.00  0.00    -0.436 OA
BRANCH  17  19
ATOM     19  N   UNL     1     -19.238  42.893 -13.339  0.00  0.00    -0.627 NA
ATOM     20  C   UNL     1     -19.656  42.821 -14.429  0.00  0.00    +0.850 C 
ATOM     21  O   UNL     1     -20.092  42.785 -15.520  0.00  0.00    -0.450 OA
ENDBRANCH  17  19
ENDBRANCH  16  17
ENDBRANCH  13  16
BRANCH  13  22
ATOM     22  O   UNL     1     -16.689  39.767 -11.514  0.00  0.00    -0.519 OA
ATOM     23  H   UNL     1     -16.027  40.257 -12.041  0.00  0.00    +0.391 HD
ENDBRANCH  13  22
ENDBRANCH   1  14
TORSDOF 6
ENDMDL
MODEL 2
REMARK VINA RESULT:    -8.322      1.195      1.847
REMARK INTER + INTRA:         -11.791
REMARK INTER:                 -11.038
REMARK INTRA:                  -0.753
REMARK UNBOUND:                -0.794
REMARK  Name = 
REMARK  6 active torsions:
REMARK  status: ('A' for Active; 'I' for Inactive)
REMARK    1  A    between atoms: C_2  and  C_3
REMARK    2  A    between atoms: C_2  and  C_8
REMARK    3  A    between atoms: C_3  and  N_5
REMARK    4  A    between atoms: C_8  and  O_9
REMARK    5  A    between atoms: N_10  and  C_11
REMARK    6  A    between atoms: C_14  and  C_15
REMARK                            x       y       z     vdW  Elec       q    Type
REMARK                         _______ _______ _______ _____ _____    ______ ____
ROOT
ATOM      1  C   UNL     1     -18.878  40.816  -8.781  0.00  0.00    +0.502 A 
ATOM      2  C   UNL     1     -18.909  41.910  -7.905  0.00  0.00    +0.100 A 
ATOM      3  C   UNL     1     -20.103  42.269  -7.275  0.00  0.00    +0.212 A 
ATOM      4  C   UNL     1     -21.252  41.526  -7.529  0.00  0.00    -0.085 A 
ATOM      5  C   UNL     1     -21.192  40.494  -8.460  0.00  0.00    +0.422 A 
ATOM      6  N   UNL     1     -20.030  40.195  -9.061  0.00  0.00    -0.638 N 
ATOM      7  H   UNL     1     -20.032  39.449  -9.762  0.00  0.00    +0.328 HD
ENDROOT
BRANCH   4   8
ATOM      8  C   UNL     1     -22.556  41.786  -6.896  0.00  0.00    +0.642 C 
ATOM      9  N   UNL     1     -22.706  42.933  -6.175  0.00  0.00    -0.791 N 
ATOM     10  O   UNL     1     -23.442  40.949  -6.996  0.00  0.00    -0.444 OA
ATOM     11  H   UNL     1     -21.965  43.574  -5.931  0.00  0.00    +0.370 HD
ATOM     12  H   UNL     1     -23.597  43.073  -5.709  0.00  0.00    +0.404 HD
ENDBRANCH   4   8
BRANCH   1  14
ATOM     13  C   UNL     1     -17.280  40.834 -10.571  0.00  0.00    +0.533 C 
ATOM     14  N   UNL     1     -17.685  40.448  -9.404  0.00  0.00    -0.416 NA
BRANCH  13  16
ATOM     15  C   UNL     1     -17.522  43.302 -11.311  0.00  0.00    +0.156 C 
ATOM     16  C   UNL     1     -17.851  41.820 -11.531  0.00  0.00    -0.119 C 
BRANCH  16  17
ATOM     17  C   UNL     1     -18.794  41.376 -12.593  0.00  0.00    +0.617 C 
ATOM     18  O   UNL     1     -19.581  42.176 -13.085  0.00  0.00    -0.436 OA
BRANCH  17  19
ATOM     19  N   UNL     1     -18.592  40.067 -12.943  0.00  0.00    -0.627 NA
ATOM     20  C   UNL     1     -19.186  39.285 -12.308  0.00  0.00    +0.850 C 
ATOM     21  O   UNL     1     -19.785  38.475 -11.702  0.00  0.00    -0.450 OA
ENDBRANCH  17  19
ENDBRANCH  16  17
ENDBRANCH  13  16
BRANCH  13  22
ATOM     22  O   UNL     1     -16.118  40.296 -11.000  0.00  0.00    -0.519 OA
ATOM     23  H   UNL     1     -16.167  39.441 -11.472  0.00  0.00    +0.391 HD
ENDBRANCH  13  22
ENDBRANCH   1  14
TORSDOF 6
ENDMDL
MODEL 3
REMARK VINA RESULT:    -7.971      1.771      2.553
REMARK INTER + INTRA:         -11.328
REMARK INTER:                 -10.462
REMARK INTRA:                  -0.866
REMARK UNBOUND:                -0.794
REMARK  Name = 
REMARK  6 active torsions:
REMARK  status: ('A' for Active; 'I' for Inactive)
REMARK    1  A    between atoms: C_2  and  C_3
REMARK    2  A    between atoms: C_2  and  C_8
REMARK    3  A    between atoms: C_3  and  N_5
REMARK    4  A    between atoms: C_8  and  O_9
REMARK    5  A    between atoms: N_10  and  C_11
REMARK    6  A    between atoms: C_14  and  C_15
REMARK                            x       y       z     vdW  Elec       q    Type
REMARK                         _______ _______ _______ _____ _____    ______ ____
ROOT
ATOM      1  C   UNL     1     -19.418  40.452  -9.067  0.00  0.00    +0.502 A 
ATOM      2  C   UNL     1     -18.903  41.447  -8.225  0.00  0.00    +0.100 A 
ATOM      3  C   UNL     1     -19.745  42.112  -7.329  0.00  0.00    +0.212 A 
ATOM      4  C   UNL     1     -21.094  41.770  -7.288  0.00  0.00    -0.085 A 
ATOM      5  C   UNL     1     -21.575  40.829  -8.191  0.00  0.00    +0.422 A 
ATOM      6  N   UNL     1     -20.738  40.229  -9.052  0.00  0.00    -0.638 N 
ATOM      7  H   UNL     1     -21.134  39.564  -9.721  0.00  0.00    +0.328 HD
ENDROOT
BRANCH   4   8
ATOM      8  C   UNL     1     -22.067  42.373  -6.362  0.00  0.00    +0.642 C 
ATOM      9  N   UNL     1     -21.593  43.113  -5.320  0.00  0.00    -0.791 N 
ATOM     10  O   UNL     1     -23.259  42.154  -6.527  0.00  0.00    -0.444 OA
ATOM     11  H   UNL     1     -20.624  43.192  -5.049  0.00  0.00    +0.370 HD
ATOM     12  H   UNL     1     -22.276  43.483  -4.667  0.00  0.00    +0.404 HD
ENDBRANCH   4   8
BRANCH   1  14
ATOM     13  C   UNL     1     -18.149  40.227 -11.091  0.00  0.00    +0.533 C 
ATOM     14  N   UNL     1     -18.578  39.780  -9.954  0.00  0.00    -0.416 NA
BRANCH  13  16
ATOM     15  C   UNL     1     -19.411  41.723 -12.785  0.00  0.00    +0.156 C 
ATOM     16  C   UNL     1     -18.300  41.559 -11.740  0.00  0.00    -0.119 C 
BRANCH  16  17
ATOM     17  C   UNL     1     -17.327  42.649 -11.454  0.00  0.00    +0.617 C 
ATOM     18  O   UNL     1     -17.731  43.756 -11.120  0.00  0.00    -0.436 OA
BRANCH  17  19
ATOM     19  N   UNL     1     -16.031  42.215 -11.545  0.00  0.00    -0.627 NA
ATOM     20  C   UNL     1     -15.229  43.060 -11.648  0.00  0.00    +0.850 C 
ATOM     21  O   UNL     1     -14.397  43.887 -11.732  0.00  0.00    -0.450 OA
ENDBRANCH  17  19
ENDBRANCH  16  17
ENDBRANCH  13  16
BRANCH  13  22
ATOM     22  O   UNL     1     -17.395  39.371 -11.815  0.00  0.00    -0.519 OA
ATOM     23  H   UNL     1     -17.034  38.590 -11.352  0.00  0.00    +0.391 HD
ENDBRANCH  13  22
ENDBRANCH   1  14
TORSDOF 6
ENDMDL
MODEL 4
REMARK VINA RESULT:    -6.171      2.828      6.538
REMARK INTER + INTRA:          -8.949
REMARK INTER:                  -8.125
REMARK INTRA:                  -0.823
REMARK UNBOUND:                -0.794
REMARK  Name = 
REMARK  6 active torsions:
REMARK  status: ('A' for Active; 'I' for Inactive)
REMARK    1  A    between atoms: C_2  and  C_3
REMARK    2  A    between atoms: C_2  and  C_8
REMARK    3  A    between atoms: C_3  and  N_5
REMARK    4  A    between atoms: C_8  and  O_9
REMARK    5  A    between atoms: N_10  and  C_11
REMARK    6  A    between atoms: C_14  and  C_15
REMARK                            x       y       z     vdW  Elec       q    Type
REMARK                         _______ _______ _______ _____ _____    ______ ____
ROOT
ATOM      1  C   UNL     1     -17.769  43.123 -12.600  0.00  0.00    +0.502 A 
ATOM      2  C   UNL     1     -17.991  44.331 -11.926  0.00  0.00    +0.100 A 
ATOM      3  C   UNL     1     -16.951  45.251 -11.775  0.00  0.00    +0.212 A 
ATOM      4  C   UNL     1     -15.699  44.949 -12.302  0.00  0.00    -0.085 A 
ATOM      5  C   UNL     1     -15.504  43.708 -12.900  0.00  0.00    +0.422 A 
ATOM      6  N   UNL     1     -16.524  42.842 -13.005  0.00  0.00    -0.638 N 
ATOM      7  H   UNL     1     -16.335  41.928 -13.423  0.00  0.00    +0.328 HD
ENDROOT
BRANCH   4   8
ATOM      8  C   UNL     1     -14.539  45.854 -12.238  0.00  0.00    +0.642 C 
ATOM      9  N   UNL     1     -14.426  46.825 -13.188  0.00  0.00    -0.791 N 
ATOM     10  O   UNL     1     -13.695  45.678 -11.371  0.00  0.00    -0.444 OA
ATOM     11  H   UNL     1     -15.004  46.913 -14.011  0.00  0.00    +0.370 HD
ATOM     12  H   UNL     1     -13.597  47.411 -13.154  0.00  0.00    +0.404 HD
ENDBRANCH   4   8
BRANCH   1  14
ATOM     13  C   UNL     1     -18.972  41.109 -12.096  0.00  0.00    +0.533 C 
ATOM     14  N   UNL     1     -18.808  42.207 -12.762  0.00  0.00    -0.416 NA
BRANCH  13  16
ATOM     15  C   UNL     1     -16.924  39.789 -11.222  0.00  0.00    +0.156 C 
ATOM     16  C   UNL     1     -18.228  40.546 -10.935  0.00  0.00    -0.119 C 
BRANCH  16  17
ATOM     17  C   UNL     1     -18.799  40.628  -9.563  0.00  0.00    +0.617 C 
ATOM     18  O   UNL     1     -18.197  41.235  -8.685  0.00  0.00    -0.436 OA
BRANCH  17  19
ATOM     19  N   UNL     1     -20.032  40.033  -9.486  0.00  0.00    -0.627 NA
ATOM     20  C   UNL     1     -20.775  40.525  -8.728  0.00  0.00    +0.850 C 
ATOM     21  O   UNL     1     -21.552  41.008  -7.990  0.00  0.00    -0.450 OA
ENDBRANCH  17  19
ENDBRANCH  16  17
ENDBRANCH  13  16
BRANCH  13  22
ATOM     22  O   UNL     1     -20.020  40.343 -12.470  0.00  0.00    -0.519 OA
ATOM     23  H   UNL     1     -20.817  40.365 -11.904  0.00  0.00    +0.391 HD
ENDBRANCH  13  22
ENDBRANCH   1  14
TORSDOF 6
ENDMDL
MODEL 5
REMARK VINA RESULT:    -5.717      2.868      6.146
REMARK INTER + INTRA:          -8.348
REMARK INTER:                  -7.629
REMARK INTRA:                  -0.720
REMARK UNBOUND:                -0.794
REMARK  Name = 
REMARK  6 active torsions:
REMARK  status: ('A' for Active; 'I' for Inactive)
REMARK    1  A    between atoms: C_2  and  C_3
REMARK    2  A    between atoms: C_2  and  C_8
REMARK    3  A    between atoms: C_3  and  N_5
REMARK    4  A    between atoms: C_8  and  O_9
REMARK    5  A    between atoms: N_10  and  C_11
REMARK    6  A    between atoms: C_14  and  C_15
REMARK                            x       y       z     vdW  Elec       q    Type
REMARK                         _______ _______ _______ _____ _____    ______ ____
ROOT
ATOM      1  C   UNL     1     -16.407  43.334 -12.214  0.00  0.00    +0.502 A 
ATOM      2  C   UNL     1     -17.240  44.059 -11.352  0.00  0.00    +0.100 A 
ATOM      3  C   UNL     1     -17.917  45.189 -11.817  0.00  0.00    +0.212 A 
ATOM      4  C   UNL     1     -17.750  45.579 -13.144  0.00  0.00    -0.085 A 
ATOM      5  C   UNL     1     -16.858  44.873 -13.944  0.00  0.00    +0.422 A 
ATOM      6  N   UNL     1     -16.210  43.806 -13.452  0.00  0.00    -0.638 N 
ATOM      7  H   UNL     1     -15.539  43.330 -14.061  0.00  0.00    +0.328 HD
ENDROOT
BRANCH   4   8
ATOM      8  C   UNL     1     -18.439  46.727 -13.756  0.00  0.00    +0.642 C 
ATOM      9  N   UNL     1     -18.960  46.575 -15.006  0.00  0.00    -0.791 N 
ATOM     10  O   UNL     1     -18.480  47.788 -13.150  0.00  0.00    -0.444 OA
ATOM     11  H   UNL     1     -18.817  45.778 -15.609  0.00  0.00    +0.370 HD
ATOM     12  H   UNL     1     -19.392  47.390 -15.430  0.00  0.00    +0.404 HD
ENDBRANCH   4   8
BRANCH   1  14
ATOM     13  C   UNL     1     -16.287  41.103 -11.340  0.00  0.00    +0.533 C 
ATOM     14  N   UNL     1     -15.738  42.199 -11.756  0.00  0.00    -0.416 NA
BRANCH  13  16
ATOM     15  C   UNL     1     -18.438  40.537 -12.663  0.00  0.00    +0.156 C 
ATOM     16  C   UNL     1     -17.710  40.665 -11.318  0.00  0.00    -0.119 C 
BRANCH  16  17
ATOM     17  C   UNL     1     -18.418  40.471 -10.023  0.00  0.00    +0.617 C 
ATOM     18  O   UNL     1     -17.802  40.570  -8.969  0.00  0.00    -0.436 OA
BRANCH  17  19
ATOM     19  N   UNL     1     -19.761  40.261 -10.200  0.00  0.00    -0.627 NA
ATOM     20  C   UNL     1     -20.423  40.452  -9.256  0.00  0.00    +0.850 C 
ATOM     21  O   UNL     1     -21.118  40.656  -8.330  0.00  0.00    -0.450 OA
ENDBRANCH  17  19
ENDBRANCH  16  17
ENDBRANCH  13  16
BRANCH  13  22
ATOM     22  O   UNL     1     -15.439  40.156 -10.880  0.00  0.00    -0.519 OA
ATOM     23  H   UNL     1     -14.979  39.606 -11.544  0.00  0.00    +0.391 HD
ENDBRANCH  13  22
ENDBRANCH   1  14
TORSDOF 6
ENDMDL
