MODEL 1
REMARK VINA RESULT:    -8.606      0.000      0.000
REMARK INTER + INTRA:          -9.373
REMARK INTER:                  -9.864
REMARK INTRA:                   0.490
REMARK UNBOUND:                 0.490
REMARK  Name = 
REMARK  3 active torsions:
REMARK  status: ('A' for Active; 'I' for Inactive)
REMARK    1  A    between atoms: N_1  and  C_2
REMARK    2  A    between atoms: C_2  and  C_4
REMARK    3  A    between atoms: N_8  and  C_9
REMARK                            x       y       z     vdW  Elec       q    Type
REMARK                         _______ _______ _______ _____ _____    ______ ____
ROOT
ATOM      1  C   UNL     1     -21.437  41.496  -7.422  0.00  0.00    -0.067 A 
ATOM      2  C   UNL     1     -20.282  42.232  -6.955  0.00  0.00    +0.216 A 
ATOM      3  C   UNL     1     -19.090  42.014  -7.530  0.00  0.00    +0.028 A 
ATOM      4  C   UNL     1     -18.977  41.019  -8.643  0.00  0.00    +0.574 A 
ATOM      5  N   UNL     1     -17.787  40.943  -9.221  0.00  0.00    -0.703 N 
ATOM      6  N   UNL     1     -20.060  40.323  -8.977  0.00  0.00    -0.668 N 
ATOM      7  C   UNL     1     -21.289  40.558  -8.370  0.00  0.00    +0.376 A 
ATOM      8  H   UNL     1     -17.024  41.415  -8.747  0.00  0.00    +0.328 HD
ATOM      9  H   UNL     1     -20.025  39.559  -9.635  0.00  0.00    +0.337 HD
ENDROOT
BRANCH   5  10
ATOM     10  C   UNL     1     -17.548  40.378 -10.453  0.00  0.00    +0.289 C 
ATOM     11  C   UNL     1     -16.986  41.217 -11.485  0.00  0.00    -0.020 C 
ATOM     12  C   UNL     1     -17.558  41.373 -12.918  0.00  0.00    +0.250 C 
ATOM     13  N   UNL     1     -18.736  40.750 -13.569  0.00  0.00    -0.775 N 
ATOM     14  C   UNL     1     -19.132  39.797 -12.504  0.00  0.00    +0.248 C 
ATOM     15  C   UNL     1     -18.583  39.574 -11.071  0.00  0.00    -0.029 C 
ATOM     16  H   UNL     1     -18.496  40.271 -14.445  0.00  0.00    +0.345 HD
ATOM     17  H   UNL     1     -19.473  41.447 -13.736  0.00  0.00    +0.342 HD
ENDBRANCH   5  10
BRANCH   1  18
ATOM     18  C   UNL     1     -22.836  41.715  -6.963  0.00  0.00    +0.563 C 
ATOM     19  O   UNL     1     -23.750  41.018  -7.377  0.00  0.00    -0.463 OA
BRANCH  18  20
ATOM     20  N   UNL     1     -22.949  42.737  -6.135  0.00  0.00    -0.517 NA
ATOM     21  H   UNL     1     -23.680  42.484  -5.459  0.00  0.00    +0.347 HD
ENDBRANCH  18  20
ENDBRANCH   1  18
TORSDOF 3
ENDMDL
MODEL 2
REMARK VINA RESULT:    -7.152      2.884      6.130
REMARK INTER + INTRA:          -7.707
REMARK INTER:                  -8.112
REMARK INTRA:                   0.405
REMARK UNBOUND:                 0.490
REMARK  Name = 
REMARK  3 active torsions:
REMARK  status: ('A' for Active; 'I' for Inactive)
REMARK    1  A    between atoms: N_1  and  C_2
REMARK    2  A    between atoms: C_2  and  C_4
REMARK    3  A    between atoms: N_8  and  C_9
REMARK                            x       y       z     vdW  Elec       q    Type
REMARK                         _______ _______ _______ _____ _____    ______ ____
ROOT
ATOM      1  C   UNL     1     -18.160  42.484 -12.657  0.00  0.00    -0.067 A 
ATOM      2  C   UNL     1     -18.938  41.372 -13.159  0.00  0.00    +0.216 A 
ATOM      3  C   UNL     1     -19.484  40.509 -12.290  0.00  0.00    +0.028 A 
ATOM      4  C   UNL     1     -19.282  40.713 -10.821  0.00  0.00    +0.574 A 
ATOM      5  N   UNL     1     -19.941  39.875 -10.033  0.00  0.00    -0.703 N 
ATOM      6  N   UNL     1     -18.497  41.712 -10.425  0.00  0.00    -0.668 N 
ATOM      7  C   UNL     1     -17.936  42.597 -11.339  0.00  0.00    +0.376 A 
ATOM      8  H   UNL     1     -20.362  39.069 -10.483  0.00  0.00    +0.328 HD
ATOM      9  H   UNL     1     -18.227  41.833  -9.462  0.00  0.00    +0.337 HD
ENDROOT
BRANCH   5  10
ATOM     10  C   UNL     1     -20.183  40.083  -8.695  0.00  0.00    +0.289 C 
ATOM     11  C   UNL     1     -21.521  40.456  -8.299  0.00  0.00    -0.020 C 
ATOM     12  C   UNL     1     -21.881  41.670  -7.403  0.00  0.00    +0.250 C 
ATOM     13  N   UNL     1     -21.021  42.689  -6.754  0.00  0.00    -0.775 N 
ATOM     14  C   UNL     1     -19.687  42.127  -7.072  0.00  0.00    +0.248 C 
ATOM     15  C   UNL     1     -19.267  40.907  -7.933  0.00  0.00    -0.029 C 
ATOM     16  H   UNL     1     -21.181  42.753  -5.741  0.00  0.00    +0.345 HD
ATOM     17  H   UNL     1     -21.151  43.610  -7.192  0.00  0.00    +0.342 HD
ENDBRANCH   5  10
BRANCH   1  18
ATOM     18  C   UNL     1     -17.597  43.582 -13.490  0.00  0.00    +0.563 C 
ATOM     19  O   UNL     1     -16.480  44.028 -13.271  0.00  0.00    -0.463 OA
BRANCH  18  20
ATOM     20  N   UNL     1     -18.439  44.010 -14.411  0.00  0.00    -0.517 NA
ATOM     21  H   UNL     1     -18.311  43.400 -15.229  0.00  0.00    +0.347 HD
ENDBRANCH  18  20
ENDBRANCH   1  18
TORSDOF 3
ENDMDL
MODEL 3
REMARK VINA RESULT:    -7.070      4.295      6.201
REMARK INTER + INTRA:          -7.613
REMARK INTER:                  -7.344
REMARK INTRA:                  -0.268
REMARK UNBOUND:                 0.490
REMARK  Name = 
REMARK  3 active torsions:
REMARK  status: ('A' for Active; 'I' for Inactive)
REMARK    1  A    between atoms: N_1  and  C_2
REMARK    2  A    between atoms: C_2  and  C_4
REMARK    3  A    between atoms: N_8  and  C_9
REMARK                            x       y       z     vdW  Elec       q    Type
REMARK                         _______ _______ _______ _____ _____    ______ ____
ROOT
ATOM      1  C   UNL     1     -18.347  41.900 -11.574  0.00  0.00    -0.067 A 
ATOM      2  C   UNL     1     -17.860  43.218 -11.919  0.00  0.00    +0.216 A 
ATOM      3  C   UNL     1     -18.114  43.710 -13.141  0.00  0.00    +0.028 A 
ATOM      4  C   UNL     1     -18.896  42.891 -14.120  0.00  0.00    +0.574 A 
ATOM      5  N   UNL     1     -19.188  43.495 -15.263  0.00  0.00    -0.703 N 
ATOM      6  N   UNL     1     -19.253  41.659 -13.767  0.00  0.00    -0.668 N 
ATOM      7  C   UNL     1     -18.980  41.162 -12.497  0.00  0.00    +0.376 A 
ATOM      8  H   UNL     1     -18.706  44.367 -15.448  0.00  0.00    +0.328 HD
ATOM      9  H   UNL     1     -19.677  41.016 -14.418  0.00  0.00    +0.337 HD
ENDROOT
BRANCH   5  10
ATOM     10  C   UNL     1     -20.166  43.083 -16.139  0.00  0.00    +0.289 C 
ATOM     11  C   UNL     1     -19.937  43.283 -17.551  0.00  0.00    -0.020 C 
ATOM     12  C   UNL     1     -20.927  43.972 -18.527  0.00  0.00    +0.250 C 
ATOM     13  N   UNL     1     -22.271  44.556 -18.298  0.00  0.00    -0.775 N 
ATOM     14  C   UNL     1     -22.479  44.152 -16.887  0.00  0.00    +0.248 C 
ATOM     15  C   UNL     1     -21.545  43.440 -15.875  0.00  0.00    -0.029 C 
ATOM     16  H   UNL     1     -22.985  44.161 -18.922  0.00  0.00    +0.345 HD
ATOM     17  H   UNL     1     -22.245  45.579 -18.392  0.00  0.00    +0.342 HD
ENDBRANCH   5  10
BRANCH   1  18
ATOM     18  C   UNL     1     -18.244  41.275 -10.226  0.00  0.00    +0.563 C 
ATOM     19  O   UNL     1     -18.608  40.123 -10.038  0.00  0.00    -0.463 OA
BRANCH  18  20
ATOM     20  N   UNL     1     -17.780  42.104  -9.311  0.00  0.00    -0.517 NA
ATOM     21  H   UNL     1     -17.832  41.606  -8.414  0.00  0.00    +0.347 HD
ENDBRANCH  18  20
ENDBRANCH   1  18
TORSDOF 3
ENDMDL
MODEL 4
REMARK VINA RESULT:    -6.363      4.914      7.700
REMARK INTER + INTRA:          -6.802
REMARK INTER:                  -6.540
REMARK INTRA:                  -0.262
REMARK UNBOUND:                 0.490
REMARK  Name = 
REMARK  3 active torsions:
REMARK  status: ('A' for Active; 'I' for Inactive)
REMARK    1  A    between atoms: N_1  and  C_2
REMARK    2  A    between atoms: C_2  and  C_4
REMARK    3  A    between atoms: N_8  and  C_9
REMARK                            x       y       z     vdW  Elec       q    Type
REMARK                         _______ _______ _______ _____ _____    ______ ____
ROOT
ATOM      1  C   UNL     1     -20.542  44.340 -16.914  0.00  0.00    -0.067 A 
ATOM      2  C   UNL     1     -19.571  45.220 -16.302  0.00  0.00    +0.216 A 
ATOM      3  C   UNL     1     -18.949  44.830 -15.180  0.00  0.00    +0.028 A 
ATOM      4  C   UNL     1     -19.267  43.493 -14.585  0.00  0.00    +0.574 A 
ATOM      5  N   UNL     1     -18.532  43.146 -13.538  0.00  0.00    -0.703 N 
ATOM      6  N   UNL     1     -20.221  42.761 -15.155  0.00  0.00    -0.668 N 
ATOM      7  C   UNL     1     -20.859  43.181 -16.317  0.00  0.00    +0.376 A 
ATOM      8  H   UNL     1     -17.964  43.876 -13.123  0.00  0.00    +0.328 HD
ATOM      9  H   UNL     1     -20.563  41.909 -14.740  0.00  0.00    +0.337 HD
ENDROOT
BRANCH   5  10
ATOM     10  C   UNL     1     -18.405  41.861 -13.061  0.00  0.00    +0.289 C 
ATOM     11  C   UNL     1     -19.197  41.484 -11.913  0.00  0.00    -0.020 C 
ATOM     12  C   UNL     1     -18.643  40.818 -10.627  0.00  0.00    +0.250 C 
ATOM     13  N   UNL     1     -17.265  40.413 -10.257  0.00  0.00    -0.775 N 
ATOM     14  C   UNL     1     -16.575  40.678 -11.542  0.00  0.00    +0.248 C 
ATOM     15  C   UNL     1     -17.079  41.310 -12.865  0.00  0.00    -0.029 C 
ATOM     16  H   UNL     1     -17.204  39.424  -9.984  0.00  0.00    +0.345 HD
ATOM     17  H   UNL     1     -16.896  41.011  -9.507  0.00  0.00    +0.342 HD
ENDBRANCH   5  10
BRANCH   1  18
ATOM     18  C   UNL     1     -21.220  44.586 -18.216  0.00  0.00    +0.563 C 
ATOM     19  O   UNL     1     -21.656  45.692 -18.499  0.00  0.00    -0.463 OA
BRANCH  18  20
ATOM     20  N   UNL     1     -21.322  43.497 -18.955  0.00  0.00    -0.517 NA
ATOM     21  H   UNL     1     -20.364  43.231 -19.214  0.00  0.00    +0.347 HD
ENDBRANCH  18  20
ENDBRANCH   1  18
TORSDOF 3
ENDMDL
MODEL 5
REMARK VINA RESULT:    -6.210      5.756      8.533
REMARK INTER + INTRA:          -6.627
REMARK INTER:                  -6.350
REMARK INTRA:                  -0.277
REMARK UNBOUND:                 0.490
REMARK  Name = 
REMARK  3 active torsions:
REMARK  status: ('A' for Active; 'I' for Inactive)
REMARK    1  A    between atoms: N_1  and  C_2
REMARK    2  A    between atoms: C_2  and  C_4
REMARK    3  A    between atoms: N_8  and  C_9
REMARK                            x       y       z     vdW  Elec       q    Type
REMARK                         _______ _______ _______ _____ _____    ______ ____
ROOT
ATOM      1  C   UNL     1     -20.896  44.203 -17.996  0.00  0.00    -0.067 A 
ATOM      2  C   UNL     1     -21.930  43.941 -17.018  0.00  0.00    +0.216 A 
ATOM      3  C   UNL     1     -21.597  43.379 -15.847  0.00  0.00    +0.028 A 
ATOM      4  C   UNL     1     -20.165  43.037 -15.572  0.00  0.00    +0.574 A 
ATOM      5  N   UNL     1     -19.912  42.583 -14.353  0.00  0.00    -0.703 N 
ATOM      6  N   UNL     1     -19.274  43.236 -16.539  0.00  0.00    -0.668 N 
ATOM      7  C   UNL     1     -19.635  43.818 -17.749  0.00  0.00    +0.376 A 
ATOM      8  H   UNL     1     -20.717  42.331 -13.789  0.00  0.00    +0.328 HD
ATOM      9  H   UNL     1     -18.319  42.921 -16.461  0.00  0.00    +0.337 HD
ENDROOT
BRANCH   5  10
ATOM     10  C   UNL     1     -18.664  42.541 -13.776  0.00  0.00    +0.289 C 
ATOM     11  C   UNL     1     -18.231  41.294 -13.189  0.00  0.00    -0.020 C 
ATOM     12  C   UNL     1     -17.667  41.132 -11.753  0.00  0.00    +0.250 C 
ATOM     13  N   UNL     1     -17.431  42.129 -10.682  0.00  0.00    -0.775 N 
ATOM     14  C   UNL     1     -17.737  43.372 -11.429  0.00  0.00    +0.248 C 
ATOM     15  C   UNL     1     -18.272  43.599 -12.867  0.00  0.00    -0.029 C 
ATOM     16  H   UNL     1     -16.463  42.116 -10.337  0.00  0.00    +0.345 HD
ATOM     17  H   UNL     1     -18.087  41.992  -9.903  0.00  0.00    +0.342 HD
ENDBRANCH   5  10
BRANCH   1  18
ATOM     18  C   UNL     1     -21.097  44.924 -19.283  0.00  0.00    +0.563 C 
ATOM     19  O   UNL     1     -20.548  44.545 -20.307  0.00  0.00    -0.463 OA
BRANCH  18  20
ATOM     20  N   UNL     1     -21.863  45.990 -19.158  0.00  0.00    -0.517 NA
ATOM     21  H   UNL     1     -22.648  45.715 -18.554  0.00  0.00    +0.347 HD
ENDBRANCH  18  20
ENDBRANCH   1  18
TORSDOF 3
ENDMDL
