MODEL 1
REMARK VINA RESULT:    -8.312      0.000      0.000
REMARK INTER + INTRA:         -11.568
REMARK INTER:                 -10.742
REMARK INTRA:                  -0.827
REMARK UNBOUND:                -0.827
REMARK  Name = 
REMARK  6 active torsions:
REMARK  status: ('A' for Active; 'I' for Inactive)
REMARK    1  A    between atoms: C_1  and  C_2
REMARK    2  A    between atoms: C_2  and  C_3
REMARK    3  A    between atoms: C_7  and  C_8
REMARK    4  A    between atoms: C_14  and  C_15
REMARK    5  A    between atoms: N_17  and  C_18
REMARK    6  A    between atoms: C_18  and  C_19
REMARK                            x       y       z     vdW  Elec       q    Type
REMARK                         _______ _______ _______ _____ _____    ______ ____
ROOT
ATOM      1  C   UNL     1     -19.834  43.455 -16.042  0.00  0.00    +0.521 C 
ATOM      2  O   UNL     1     -20.421  42.395 -16.223  0.00  0.00    -0.477 OA
ATOM      3  N   UNL     1     -19.206  43.869 -14.850  0.00  0.00    -0.531 N 
ATOM      4  C   UNL     1     -18.794  45.155 -14.585  0.00  0.00    +0.218 C 
ATOM      5  C   UNL     1     -18.254  45.797 -13.734  0.00  0.00    -0.060 C 
ATOM      6  C   UNL     1     -17.960  44.779 -12.659  0.00  0.00    +0.072 C 
ATOM      7  C   UNL     1     -18.181  43.496 -12.570  0.00  0.00    -0.158 C 
ATOM      8  C   UNL     1     -18.848  42.888 -13.835  0.00  0.00    +0.455 C 
ATOM      9  N   UNL     1     -19.048  41.628 -14.009  0.00  0.00    -0.487 NA
ATOM     10  H   UNL     1     -18.726  41.087 -13.185  0.00  0.00    +0.325 HD
ENDROOT
BRANCH   1  15
ATOM     11  C   UNL     1     -20.947  45.139 -17.640  0.00  0.00    +0.235 A 
ATOM     12  N   UNL     1     -20.507  45.940 -18.724  0.00  0.00    -0.391 N 
ATOM     13  N   UNL     1     -19.197  45.747 -18.920  0.00  0.00    -0.349 N 
ATOM     14  C   UNL     1     -18.719  44.825 -17.978  0.00  0.00    +0.245 A 
ATOM     15  C   UNL     1     -19.807  44.385 -17.155  0.00  0.00    -0.102 A 
ATOM     16  H   UNL     1     -21.089  46.575 -19.277  0.00  0.00    +0.269 HD
ATOM     17  H   UNL     1     -18.650  46.215 -19.648  0.00  0.00    +0.269 HD
BRANCH  11  19
ATOM     18  C   UNL     1     -23.158  46.270 -17.640  0.00  0.00    +0.286 C 
ATOM     19  C   UNL     1     -22.341  45.085 -17.160  0.00  0.00    +0.157 C 
ENDBRANCH  11  19
ENDBRANCH   1  15
BRANCH   7  20
ATOM     20  C   UNL     1     -17.840  42.695 -11.375  0.00  0.00    +0.546 C 
ATOM     21  O   UNL     1     -16.846  42.972 -10.713  0.00  0.00    -0.507 OA
ATOM     22  N   UNL     1     -18.689  41.652 -11.098  0.00  0.00    -0.627 N 
ATOM     23  H   UNL     1     -19.522  41.489 -11.647  0.00  0.00    +0.300 HD
BRANCH  22  24
ATOM     24  C   UNL     1     -18.477  40.775  -9.971  0.00  0.00    +0.316 C 
BRANCH  24  25
ATOM     25  C   UNL     1     -19.457  41.076  -8.869  0.00  0.00    +0.056 A 
ATOM     26  C   UNL     1     -19.093  41.924  -7.813  0.00  0.00    +0.072 A 
ATOM     27  C   UNL     1     -20.014  42.252  -6.817  0.00  0.00    +0.101 A 
ATOM     28  C   UNL     1     -21.302  41.721  -6.856  0.00  0.00    +0.091 A 
ATOM     29  C   UNL     1     -21.663  40.845  -7.878  0.00  0.00    +0.099 A 
ATOM     30  C   UNL     1     -20.744  40.517  -8.876  0.00  0.00    +0.055 A 
ENDBRANCH  24  25
ENDBRANCH  22  24
ENDBRANCH   7  20
TORSDOF 5
ENDMDL
MODEL 2
REMARK VINA RESULT:    -8.047      3.337      8.999
REMARK INTER + INTRA:         -11.226
REMARK INTER:                 -10.521
REMARK INTRA:                  -0.705
REMARK UNBOUND:                -0.827
REMARK  Name = 
REMARK  6 active torsions:
REMARK  status: ('A' for Active; 'I' for Inactive)
REMARK    1  A    between atoms: C_1  and  C_2
REMARK    2  A    between atoms: C_2  and  C_3
REMARK    3  A    between atoms: C_7  and  C_8
REMARK    4  A    between atoms: C_14  and  C_15
REMARK    5  A    between atoms: N_17  and  C_18
REMARK    6  A    between atoms: C_18  and  C_19
REMARK                            x       y       z     vdW  Elec       q    Type
REMARK                         _______ _______ _______ _____ _____    ______ ____
ROOT
ATOM      1  C   UNL     1     -16.852  41.801 -11.794  0.00  0.00    +0.521 C 
ATOM      2  O   UNL     1     -15.774  41.549 -11.271  0.00  0.00    -0.477 OA
ATOM      3  N   UNL     1     -17.167  42.949 -12.549  0.00  0.00    -0.531 N 
ATOM      4  C   UNL     1     -18.442  43.338 -12.893  0.00  0.00    +0.218 C 
ATOM      5  C   UNL     1     -19.016  44.196 -13.496  0.00  0.00    -0.060 C 
ATOM      6  C   UNL     1     -17.900  45.070 -14.014  0.00  0.00    +0.072 C 
ATOM      7  C   UNL     1     -16.601  45.004 -13.907  0.00  0.00    -0.158 C 
ATOM      8  C   UNL     1     -16.101  43.762 -13.118  0.00  0.00    +0.455 C 
ATOM      9  N   UNL     1     -14.861  43.439 -12.994  0.00  0.00    -0.487 NA
ATOM     10  H   UNL     1     -14.251  44.131 -13.468  0.00  0.00    +0.325 HD
ENDROOT
BRANCH   1  15
ATOM     11  C   UNL     1     -18.705  40.701 -10.384  0.00  0.00    +0.235 A 
ATOM     12  N   UNL     1     -19.646  39.662 -10.593  0.00  0.00    -0.391 N 
ATOM     13  N   UNL     1     -19.504  39.172 -11.830  0.00  0.00    -0.349 N 
ATOM     14  C   UNL     1     -18.479  39.867 -12.488  0.00  0.00    +0.245 A 
ATOM     15  C   UNL     1     -17.917  40.836 -11.594  0.00  0.00    -0.102 A 
ATOM     16  H   UNL     1     -20.335  39.329  -9.913  0.00  0.00    +0.269 HD
ATOM     17  H   UNL     1     -20.072  38.413 -12.216  0.00  0.00    +0.269 HD
BRANCH  11  19
ATOM     18  C   UNL     1     -19.376  40.838  -7.996  0.00  0.00    +0.286 C 
ATOM     19  C   UNL     1     -18.563  41.453  -9.122  0.00  0.00    +0.157 C 
ENDBRANCH  11  19
ENDBRANCH   1  15
BRANCH   7  20
ATOM     20  C   UNL     1     -15.688  46.021 -14.471  0.00  0.00    +0.546 C 
ATOM     21  O   UNL     1     -15.044  46.750 -13.725  0.00  0.00    -0.507 OA
ATOM     22  N   UNL     1     -15.645  46.084 -15.842  0.00  0.00    -0.627 N 
ATOM     23  H   UNL     1     -16.162  45.432 -16.417  0.00  0.00    +0.300 HD
BRANCH  22  24
ATOM     24  C   UNL     1     -14.809  47.035 -16.536  0.00  0.00    +0.316 C 
BRANCH  24  25
ATOM     25  C   UNL     1     -14.580  46.605 -17.960  0.00  0.00    +0.056 A 
ATOM     26  C   UNL     1     -13.313  46.750 -18.545  0.00  0.00    +0.072 A 
ATOM     27  C   UNL     1     -13.078  46.304 -19.846  0.00  0.00    +0.101 A 
ATOM     28  C   UNL     1     -14.110  45.725 -20.582  0.00  0.00    +0.091 A 
ATOM     29  C   UNL     1     -15.383  45.612 -20.026  0.00  0.00    +0.099 A 
ATOM     30  C   UNL     1     -15.621  46.057 -18.725  0.00  0.00    +0.055 A 
ENDBRANCH  24  25
ENDBRANCH  22  24
ENDBRANCH   7  20
TORSDOF 5
ENDMDL
MODEL 3
REMARK VINA RESULT:    -7.885      2.037      8.107
REMARK INTER + INTRA:         -11.016
REMARK INTER:                 -10.613
REMARK INTRA:                  -0.403
REMARK UNBOUND:                -0.827
REMARK  Name = 
REMARK  6 active torsions:
REMARK  status: ('A' for Active; 'I' for Inactive)
REMARK    1  A    between atoms: C_1  and  C_2
REMARK    2  A    between atoms: C_2  and  C_3
REMARK    3  A    between atoms: C_7  and  C_8
REMARK    4  A    between atoms: C_14  and  C_15
REMARK    5  A    between atoms: N_17  and  C_18
REMARK    6  A    between atoms: C_18  and  C_19
REMARK                            x       y       z     vdW  Elec       q    Type
REMARK                         _______ _______ _______ _____ _____    ______ ____
ROOT
ATOM      1  C   UNL     1     -19.225  41.230 -12.142  0.00  0.00    +0.521 C 
ATOM      2  O   UNL     1     -19.746  40.374 -12.847  0.00  0.00    -0.477 OA
ATOM      3  N   UNL     1     -18.823  42.517 -12.551  0.00  0.00    -0.531 N 
ATOM      4  C   UNL     1     -18.006  43.353 -11.824  0.00  0.00    +0.218 C 
ATOM      5  C   UNL     1     -17.515  44.441 -11.876  0.00  0.00    -0.060 C 
ATOM      6  C   UNL     1     -18.024  44.996 -13.183  0.00  0.00    +0.072 C 
ATOM      7  C   UNL     1     -18.813  44.512 -14.103  0.00  0.00    -0.158 C 
ATOM      8  C   UNL     1     -19.363  43.097 -13.773  0.00  0.00    +0.455 C 
ATOM      9  N   UNL     1     -20.246  42.484 -14.482  0.00  0.00    -0.487 NA
ATOM     10  H   UNL     1     -20.515  43.052 -15.307  0.00  0.00    +0.325 HD
ENDROOT
BRANCH   1  15
ATOM     11  C   UNL     1     -17.668  40.599 -10.191  0.00  0.00    +0.235 A 
ATOM     12  N   UNL     1     -17.846  40.305  -8.816  0.00  0.00    -0.391 N 
ATOM     13  N   UNL     1     -19.143  40.397  -8.503  0.00  0.00    -0.349 N 
ATOM     14  C   UNL     1     -19.870  40.759  -9.646  0.00  0.00    +0.245 A 
ATOM     15  C   UNL     1     -18.974  40.873 -10.759  0.00  0.00    -0.102 A 
ATOM     16  H   UNL     1     -17.105  40.063  -8.152  0.00  0.00    +0.269 HD
ATOM     17  H   UNL     1     -19.522  40.229  -7.567  0.00  0.00    +0.269 HD
BRANCH  11  19
ATOM     18  C   UNL     1     -16.335  39.549 -12.005  0.00  0.00    +0.286 C 
ATOM     19  C   UNL     1     -16.365  40.573 -10.885  0.00  0.00    +0.157 C 
ENDBRANCH  11  19
ENDBRANCH   1  15
BRANCH   7  20
ATOM     20  C   UNL     1     -19.143  45.235 -15.350  0.00  0.00    +0.546 C 
ATOM     21  O   UNL     1     -18.994  46.450 -15.413  0.00  0.00    -0.507 OA
ATOM     22  N   UNL     1     -19.627  44.459 -16.374  0.00  0.00    -0.627 N 
ATOM     23  H   UNL     1     -19.691  43.454 -16.291  0.00  0.00    +0.300 HD
BRANCH  22  24
ATOM     24  C   UNL     1     -20.004  45.026 -17.648  0.00  0.00    +0.316 C 
BRANCH  24  25
ATOM     25  C   UNL     1     -21.427  45.515 -17.616  0.00  0.00    +0.056 A 
ATOM     26  C   UNL     1     -21.732  46.826 -18.008  0.00  0.00    +0.072 A 
ATOM     27  C   UNL     1     -23.055  47.269 -18.033  0.00  0.00    +0.101 A 
ATOM     28  C   UNL     1     -24.085  46.412 -17.651  0.00  0.00    +0.091 A 
ATOM     29  C   UNL     1     -23.792  45.119 -17.220  0.00  0.00    +0.099 A 
ATOM     30  C   UNL     1     -22.469  44.674 -17.195  0.00  0.00    +0.055 A 
ENDBRANCH  24  25
ENDBRANCH  22  24
ENDBRANCH   7  20
TORSDOF 5
ENDMDL
MODEL 4
REMARK VINA RESULT:    -7.783      1.020      1.918
REMARK INTER + INTRA:         -10.885
REMARK INTER:                 -10.103
REMARK INTRA:                  -0.781
REMARK UNBOUND:                -0.827
REMARK  Name = 
REMARK  6 active torsions:
REMARK  status: ('A' for Active; 'I' for Inactive)
REMARK    1  A    between atoms: C_1  and  C_2
REMARK    2  A    between atoms: C_2  and  C_3
REMARK    3  A    between atoms: C_7  and  C_8
REMARK    4  A    between atoms: C_14  and  C_15
REMARK    5  A    between atoms: N_17  and  C_18
REMARK    6  A    between atoms: C_18  and  C_19
REMARK                            x       y       z     vdW  Elec       q    Type
REMARK                         _______ _______ _______ _____ _____    ______ ____
ROOT
ATOM      1  C   UNL     1     -20.656  43.685 -16.219  0.00  0.00    +0.521 C 
ATOM      2  O   UNL     1     -21.370  42.702 -16.071  0.00  0.00    -0.477 OA
ATOM      3  N   UNL     1     -19.647  44.125 -15.339  0.00  0.00    -0.531 N 
ATOM      4  C   UNL     1     -19.049  45.365 -15.385  0.00  0.00    +0.218 C 
ATOM      5  C   UNL     1     -18.208  46.007 -14.830  0.00  0.00    -0.060 C 
ATOM      6  C   UNL     1     -17.692  45.070 -13.767  0.00  0.00    +0.072 C 
ATOM      7  C   UNL     1     -17.999  43.843 -13.444  0.00  0.00    -0.158 C 
ATOM      8  C   UNL     1     -19.086  43.209 -14.355  0.00  0.00    +0.455 C 
ATOM      9  N   UNL     1     -19.453  41.977 -14.290  0.00  0.00    -0.487 NA
ATOM     10  H   UNL     1     -18.942  41.481 -13.535  0.00  0.00    +0.325 HD
ENDROOT
BRANCH   1  15
ATOM     11  C   UNL     1     -20.037  44.516 -18.577  0.00  0.00    +0.235 A 
ATOM     12  N   UNL     1     -20.615  45.411 -19.512  0.00  0.00    -0.391 N 
ATOM     13  N   UNL     1     -21.749  45.912 -19.010  0.00  0.00    -0.349 N 
ATOM     14  C   UNL     1     -21.972  45.368 -17.737  0.00  0.00    +0.245 A 
ATOM     15  C   UNL     1     -20.889  44.490 -17.403  0.00  0.00    -0.102 A 
ATOM     16  H   UNL     1     -20.235  45.645 -20.434  0.00  0.00    +0.269 HD
ATOM     17  H   UNL     1     -22.347  46.583 -19.500  0.00  0.00    +0.269 HD
BRANCH  11  19
ATOM     18  C   UNL     1     -17.746  44.644 -19.526  0.00  0.00    +0.286 C 
ATOM     19  C   UNL     1     -18.767  43.795 -18.791  0.00  0.00    +0.157 C 
ENDBRANCH  11  19
ENDBRANCH   1  15
BRANCH   7  20
ATOM     20  C   UNL     1     -17.379  43.124 -12.310  0.00  0.00    +0.546 C 
ATOM     21  O   UNL     1     -16.286  43.478 -11.882  0.00  0.00    -0.507 OA
ATOM     22  N   UNL     1     -18.097  42.064 -11.816  0.00  0.00    -0.627 N 
ATOM     23  H   UNL     1     -19.016  41.836 -12.172  0.00  0.00    +0.300 HD
BRANCH  22  24
ATOM     24  C   UNL     1     -17.614  41.260 -10.718  0.00  0.00    +0.316 C 
BRANCH  24  25
ATOM     25  C   UNL     1     -18.643  41.178  -9.622  0.00  0.00    +0.056 A 
ATOM     26  C   UNL     1     -18.580  42.052  -8.527  0.00  0.00    +0.072 A 
ATOM     27  C   UNL     1     -19.561  42.019  -7.536  0.00  0.00    +0.101 A 
ATOM     28  C   UNL     1     -20.605  41.100  -7.619  0.00  0.00    +0.091 A 
ATOM     29  C   UNL     1     -20.657  40.198  -8.681  0.00  0.00    +0.099 A 
ATOM     30  C   UNL     1     -19.677  40.231  -9.675  0.00  0.00    +0.055 A 
ENDBRANCH  24  25
ENDBRANCH  22  24
ENDBRANCH   7  20
TORSDOF 5
ENDMDL
MODEL 5
REMARK VINA RESULT:    -7.496      2.490      8.799
REMARK INTER + INTRA:         -10.513
REMARK INTER:                 -10.048
REMARK INTRA:                  -0.465
REMARK UNBOUND:                -0.827
REMARK  Name = 
REMARK  6 active torsions:
REMARK  status: ('A' for Active; 'I' for Inactive)
REMARK    1  A    between atoms: C_1  and  C_2
REMARK    2  A    between atoms: C_2  and  C_3
REMARK    3  A    between atoms: C_7  and  C_8
REMARK    4  A    between atoms: C_14  and  C_15
REMARK    5  A    between atoms: N_17  and  C_18
REMARK    6  A    between atoms: C_18  and  C_19
REMARK                            x       y       z     vdW  Elec       q    Type
REMARK                         _______ _______ _______ _____ _____    ______ ____
ROOT
ATOM      1  C   UNL     1     -19.151  41.179 -12.184  0.00  0.00    +0.521 C 
ATOM      2  O   UNL     1     -19.636  40.312 -12.901  0.00  0.00    -0.477 OA
ATOM      3  N   UNL     1     -18.721  42.457 -12.594  0.00  0.00    -0.531 N 
ATOM      4  C   UNL     1     -17.941  43.303 -11.839  0.00  0.00    +0.218 C 
ATOM      5  C   UNL     1     -17.443  44.389 -11.884  0.00  0.00    -0.060 C 
ATOM      6  C   UNL     1     -17.877  44.921 -13.227  0.00  0.00    +0.072 C 
ATOM      7  C   UNL     1     -18.617  44.422 -14.180  0.00  0.00    -0.158 C 
ATOM      8  C   UNL     1     -19.191  43.016 -13.854  0.00  0.00    +0.455 C 
ATOM      9  N   UNL     1     -20.037  42.393 -14.599  0.00  0.00    -0.487 NA
ATOM     10  H   UNL     1     -20.258  42.947 -15.448  0.00  0.00    +0.325 HD
ENDROOT
BRANCH   1  15
ATOM     11  C   UNL     1     -17.704  40.595 -10.137  0.00  0.00    +0.235 A 
ATOM     12  N   UNL     1     -17.958  40.322  -8.769  0.00  0.00    -0.391 N 
ATOM     13  N   UNL     1     -19.272  40.406  -8.534  0.00  0.00    -0.349 N 
ATOM     14  C   UNL     1     -19.935  40.744  -9.722  0.00  0.00    +0.245 A 
ATOM     15  C   UNL     1     -18.977  40.847 -10.783  0.00  0.00    -0.102 A 
ATOM     16  H   UNL     1     -17.255  40.097  -8.060  0.00  0.00    +0.269 HD
ATOM     17  H   UNL     1     -19.703  40.250  -7.618  0.00  0.00    +0.269 HD
BRANCH  11  19
ATOM     18  C   UNL     1     -16.265  39.539 -11.865  0.00  0.00    +0.286 C 
ATOM     19  C   UNL     1     -16.363  40.569 -10.754  0.00  0.00    +0.157 C 
ENDBRANCH  11  19
ENDBRANCH   1  15
BRANCH   7  20
ATOM     20  C   UNL     1     -18.876  45.123 -15.456  0.00  0.00    +0.546 C 
ATOM     21  O   UNL     1     -19.814  44.778 -16.166  0.00  0.00    -0.507 OA
ATOM     22  N   UNL     1     -18.000  46.134 -15.766  0.00  0.00    -0.627 N 
ATOM     23  H   UNL     1     -17.268  46.412 -15.128  0.00  0.00    +0.300 HD
BRANCH  22  24
ATOM     24  C   UNL     1     -18.120  46.899 -16.985  0.00  0.00    +0.316 C 
BRANCH  24  25
ATOM     25  C   UNL     1     -17.096  46.458 -17.996  0.00  0.00    +0.056 A 
ATOM     26  C   UNL     1     -17.495  45.759 -19.144  0.00  0.00    +0.072 A 
ATOM     27  C   UNL     1     -16.560  45.395 -20.113  0.00  0.00    +0.101 A 
ATOM     28  C   UNL     1     -15.214  45.709 -19.937  0.00  0.00    +0.091 A 
ATOM     29  C   UNL     1     -14.799  46.368 -18.781  0.00  0.00    +0.099 A 
ATOM     30  C   UNL     1     -15.733  46.735 -17.810  0.00  0.00    +0.055 A 
ENDBRANCH  24  25
ENDBRANCH  22  24
ENDBRANCH   7  20
TORSDOF 5
ENDMDL
