MODEL 1
REMARK VINA RESULT:    -8.751      0.000      0.000
REMARK INTER + INTRA:         -11.551
REMARK INTER:                 -11.053
REMARK INTRA:                  -0.497
REMARK UNBOUND:                -0.497
REMARK  Name = 
REMARK  5 active torsions:
REMARK  status: ('A' for Active; 'I' for Inactive)
REMARK    1  A    between atoms: N_1  and  C_2
REMARK    2  A    between atoms: C_2  and  C_4
REMARK    3  A    between atoms: C_7  and  N_8
REMARK    4  A    between atoms: N_16  and  C_17
REMARK    5  A    between atoms: C_17  and  C_18
REMARK                            x       y       z     vdW  Elec       q    Type
REMARK                         _______ _______ _______ _____ _____    ______ ____
ROOT
ATOM      1  C   UNL     1     -19.661  40.914 -12.182  0.00  0.00    -0.099 C 
ATOM      2  C   UNL     1     -19.442  41.993 -13.234  0.00  0.00    +0.154 C 
ATOM      3  C   UNL     1     -17.981  42.406 -13.344  0.00  0.00    +0.088 C 
ATOM      4  C   UNL     1     -17.343  42.762 -12.000  0.00  0.00    +0.364 C 
ATOM      5  N   UNL     1     -17.799  41.874 -10.932  0.00  0.00    -0.689 N 
ATOM      6  C   UNL     1     -18.926  41.190 -10.927  0.00  0.00    +0.538 C 
ATOM      7  N   UNL     1     -19.478  40.769  -9.796  0.00  0.00    -0.668 N 
ATOM      8  H   UNL     1     -17.211  41.790 -10.118  0.00  0.00    +0.298 HD
ATOM      9  H   UNL     1     -20.247  40.110  -9.947  0.00  0.00    +0.286 HD
ENDROOT
BRANCH   4  10
ATOM     10  N   UNL     1     -17.722  44.091 -11.490  0.00  0.00    -0.400 NA
ATOM     11  C   UNL     1     -18.486  44.862 -12.505  0.00  0.00    +0.084 C 
ATOM     12  C   UNL     1     -18.305  46.132 -13.366  0.00  0.00    -0.049 C 
ATOM     13  C   UNL     1     -16.953  46.841 -13.195  0.00  0.00    -0.013 C 
ATOM     14  C   UNL     1     -15.965  46.233 -12.189  0.00  0.00    -0.056 C 
ATOM     15  C   UNL     1     -16.508  44.973 -11.481  0.00  0.00    +0.099 C 
ENDBRANCH   4  10
BRANCH   1  16
ATOM     16  C   UNL     1     -19.153  39.537 -12.585  0.00  0.00    +0.542 C 
ATOM     17  O   UNL     1     -18.403  39.354 -13.532  0.00  0.00    -0.537 OA
BRANCH  16  18
ATOM     18  N   UNL     1     -19.570  38.611 -11.732  0.00  0.00    -0.646 NA
ATOM     19  H   UNL     1     -19.461  39.022 -10.796  0.00  0.00    +0.295 HD
ENDBRANCH  16  18
ENDBRANCH   1  16
BRANCH   7  20
ATOM     20  C   UNL     1     -19.064  41.162  -8.460  0.00  0.00    +0.224 C 
BRANCH  20  21
ATOM     21  C   UNL     1     -20.253  41.464  -7.594  0.00  0.00    +0.043 A 
ATOM     22  C   UNL     1     -20.097  42.175  -6.392  0.00  0.00    -0.008 A 
ATOM     23  C   UNL     1     -21.209  42.500  -5.616  0.00  0.00    +0.038 A 
ATOM     24  C   UNL     1     -22.489  42.132  -6.034  0.00  0.00    +0.026 A 
ATOM     25  C   UNL     1     -22.654  41.431  -7.226  0.00  0.00    +0.039 A 
ATOM     26  C   UNL     1     -21.549  41.100  -7.999  0.00  0.00    +0.050 A 
ENDBRANCH  20  21
ENDBRANCH   7  20
TORSDOF 5
ENDMDL
MODEL 2
REMARK VINA RESULT:    -7.712      2.322      3.706
REMARK INTER + INTRA:         -10.239
REMARK INTER:                  -8.991
REMARK INTRA:                  -1.248
REMARK UNBOUND:                -0.497
REMARK  Name = 
REMARK  5 active torsions:
REMARK  status: ('A' for Active; 'I' for Inactive)
REMARK    1  A    between atoms: N_1  and  C_2
REMARK    2  A    between atoms: C_2  and  C_4
REMARK    3  A    between atoms: C_7  and  N_8
REMARK    4  A    between atoms: N_16  and  C_17
REMARK    5  A    between atoms: C_17  and  C_18
REMARK                            x       y       z     vdW  Elec       q    Type
REMARK                         _______ _______ _______ _____ _____    ______ ____
ROOT
ATOM      1  C   UNL     1     -19.217  43.928 -13.552  0.00  0.00    -0.099 C 
ATOM      2  C   UNL     1     -18.414  45.220 -13.482  0.00  0.00    +0.154 C 
ATOM      3  C   UNL     1     -16.977  45.033 -13.948  0.00  0.00    +0.088 C 
ATOM      4  C   UNL     1     -16.261  43.863 -13.273  0.00  0.00    +0.364 C 
ATOM      5  N   UNL     1     -17.150  42.716 -13.090  0.00  0.00    -0.689 N 
ATOM      6  C   UNL     1     -18.466  42.765 -13.026  0.00  0.00    +0.538 C 
ATOM      7  N   UNL     1     -19.169  41.804 -12.441  0.00  0.00    -0.668 N 
ATOM      8  H   UNL     1     -16.722  41.811 -12.984  0.00  0.00    +0.298 HD
ATOM      9  H   UNL     1     -20.175  41.881 -12.614  0.00  0.00    +0.286 HD
ENDROOT
BRANCH   4  10
ATOM     10  N   UNL     1     -15.820  44.144 -11.896  0.00  0.00    -0.400 NA
ATOM     11  C   UNL     1     -14.726  45.150 -11.873  0.00  0.00    +0.084 C 
ATOM     12  C   UNL     1     -13.226  45.216 -11.510  0.00  0.00    -0.049 C 
ATOM     13  C   UNL     1     -12.611  43.881 -11.059  0.00  0.00    -0.013 C 
ATOM     14  C   UNL     1     -13.546  42.664 -10.997  0.00  0.00    -0.056 C 
ATOM     15  C   UNL     1     -15.001  42.988 -11.402  0.00  0.00    +0.099 C 
ENDBRANCH   4  10
BRANCH   1  16
ATOM     16  C   UNL     1     -19.580  43.495 -14.966  0.00  0.00    +0.542 C 
ATOM     17  O   UNL     1     -19.573  42.328 -15.327  0.00  0.00    -0.537 OA
BRANCH  16  18
ATOM     18  N   UNL     1     -19.970  44.533 -15.692  0.00  0.00    -0.646 NA
ATOM     19  H   UNL     1     -20.996  44.548 -15.633  0.00  0.00    +0.295 HD
ENDBRANCH  16  18
ENDBRANCH   1  16
BRANCH   7  20
ATOM     20  C   UNL     1     -18.616  40.727 -11.638  0.00  0.00    +0.224 C 
BRANCH  20  21
ATOM     21  C   UNL     1     -19.002  40.877 -10.194  0.00  0.00    +0.043 A 
ATOM     22  C   UNL     1     -18.393  41.856  -9.392  0.00  0.00    -0.008 A 
ATOM     23  C   UNL     1     -18.790  42.028  -8.066  0.00  0.00    +0.038 A 
ATOM     24  C   UNL     1     -19.806  41.237  -7.529  0.00  0.00    +0.026 A 
ATOM     25  C   UNL     1     -20.419  40.266  -8.318  0.00  0.00    +0.039 A 
ATOM     26  C   UNL     1     -20.022  40.087  -9.637  0.00  0.00    +0.050 A 
ENDBRANCH  20  21
ENDBRANCH   7  20
TORSDOF 5
ENDMDL
MODEL 3
REMARK VINA RESULT:    -7.681      3.368      5.934
REMARK INTER + INTRA:         -10.199
REMARK INTER:                  -9.039
REMARK INTRA:                  -1.160
REMARK UNBOUND:                -0.497
REMARK  Name = 
REMARK  5 active torsions:
REMARK  status: ('A' for Active; 'I' for Inactive)
REMARK    1  A    between atoms: N_1  and  C_2
REMARK    2  A    between atoms: C_2  and  C_4
REMARK    3  A    between atoms: C_7  and  N_8
REMARK    4  A    between atoms: N_16  and  C_17
REMARK    5  A    between atoms: C_17  and  C_18
REMARK                            x       y       z     vdW  Elec       q    Type
REMARK                         _______ _______ _______ _____ _____    ______ ____
ROOT
ATOM      1  C   UNL     1     -18.312  40.226 -12.617  0.00  0.00    -0.099 C 
ATOM      2  C   UNL     1     -16.856  39.955 -12.267  0.00  0.00    +0.154 C 
ATOM      3  C   UNL     1     -16.338  40.889 -11.182  0.00  0.00    +0.088 C 
ATOM      4  C   UNL     1     -16.605  42.368 -11.469  0.00  0.00    +0.364 C 
ATOM      5  N   UNL     1     -17.918  42.572 -12.079  0.00  0.00    -0.689 N 
ATOM      6  C   UNL     1     -18.602  41.671 -12.755  0.00  0.00    +0.538 C 
ATOM      7  N   UNL     1     -19.539  42.021 -13.628  0.00  0.00    -0.668 N 
ATOM      8  H   UNL     1     -18.330  43.488 -11.993  0.00  0.00    +0.298 HD
ATOM      9  H   UNL     1     -20.103  41.229 -13.948  0.00  0.00    +0.286 HD
ENDROOT
BRANCH   4  10
ATOM     10  N   UNL     1     -15.697  42.958 -12.466  0.00  0.00    -0.400 NA
ATOM     11  C   UNL     1     -14.396  43.337 -11.856  0.00  0.00    +0.084 C 
ATOM     12  C   UNL     1     -13.595  44.622 -11.549  0.00  0.00    -0.049 C 
ATOM     13  C   UNL     1     -14.302  45.931 -11.937  0.00  0.00    -0.013 C 
ATOM     14  C   UNL     1     -15.685  45.813 -12.595  0.00  0.00    -0.056 C 
ATOM     15  C   UNL     1     -16.154  44.353 -12.776  0.00  0.00    +0.099 C 
ENDBRANCH   4  10
BRANCH   1  16
ATOM     16  C   UNL     1     -19.304  39.774 -11.554  0.00  0.00    +0.542 C 
ATOM     17  O   UNL     1     -19.801  40.536 -10.739  0.00  0.00    -0.537 OA
BRANCH  16  18
ATOM     18  N   UNL     1     -19.597  38.489 -11.697  0.00  0.00    -0.646 NA
ATOM     19  H   UNL     1     -19.767  38.349 -12.701  0.00  0.00    +0.295 HD
ENDBRANCH  16  18
ENDBRANCH   1  16
BRANCH   7  20
ATOM     20  C   UNL     1     -19.785  43.372 -14.102  0.00  0.00    +0.224 C 
BRANCH  20  21
ATOM     21  C   UNL     1     -20.324  43.362 -15.504  0.00  0.00    +0.043 A 
ATOM     22  C   UNL     1     -21.707  43.446 -15.736  0.00  0.00    -0.008 A 
ATOM     23  C   UNL     1     -22.202  43.489 -17.039  0.00  0.00    +0.038 A 
ATOM     24  C   UNL     1     -21.325  43.462 -18.124  0.00  0.00    +0.026 A 
ATOM     25  C   UNL     1     -19.952  43.382 -17.904  0.00  0.00    +0.039 A 
ATOM     26  C   UNL     1     -19.455  43.333 -16.608  0.00  0.00    +0.050 A 
ENDBRANCH  20  21
ENDBRANCH   7  20
TORSDOF 5
ENDMDL
MODEL 4
REMARK VINA RESULT:    -7.241      3.606      7.545
REMARK INTER + INTRA:          -9.643
REMARK INTER:                  -8.491
REMARK INTRA:                  -1.152
REMARK UNBOUND:                -0.497
REMARK  Name = 
REMARK  5 active torsions:
REMARK  status: ('A' for Active; 'I' for Inactive)
REMARK    1  A    between atoms: N_1  and  C_2
REMARK    2  A    between atoms: C_2  and  C_4
REMARK    3  A    between atoms: C_7  and  N_8
REMARK    4  A    between atoms: N_16  and  C_17
REMARK    5  A    between atoms: C_17  and  C_18
REMARK                            x       y       z     vdW  Elec       q    Type
REMARK                         _______ _______ _______ _____ _____    ______ ____
ROOT
ATOM      1  C   UNL     1     -17.490  45.873 -13.440  0.00  0.00    -0.099 C 
ATOM      2  C   UNL     1     -17.352  45.544 -11.961  0.00  0.00    +0.154 C 
ATOM      3  C   UNL     1     -16.646  44.215 -11.727  0.00  0.00    +0.088 C 
ATOM      4  C   UNL     1     -17.241  43.057 -12.530  0.00  0.00    +0.364 C 
ATOM      5  N   UNL     1     -17.636  43.477 -13.874  0.00  0.00    -0.689 N 
ATOM      6  C   UNL     1     -17.931  44.707 -14.241  0.00  0.00    +0.538 C 
ATOM      7  N   UNL     1     -18.680  44.954 -15.308  0.00  0.00    -0.668 N 
ATOM      8  H   UNL     1     -17.709  42.760 -14.579  0.00  0.00    +0.298 HD
ATOM      9  H   UNL     1     -18.685  45.942 -15.574  0.00  0.00    +0.286 HD
ENDROOT
BRANCH   4  10
ATOM     10  N   UNL     1     -18.501  42.530 -11.979  0.00  0.00    -0.400 NA
ATOM     11  C   UNL     1     -18.266  41.765 -10.727  0.00  0.00    +0.084 C 
ATOM     12  C   UNL     1     -18.374  40.308 -10.227  0.00  0.00    -0.049 C 
ATOM     13  C   UNL     1     -18.825  39.292 -11.290  0.00  0.00    -0.013 C 
ATOM     14  C   UNL     1     -19.134  39.836 -12.692  0.00  0.00    -0.056 C 
ATOM     15  C   UNL     1     -18.946  41.364 -12.812  0.00  0.00    +0.099 C 
ENDBRANCH   4  10
BRANCH   1  16
ATOM     16  C   UNL     1     -16.188  46.283 -14.114  0.00  0.00    +0.542 C 
ATOM     17  O   UNL     1     -15.552  47.272 -13.786  0.00  0.00    -0.537 OA
BRANCH  16  18
ATOM     18  N   UNL     1     -15.824  45.388 -15.022  0.00  0.00    -0.646 NA
ATOM     19  H   UNL     1     -16.584  45.366 -15.714  0.00  0.00    +0.295 HD
ENDBRANCH  16  18
ENDBRANCH   1  16
BRANCH   7  20
ATOM     20  C   UNL     1     -19.424  43.959 -16.062  0.00  0.00    +0.224 C 
BRANCH  20  21
ATOM     21  C   UNL     1     -20.725  44.521 -16.560  0.00  0.00    +0.043 A 
ATOM     22  C   UNL     1     -21.908  43.771 -16.464  0.00  0.00    -0.008 A 
ATOM     23  C   UNL     1     -23.124  44.315 -16.879  0.00  0.00    +0.038 A 
ATOM     24  C   UNL     1     -23.175  45.616 -17.382  0.00  0.00    +0.026 A 
ATOM     25  C   UNL     1     -22.007  46.369 -17.478  0.00  0.00    +0.039 A 
ATOM     26  C   UNL     1     -20.794  45.829 -17.071  0.00  0.00    +0.050 A 
ENDBRANCH  20  21
ENDBRANCH   7  20
TORSDOF 5
ENDMDL
MODEL 5
REMARK VINA RESULT:    -6.848      3.147      5.600
REMARK INTER + INTRA:          -9.147
REMARK INTER:                  -7.936
REMARK INTRA:                  -1.211
REMARK UNBOUND:                -0.497
REMARK  Name = 
REMARK  5 active torsions:
REMARK  status: ('A' for Active; 'I' for Inactive)
REMARK    1  A    between atoms: N_1  and  C_2
REMARK    2  A    between atoms: C_2  and  C_4
REMARK    3  A    between atoms: C_7  and  N_8
REMARK    4  A    between atoms: N_16  and  C_17
REMARK    5  A    between atoms: C_17  and  C_18
REMARK                            x       y       z     vdW  Elec       q    Type
REMARK                         _______ _______ _______ _____ _____    ______ ____
ROOT
ATOM      1  C   UNL     1     -16.154  45.150 -13.977  0.00  0.00    -0.099 C 
ATOM      2  C   UNL     1     -16.312  46.084 -15.169  0.00  0.00    +0.154 C 
ATOM      3  C   UNL     1     -17.669  46.773 -15.187  0.00  0.00    +0.088 C 
ATOM      4  C   UNL     1     -18.848  45.809 -15.040  0.00  0.00    +0.364 C 
ATOM      5  N   UNL     1     -18.556  44.740 -14.086  0.00  0.00    -0.689 N 
ATOM      6  C   UNL     1     -17.355  44.315 -13.749  0.00  0.00    +0.538 C 
ATOM      7  N   UNL     1     -17.163  43.103 -13.243  0.00  0.00    -0.668 N 
ATOM      8  H   UNL     1     -19.341  44.272 -13.662  0.00  0.00    +0.298 HD
ATOM      9  H   UNL     1     -16.220  42.970 -12.869  0.00  0.00    +0.286 HD
ENDROOT
BRANCH   4  10
ATOM     10  N   UNL     1     -19.167  45.060 -16.267  0.00  0.00    -0.400 NA
ATOM     11  C   UNL     1     -20.227  45.741 -17.056  0.00  0.00    +0.084 C 
ATOM     12  C   UNL     1     -21.689  45.489 -17.483  0.00  0.00    -0.049 C 
ATOM     13  C   UNL     1     -22.303  44.185 -16.949  0.00  0.00    -0.013 C 
ATOM     14  C   UNL     1     -21.400  43.287 -16.090  0.00  0.00    -0.056 C 
ATOM     15  C   UNL     1     -19.975  43.850 -15.902  0.00  0.00    +0.099 C 
ENDBRANCH   4  10
BRANCH   1  16
ATOM     16  C   UNL     1     -15.969  45.863 -12.645  0.00  0.00    +0.542 C 
ATOM     17  O   UNL     1     -16.809  45.845 -11.758  0.00  0.00    -0.537 OA
BRANCH  16  18
ATOM     18  N   UNL     1     -14.767  46.418 -12.569  0.00  0.00    -0.646 NA
ATOM     19  H   UNL     1     -14.822  47.284 -13.121  0.00  0.00    +0.295 HD
ENDBRANCH  16  18
ENDBRANCH   1  16
BRANCH   7  20
ATOM     20  C   UNL     1     -18.158  42.046 -13.192  0.00  0.00    +0.224 C 
BRANCH  20  21
ATOM     21  C   UNL     1     -18.405  41.605 -11.777  0.00  0.00    +0.043 A 
ATOM     22  C   UNL     1     -17.889  42.345 -10.700  0.00  0.00    -0.008 A 
ATOM     23  C   UNL     1     -18.163  41.964  -9.387  0.00  0.00    +0.038 A 
ATOM     24  C   UNL     1     -18.965  40.850  -9.132  0.00  0.00    +0.026 A 
ATOM     25  C   UNL     1     -19.484  40.112 -10.193  0.00  0.00    +0.039 A 
ATOM     26  C   UNL     1     -19.208  40.485 -11.502  0.00  0.00    +0.050 A 
ENDBRANCH  20  21
ENDBRANCH   7  20
TORSDOF 5
ENDMDL
