MODEL 1
REMARK VINA RESULT:    -7.035      0.000      0.000
REMARK INTER + INTRA:          -8.715
REMARK INTER:                  -8.474
REMARK INTRA:                  -0.241
REMARK UNBOUND:                -0.241
REMARK  Name = 
REMARK  4 active torsions:
REMARK  status: ('A' for Active; 'I' for Inactive)
REMARK    1  A    between atoms: N_1  and  C_2
REMARK    2  A    between atoms: C_2  and  C_4
REMARK    3  A    between atoms: N_8  and  C_9
REMARK    4  A    between atoms: N_15  and  C_16
REMARK                            x       y       z     vdW  Elec       q    Type
REMARK                         _______ _______ _______ _____ _____    ______ ____
ROOT
ATOM      1  C   UNL     1     -19.845  43.718 -15.654  0.00  0.00    +0.242 C 
ATOM      2  C   UNL     1     -19.605  44.761 -16.623  0.00  0.00    -0.103 C 
ATOM      3  C   UNL     1     -20.732  45.362 -17.498  0.00  0.00    +0.204 C 
ATOM      4  N   UNL     1     -22.084  45.098 -17.526  0.00  0.00    -0.564 N 
ATOM      5  C   UNL     1     -23.060  45.995 -17.977  0.00  0.00    +0.711 C 
ATOM      6  O   UNL     1     -22.757  47.021 -18.584  0.00  0.00    -0.549 OA
ATOM      7  N   UNL     1     -24.351  45.632 -17.620  0.00  0.00    -0.740 N 
ATOM      8  C   UNL     1     -22.208  43.990 -16.721  0.00  0.00    +0.173 C 
ATOM      9  C   UNL     1     -21.207  43.257 -15.800  0.00  0.00    -0.077 C 
ATOM     10  H   UNL     1     -24.432  44.840 -16.997  0.00  0.00    +0.303 HD
ENDROOT
BRANCH   1  15
ATOM     11  C   UNL     1     -17.768  41.357 -11.693  0.00  0.00    -0.141 C 
ATOM     12  C   UNL     1     -18.657  40.861 -12.637  0.00  0.00    +0.066 C 
ATOM     13  C   UNL     1     -19.256  41.737 -13.530  0.00  0.00    -0.102 C 
ATOM     14  C   UNL     1     -18.939  43.091 -13.465  0.00  0.00    +0.412 C 
ATOM     15  N   UNL     1     -19.457  44.017 -14.379  0.00  0.00    -0.651 N 
ATOM     16  N   UNL     1     -18.114  43.605 -12.530  0.00  0.00    -0.468 NA
ATOM     17  C   UNL     1     -17.542  42.721 -11.667  0.00  0.00    +0.222 C 
ATOM     18  H   UNL     1     -18.954  44.888 -14.250  0.00  0.00    +0.304 HD
BRANCH  11  19
ATOM     19  C   UNL     1     -17.024  40.484 -10.767  0.00  0.00    +0.534 C 
ATOM     20  O   UNL     1     -16.103  39.803 -11.204  0.00  0.00    -0.530 OA
BRANCH  19  21
ATOM     21  N   UNL     1     -17.431  40.496  -9.507  0.00  0.00    -0.615 NA
ATOM     22  H   UNL     1     -18.441  40.325  -9.528  0.00  0.00    +0.291 HD
ENDBRANCH  19  21
ENDBRANCH  11  19
ENDBRANCH   1  15
BRANCH   7  23
ATOM     23  C   UNL     1     -25.518  46.407 -17.805  0.00  0.00    +0.307 A 
ATOM     24  C   UNL     1     -25.685  47.683 -17.261  0.00  0.00    +0.016 A 
ATOM     25  C   UNL     1     -26.897  48.363 -17.400  0.00  0.00    +0.049 A 
ATOM     26  C   UNL     1     -27.950  47.776 -18.094  0.00  0.00    -0.001 A 
ATOM     27  C   UNL     1     -27.774  46.521 -18.672  0.00  0.00    +0.161 A 
ATOM     28 BR   UNL     1     -29.207  45.719 -19.610  0.00  0.00    -0.406 Br
ATOM     29  C   UNL     1     -26.562  45.839 -18.544  0.00  0.00    -0.044 A 
ENDBRANCH   7  23
TORSDOF 4
ENDMDL
MODEL 2
REMARK VINA RESULT:    -6.907      5.473      7.372
REMARK INTER + INTRA:          -8.562
REMARK INTER:                  -8.470
REMARK INTRA:                  -0.092
REMARK UNBOUND:                -0.241
REMARK  Name = 
REMARK  4 active torsions:
REMARK  status: ('A' for Active; 'I' for Inactive)
REMARK    1  A    between atoms: N_1  and  C_2
REMARK    2  A    between atoms: C_2  and  C_4
REMARK    3  A    between atoms: N_8  and  C_9
REMARK    4  A    between atoms: N_15  and  C_16
REMARK                            x       y       z     vdW  Elec       q    Type
REMARK                         _______ _______ _______ _____ _____    ______ ____
ROOT
ATOM      1  C   UNL     1     -19.737  43.460 -14.968  0.00  0.00    +0.242 C 
ATOM      2  C   UNL     1     -20.243  43.539 -16.318  0.00  0.00    -0.103 C 
ATOM      3  C   UNL     1     -19.690  44.544 -17.359  0.00  0.00    +0.204 C 
ATOM      4  N   UNL     1     -18.673  45.468 -17.261  0.00  0.00    -0.564 N 
ATOM      5  C   UNL     1     -17.944  45.965 -18.349  0.00  0.00    +0.711 C 
ATOM      6  O   UNL     1     -18.304  45.765 -19.508  0.00  0.00    -0.549 OA
ATOM      7  N   UNL     1     -16.784  46.630 -17.979  0.00  0.00    -0.740 N 
ATOM      8  C   UNL     1     -18.364  45.461 -15.922  0.00  0.00    +0.173 C 
ATOM      9  C   UNL     1     -18.819  44.556 -14.755  0.00  0.00    -0.077 C 
ATOM     10  H   UNL     1     -16.543  46.589 -16.998  0.00  0.00    +0.303 HD
ENDROOT
BRANCH   1  15
ATOM     11  C   UNL     1     -18.912  40.877 -10.700  0.00  0.00    -0.141 C 
ATOM     12  C   UNL     1     -18.762  42.236 -10.940  0.00  0.00    +0.066 C 
ATOM     13  C   UNL     1     -18.855  42.708 -12.241  0.00  0.00    -0.102 C 
ATOM     14  C   UNL     1     -19.110  41.807 -13.272  0.00  0.00    +0.412 C 
ATOM     15  N   UNL     1     -19.282  42.228 -14.596  0.00  0.00    -0.651 N 
ATOM     16  N   UNL     1     -19.215  40.477 -13.071  0.00  0.00    -0.468 NA
ATOM     17  C   UNL     1     -19.118  40.044 -11.785  0.00  0.00    +0.222 C 
ATOM     18  H   UNL     1     -19.630  41.436 -15.125  0.00  0.00    +0.304 HD
BRANCH  11  19
ATOM     19  C   UNL     1     -18.914  40.306  -9.340  0.00  0.00    +0.534 C 
ATOM     20  O   UNL     1     -19.937  39.777  -8.920  0.00  0.00    -0.530 OA
BRANCH  19  21
ATOM     21  N   UNL     1     -17.784  40.427  -8.660  0.00  0.00    -0.615 NA
ATOM     22  H   UNL     1     -17.937  41.172  -7.974  0.00  0.00    +0.291 HD
ENDBRANCH  19  21
ENDBRANCH  11  19
ENDBRANCH   1  15
BRANCH   7  23
ATOM     23  C   UNL     1     -15.780  47.109 -18.850  0.00  0.00    +0.307 A 
ATOM     24  C   UNL     1     -15.954  48.217 -19.684  0.00  0.00    +0.016 A 
ATOM     25  C   UNL     1     -14.960  48.588 -20.592  0.00  0.00    +0.049 A 
ATOM     26  C   UNL     1     -13.778  47.859 -20.667  0.00  0.00    -0.001 A 
ATOM     27  C   UNL     1     -13.584  46.778 -19.811  0.00  0.00    +0.161 A 
ATOM     28 BR   UNL     1     -11.980  45.782 -19.916  0.00  0.00    -0.406 Br
ATOM     29  C   UNL     1     -14.571  46.407 -18.895  0.00  0.00    -0.044 A 
ENDBRANCH   7  23
TORSDOF 4
ENDMDL
MODEL 3
REMARK VINA RESULT:    -6.808      4.748      7.243
REMARK INTER + INTRA:          -8.442
REMARK INTER:                  -8.127
REMARK INTRA:                  -0.316
REMARK UNBOUND:                -0.241
REMARK  Name = 
REMARK  4 active torsions:
REMARK  status: ('A' for Active; 'I' for Inactive)
REMARK    1  A    between atoms: N_1  and  C_2
REMARK    2  A    between atoms: C_2  and  C_4
REMARK    3  A    between atoms: N_8  and  C_9
REMARK    4  A    between atoms: N_15  and  C_16
REMARK                            x       y       z     vdW  Elec       q    Type
REMARK                         _______ _______ _______ _____ _____    ______ ____
ROOT
ATOM      1  C   UNL     1     -14.863  43.583 -11.733  0.00  0.00    +0.242 C 
ATOM      2  C   UNL     1     -15.745  42.444 -11.636  0.00  0.00    -0.103 C 
ATOM      3  C   UNL     1     -17.126  42.397 -12.335  0.00  0.00    +0.204 C 
ATOM      4  N   UNL     1     -17.749  43.313 -13.153  0.00  0.00    -0.564 N 
ATOM      5  C   UNL     1     -18.733  42.995 -14.097  0.00  0.00    +0.711 C 
ATOM      6  O   UNL     1     -19.269  41.888 -14.119  0.00  0.00    -0.549 OA
ATOM      7  N   UNL     1     -18.979  44.017 -15.004  0.00  0.00    -0.740 N 
ATOM      8  C   UNL     1     -16.946  44.424 -13.056  0.00  0.00    +0.173 C 
ATOM      9  C   UNL     1     -15.565  44.655 -12.400  0.00  0.00    -0.077 C 
ATOM     10  H   UNL     1     -18.360  44.814 -14.952  0.00  0.00    +0.303 HD
ENDROOT
BRANCH   1  15
ATOM     11  C   UNL     1     -10.535  41.572 -10.056  0.00  0.00    -0.141 C 
ATOM     12  C   UNL     1     -11.458  42.352  -9.373  0.00  0.00    +0.066 C 
ATOM     13  C   UNL     1     -12.483  42.965 -10.078  0.00  0.00    -0.102 C 
ATOM     14  C   UNL     1     -12.568  42.770 -11.454  0.00  0.00    +0.412 C 
ATOM     15  N   UNL     1     -13.615  43.305 -12.214  0.00  0.00    -0.651 N 
ATOM     16  N   UNL     1     -11.660  42.054 -12.149  0.00  0.00    -0.468 NA
ATOM     17  C   UNL     1     -10.666  41.466 -11.429  0.00  0.00    +0.222 C 
ATOM     18  H   UNL     1     -13.567  42.888 -13.137  0.00  0.00    +0.304 HD
BRANCH  11  19
ATOM     19  C   UNL     1      -9.470  40.817  -9.371  0.00  0.00    +0.534 C 
ATOM     20  O   UNL     1      -8.764  41.397  -8.554  0.00  0.00    -0.530 OA
BRANCH  19  21
ATOM     21  N   UNL     1      -9.350  39.544  -9.714  0.00  0.00    -0.615 NA
ATOM     22  H   UNL     1      -8.612  39.503 -10.423  0.00  0.00    +0.291 HD
ENDBRANCH  19  21
ENDBRANCH  11  19
ENDBRANCH   1  15
BRANCH   7  23
ATOM     23  C   UNL     1     -19.804  43.938 -16.148  0.00  0.00    +0.307 A 
ATOM     24  C   UNL     1     -21.110  43.441 -16.119  0.00  0.00    +0.016 A 
ATOM     25  C   UNL     1     -21.846  43.301 -17.297  0.00  0.00    +0.049 A 
ATOM     26  C   UNL     1     -21.284  43.667 -18.517  0.00  0.00    -0.001 A 
ATOM     27  C   UNL     1     -19.998  44.199 -18.546  0.00  0.00    +0.161 A 
ATOM     28 BR   UNL     1     -19.231  44.691 -20.203  0.00  0.00    -0.406 Br
ATOM     29  C   UNL     1     -19.260  44.350 -17.370  0.00  0.00    -0.044 A 
ENDBRANCH   7  23
TORSDOF 4
ENDMDL
MODEL 4
REMARK VINA RESULT:    -6.257     17.555     22.195
REMARK INTER + INTRA:          -7.778
REMARK INTER:                  -7.255
REMARK INTRA:                  -0.523
REMARK UNBOUND:                -0.241
REMARK  Name = 
REMARK  4 active torsions:
REMARK  status: ('A' for Active; 'I' for Inactive)
REMARK    1  A    between atoms: N_1  and  C_2
REMARK    2  A    between atoms: C_2  and  C_4
REMARK    3  A    between atoms: N_8  and  C_9
REMARK    4  A    between atoms: N_15  and  C_16
REMARK                            x       y       z     vdW  Elec       q    Type
REMARK                         _______ _______ _______ _____ _____    ______ ____
ROOT
ATOM      1  C   UNL     1     -21.863  31.609   2.499  0.00  0.00    +0.242 C 
ATOM      2  C   UNL     1     -20.505  31.930   2.865  0.00  0.00    -0.103 C 
ATOM      3  C   UNL     1     -19.749  33.150   2.283  0.00  0.00    +0.204 C 
ATOM      4  N   UNL     1     -20.165  34.128   1.406  0.00  0.00    -0.564 N 
ATOM      5  C   UNL     1     -19.607  35.410   1.323  0.00  0.00    +0.711 C 
ATOM      6  O   UNL     1     -18.553  35.689   1.892  0.00  0.00    -0.549 OA
ATOM      7  N   UNL     1     -20.384  36.304   0.601  0.00  0.00    -0.740 N 
ATOM      8  C   UNL     1     -21.384  33.666   0.970  0.00  0.00    +0.173 C 
ATOM      9  C   UNL     1     -22.267  32.479   1.418  0.00  0.00    -0.077 C 
ATOM     10  H   UNL     1     -21.295  35.970   0.316  0.00  0.00    +0.303 HD
ENDROOT
BRANCH   1  15
ATOM     11  C   UNL     1     -22.985  28.371   6.218  0.00  0.00    -0.141 C 
ATOM     12  C   UNL     1     -22.569  28.101   4.922  0.00  0.00    +0.066 C 
ATOM     13  C   UNL     1     -22.504  29.136   4.001  0.00  0.00    -0.102 C 
ATOM     14  C   UNL     1     -22.845  30.424   4.406  0.00  0.00    +0.412 C 
ATOM     15  N   UNL     1     -22.737  31.522   3.545  0.00  0.00    -0.651 N 
ATOM     16  N   UNL     1     -23.294  30.706   5.646  0.00  0.00    -0.468 NA
ATOM     17  C   UNL     1     -23.348  29.669   6.526  0.00  0.00    +0.222 C 
ATOM     18  H   UNL     1     -22.861  32.361   4.103  0.00  0.00    +0.304 HD
BRANCH  11  19
ATOM     19  C   UNL     1     -22.998  27.345   7.278  0.00  0.00    +0.534 C 
ATOM     20  O   UNL     1     -22.013  26.631   7.425  0.00  0.00    -0.530 OA
BRANCH  19  21
ATOM     21  N   UNL     1     -24.109  27.269   7.995  0.00  0.00    -0.615 NA
ATOM     22  H   UNL     1     -24.098  28.070   8.633  0.00  0.00    +0.291 HD
ENDBRANCH  19  21
ENDBRANCH  11  19
ENDBRANCH   1  15
BRANCH   7  23
ATOM     23  C   UNL     1     -20.156  37.692   0.469  0.00  0.00    +0.307 A 
ATOM     24  C   UNL     1     -19.264  38.237  -0.459  0.00  0.00    +0.016 A 
ATOM     25  C   UNL     1     -19.011  39.610  -0.481  0.00  0.00    +0.049 A 
ATOM     26  C   UNL     1     -19.656  40.452   0.419  0.00  0.00    -0.001 A 
ATOM     27  C   UNL     1     -20.574  39.919   1.319  0.00  0.00    +0.161 A 
ATOM     28 BR   UNL     1     -21.447  41.061   2.548  0.00  0.00    -0.406 Br
ATOM     29  C   UNL     1     -20.839  38.548   1.341  0.00  0.00    -0.044 A 
ENDBRANCH   7  23
TORSDOF 4
ENDMDL
