MODEL 1
REMARK VINA RESULT:    -7.073      0.000      0.000
REMARK INTER + INTRA:         -10.078
REMARK INTER:                  -9.555
REMARK INTRA:                  -0.523
REMARK UNBOUND:                -0.523
REMARK  Name = 
REMARK  8 active torsions:
REMARK  status: ('A' for Active; 'I' for Inactive)
REMARK    1  A    between atoms: C_1  and  C_2
REMARK    2  A    between atoms: C_2  and  C_3
REMARK    3  A    between atoms: C_3  and  O_4
REMARK    4  A    between atoms: C_3  and  C_5
REMARK    5  A    between atoms: C_9  and  C_10
REMARK    6  A    between atoms: C_10  and  N_11
REMARK    7  A    between atoms: N_16  and  C_17
REMARK    8  A    between atoms: C_17  and  C_18
REMARK                            x       y       z     vdW  Elec       q    Type
REMARK                         _______ _______ _______ _____ _____    ______ ____
ROOT
ATOM      1  C   UNL     1     -19.449  42.740 -13.943  0.00  0.00    +0.468 C 
ATOM      2  O   UNL     1     -20.527  42.159 -13.762  0.00  0.00    -0.511 OA
ATOM      3  N   UNL     1     -18.393  42.810 -13.050  0.00  0.00    -0.578 N 
ATOM      4  C   UNL     1     -17.331  43.699 -13.087  0.00  0.00    +0.212 C 
ATOM      5  C   UNL     1     -16.353  44.061 -12.289  0.00  0.00    -0.180 C 
ATOM      6  C   UNL     1     -16.529  43.259 -11.101  0.00  0.00    +0.033 C 
ATOM      7  C   UNL     1     -17.393  42.434 -10.909  0.00  0.00    -0.104 C 
ATOM      8  C   UNL     1     -18.435  42.026 -11.865  0.00  0.00    +0.421 C 
ATOM      9  N   UNL     1     -19.267  41.068 -11.636  0.00  0.00    -0.455 NA
ENDROOT
BRANCH   5  10
ATOM     10  C   UNL     1     -15.192  44.849 -12.785  0.00  0.00    +0.535 C 
ATOM     11  O   UNL     1     -15.390  45.789 -13.553  0.00  0.00    -0.527 OA
BRANCH  10  12
ATOM     12  N   UNL     1     -14.006  44.459 -12.351  0.00  0.00    -0.620 NA
ATOM     13  H   UNL     1     -14.057  43.624 -11.753  0.00  0.00    +0.271 HD
ENDBRANCH  10  12
ENDBRANCH   5  10
BRANCH   1  14
ATOM     14  C   UNL     1     -19.244  43.475 -15.271  0.00  0.00    +0.163 C 
BRANCH  14  16
ATOM     15  C   UNL     1     -21.324  43.709 -16.734  0.00  0.00    +0.121 C 
ATOM     16  C   UNL     1     -20.127  42.841 -16.347  0.00  0.00    +0.103 C 
ENDBRANCH  14  16
BRANCH  14  17
ATOM     17  O   UNL     1     -19.579  44.859 -15.123  0.00  0.00    -0.573 OA
ATOM     18  H   UNL     1     -20.540  44.913 -15.300  0.00  0.00    +0.309 HD
ENDBRANCH  14  17
ENDBRANCH   1  14
BRANCH   9  19
ATOM     19  C   UNL     1     -19.466  40.599 -10.404  0.00  0.00    +0.179 C 
BRANCH  19  20
ATOM     20  C   UNL     1     -19.752  40.450  -9.026  0.00  0.00    -0.047 C 
ATOM     21  C   UNL     1     -21.146  40.320  -8.661  0.00  0.00    -0.046 C 
ATOM     22  C   UNL     1     -21.846  41.152  -7.574  0.00  0.00    +0.108 C 
ATOM     23  N   UNL     1     -21.335  42.133  -6.586  0.00  0.00    -0.575 NA
ATOM     24  C   UNL     1     -19.890  41.982  -6.901  0.00  0.00    +0.103 C 
ATOM     25  C   UNL     1     -19.104  41.221  -7.997  0.00  0.00    -0.063 C 
ATOM     26  H   UNL     1     -21.541  41.811  -5.647  0.00  0.00    +0.254 HD
ENDBRANCH  19  20
ENDBRANCH   9  19
TORSDOF 7
ENDMDL
MODEL 2
REMARK VINA RESULT:    -7.045      2.635      6.488
REMARK INTER + INTRA:         -10.040
REMARK INTER:                  -9.336
REMARK INTRA:                  -0.704
REMARK UNBOUND:                -0.523
REMARK  Name = 
REMARK  8 active torsions:
REMARK  status: ('A' for Active; 'I' for Inactive)
REMARK    1  A    between atoms: C_1  and  C_2
REMARK    2  A    between atoms: C_2  and  C_3
REMARK    3  A    between atoms: C_3  and  O_4
REMARK    4  A    between atoms: C_3  and  C_5
REMARK    5  A    between atoms: C_9  and  C_10
REMARK    6  A    between atoms: C_10  and  N_11
REMARK    7  A    between atoms: N_16  and  C_17
REMARK    8  A    between atoms: C_17  and  C_18
REMARK                            x       y       z     vdW  Elec       q    Type
REMARK                         _______ _______ _______ _____ _____    ______ ____
ROOT
ATOM      1  C   UNL     1     -17.982  41.140 -12.901  0.00  0.00    +0.468 C 
ATOM      2  O   UNL     1     -18.783  40.352 -13.418  0.00  0.00    -0.511 OA
ATOM      3  N   UNL     1     -17.864  42.492 -13.176  0.00  0.00    -0.578 N 
ATOM      4  C   UNL     1     -16.793  43.314 -12.864  0.00  0.00    +0.212 C 
ATOM      5  C   UNL     1     -16.392  44.527 -13.168  0.00  0.00    -0.180 C 
ATOM      6  C   UNL     1     -17.407  45.040 -14.057  0.00  0.00    +0.033 C 
ATOM      7  C   UNL     1     -18.406  44.461 -14.423  0.00  0.00    -0.104 C 
ATOM      8  C   UNL     1     -18.835  43.117 -14.004  0.00  0.00    +0.421 C 
ATOM      9  N   UNL     1     -19.962  42.596 -14.353  0.00  0.00    -0.455 NA
ENDROOT
BRANCH   5  10
ATOM     10  C   UNL     1     -15.320  45.211 -12.395  0.00  0.00    +0.535 C 
ATOM     11  O   UNL     1     -15.590  46.240 -11.777  0.00  0.00    -0.527 OA
BRANCH  10  12
ATOM     12  N   UNL     1     -14.128  44.642 -12.440  0.00  0.00    -0.620 NA
ATOM     13  H   UNL     1     -13.625  44.841 -13.315  0.00  0.00    +0.271 HD
ENDBRANCH  10  12
ENDBRANCH   5  10
BRANCH   1  14
ATOM     14  C   UNL     1     -17.001  40.587 -11.862  0.00  0.00    +0.163 C 
BRANCH  14  16
ATOM     15  C   UNL     1     -18.255  41.316  -9.761  0.00  0.00    +0.121 C 
ATOM     16  C   UNL     1     -17.771  40.147 -10.616  0.00  0.00    +0.103 C 
ENDBRANCH  14  16
BRANCH  14  17
ATOM     17  O   UNL     1     -16.284  39.474 -12.408  0.00  0.00    -0.573 OA
ATOM     18  H   UNL     1     -16.354  39.572 -13.379  0.00  0.00    +0.309 HD
ENDBRANCH  14  17
ENDBRANCH   1  14
BRANCH   9  19
ATOM     19  C   UNL     1     -20.668  43.083 -15.374  0.00  0.00    +0.179 C 
BRANCH  19  20
ATOM     20  C   UNL     1     -21.481  43.249 -16.521  0.00  0.00    -0.047 C 
ATOM     21  C   UNL     1     -20.798  43.381 -17.789  0.00  0.00    -0.046 C 
ATOM     22  C   UNL     1     -21.062  44.498 -18.812  0.00  0.00    +0.108 C 
ATOM     23  N   UNL     1     -22.077  45.578 -18.869  0.00  0.00    -0.575 NA
ATOM     24  C   UNL     1     -22.846  45.176 -17.662  0.00  0.00    +0.103 C 
ATOM     25  C   UNL     1     -22.631  44.115 -16.555  0.00  0.00    -0.063 C 
ATOM     26  H   UNL     1     -22.635  45.478 -19.710  0.00  0.00    +0.254 HD
ENDBRANCH  19  20
ENDBRANCH   9  19
TORSDOF 7
ENDMDL
MODEL 3
REMARK VINA RESULT:    -6.892      2.399      6.594
REMARK INTER + INTRA:          -9.832
REMARK INTER:                  -9.233
REMARK INTRA:                  -0.599
REMARK UNBOUND:                -0.523
REMARK  Name = 
REMARK  8 active torsions:
REMARK  status: ('A' for Active; 'I' for Inactive)
REMARK    1  A    between atoms: C_1  and  C_2
REMARK    2  A    between atoms: C_2  and  C_3
REMARK    3  A    between atoms: C_3  and  O_4
REMARK    4  A    between atoms: C_3  and  C_5
REMARK    5  A    between atoms: C_9  and  C_10
REMARK    6  A    between atoms: C_10  and  N_11
REMARK    7  A    between atoms: N_16  and  C_17
REMARK    8  A    between atoms: C_17  and  C_18
REMARK                            x       y       z     vdW  Elec       q    Type
REMARK                         _______ _______ _______ _____ _____    ______ ____
ROOT
ATOM      1  C   UNL     1     -18.920  41.038 -12.139  0.00  0.00    +0.468 C 
ATOM      2  O   UNL     1     -19.954  40.793 -12.771  0.00  0.00    -0.511 OA
ATOM      3  N   UNL     1     -18.012  42.048 -12.408  0.00  0.00    -0.578 N 
ATOM      4  C   UNL     1     -16.713  42.147 -11.934  0.00  0.00    +0.212 C 
ATOM      5  C   UNL     1     -15.653  42.880 -12.184  0.00  0.00    -0.180 C 
ATOM      6  C   UNL     1     -16.064  43.780 -13.235  0.00  0.00    +0.033 C 
ATOM      7  C   UNL     1     -17.157  43.833 -13.754  0.00  0.00    -0.104 C 
ATOM      8  C   UNL     1     -18.331  43.021 -13.394  0.00  0.00    +0.421 C 
ATOM      9  N   UNL     1     -19.497  43.196 -13.917  0.00  0.00    -0.455 NA
ENDROOT
BRANCH   5  10
ATOM     10  C   UNL     1     -14.492  42.914 -11.254  0.00  0.00    +0.535 C 
ATOM     11  O   UNL     1     -14.015  44.001 -10.930  0.00  0.00    -0.527 OA
BRANCH  10  12
ATOM     12  N   UNL     1     -14.051  41.738 -10.841  0.00  0.00    -0.620 NA
ATOM     13  H   UNL     1     -14.276  40.978 -11.497  0.00  0.00    +0.271 HD
ENDBRANCH  10  12
ENDBRANCH   5  10
BRANCH   1  14
ATOM     14  C   UNL     1     -18.578  40.141 -10.945  0.00  0.00    +0.163 C 
BRANCH  14  16
ATOM     15  C   UNL     1     -18.803  40.805  -8.490  0.00  0.00    +0.121 C 
ATOM     16  C   UNL     1     -19.528  40.449  -9.786  0.00  0.00    +0.103 C 
ENDBRANCH  14  16
BRANCH  14  17
ATOM     17  O   UNL     1     -18.697  38.763 -11.317  0.00  0.00    -0.573 OA
ATOM     18  H   UNL     1     -19.001  38.771 -12.247  0.00  0.00    +0.309 HD
ENDBRANCH  14  17
ENDBRANCH   1  14
BRANCH   9  19
ATOM     19  C   UNL     1     -19.656  43.886 -15.046  0.00  0.00    +0.179 C 
BRANCH  19  20
ATOM     20  C   UNL     1     -19.703  44.312 -16.396  0.00  0.00    -0.047 C 
ATOM     21  C   UNL     1     -20.192  45.650 -16.639  0.00  0.00    -0.046 C 
ATOM     22  C   UNL     1     -21.289  46.009 -17.654  0.00  0.00    +0.108 C 
ATOM     23  N   UNL     1     -22.003  45.206 -18.676  0.00  0.00    -0.575 NA
ATOM     24  C   UNL     1     -21.239  43.943 -18.489  0.00  0.00    +0.103 C 
ATOM     25  C   UNL     1     -20.170  43.476 -17.472  0.00  0.00    -0.063 C 
ATOM     26  H   UNL     1     -21.840  45.599 -19.596  0.00  0.00    +0.254 HD
ENDBRANCH  19  20
ENDBRANCH   9  19
TORSDOF 7
ENDMDL
MODEL 4
REMARK VINA RESULT:    -6.318      2.564      6.843
REMARK INTER + INTRA:          -9.057
REMARK INTER:                  -8.426
REMARK INTRA:                  -0.632
REMARK UNBOUND:                -0.523
REMARK  Name = 
REMARK  8 active torsions:
REMARK  status: ('A' for Active; 'I' for Inactive)
REMARK    1  A    between atoms: C_1  and  C_2
REMARK    2  A    between atoms: C_2  and  C_3
REMARK    3  A    between atoms: C_3  and  O_4
REMARK    4  A    between atoms: C_3  and  C_5
REMARK    5  A    between atoms: C_9  and  C_10
REMARK    6  A    between atoms: C_10  and  N_11
REMARK    7  A    between atoms: N_16  and  C_17
REMARK    8  A    between atoms: C_17  and  C_18
REMARK                            x       y       z     vdW  Elec       q    Type
REMARK                         _______ _______ _______ _____ _____    ______ ____
ROOT
ATOM      1  C   UNL     1     -17.392  44.939 -12.819  0.00  0.00    +0.468 C 
ATOM      2  O   UNL     1     -17.725  45.779 -13.665  0.00  0.00    -0.511 OA
ATOM      3  N   UNL     1     -17.923  43.669 -12.668  0.00  0.00    -0.578 N 
ATOM      4  C   UNL     1     -17.807  42.846 -11.559  0.00  0.00    +0.212 C 
ATOM      5  C   UNL     1     -18.349  41.730 -11.130  0.00  0.00    -0.180 C 
ATOM      6  C   UNL     1     -19.289  41.355 -12.161  0.00  0.00    +0.033 C 
ATOM      7  C   UNL     1     -19.507  41.954 -13.190  0.00  0.00    -0.104 C 
ATOM      8  C   UNL     1     -18.827  43.176 -13.648  0.00  0.00    +0.421 C 
ATOM      9  N   UNL     1     -19.035  43.709 -14.803  0.00  0.00    -0.455 NA
ENDROOT
BRANCH   5  10
ATOM     10  C   UNL     1     -17.754  40.954 -10.009  0.00  0.00    +0.535 C 
ATOM     11  O   UNL     1     -16.994  40.021 -10.262  0.00  0.00    -0.527 OA
BRANCH  10  12
ATOM     12  N   UNL     1     -18.104  41.340  -8.794  0.00  0.00    -0.620 NA
ATOM     13  H   UNL     1     -18.290  40.548  -8.164  0.00  0.00    +0.271 HD
ENDBRANCH  10  12
ENDBRANCH   5  10
BRANCH   1  14
ATOM     14  C   UNL     1     -16.297  45.322 -11.819  0.00  0.00    +0.163 C 
BRANCH  14  16
ATOM     15  C   UNL     1     -14.234  43.824 -11.960  0.00  0.00    +0.121 C 
ATOM     16  C   UNL     1     -14.924  45.095 -12.453  0.00  0.00    +0.103 C 
ENDBRANCH  14  16
BRANCH  14  17
ATOM     17  O   UNL     1     -16.435  46.697 -11.443  0.00  0.00    -0.573 OA
ATOM     18  H   UNL     1     -15.912  46.795 -10.622  0.00  0.00    +0.309 HD
ENDBRANCH  14  17
ENDBRANCH   1  14
BRANCH   9  19
ATOM     19  C   UNL     1     -20.108  43.397 -15.530  0.00  0.00    +0.179 C 
BRANCH  19  20
ATOM     20  C   UNL     1     -21.124  43.332 -16.514  0.00  0.00    -0.047 C 
ATOM     21  C   UNL     1     -20.762  43.751 -17.850  0.00  0.00    -0.046 C 
ATOM     22  C   UNL     1     -21.558  44.759 -18.695  0.00  0.00    +0.108 C 
ATOM     23  N   UNL     1     -22.864  45.429 -18.480  0.00  0.00    -0.575 NA
ATOM     24  C   UNL     1     -23.228  44.730 -17.219  0.00  0.00    +0.103 C 
ATOM     25  C   UNL     1     -22.480  43.753 -16.279  0.00  0.00    -0.063 C 
ATOM     26  H   UNL     1     -23.500  45.187 -19.231  0.00  0.00    +0.254 HD
ENDBRANCH  19  20
ENDBRANCH   9  19
TORSDOF 7
ENDMDL
MODEL 5
REMARK VINA RESULT:    -6.284      3.555      5.657
REMARK INTER + INTRA:          -9.012
REMARK INTER:                  -8.429
REMARK INTRA:                  -0.583
REMARK UNBOUND:                -0.523
REMARK  Name = 
REMARK  8 active torsions:
REMARK  status: ('A' for Active; 'I' for Inactive)
REMARK    1  A    between atoms: C_1  and  C_2
REMARK    2  A    between atoms: C_2  and  C_3
REMARK    3  A    between atoms: C_3  and  O_4
REMARK    4  A    between atoms: C_3  and  C_5
REMARK    5  A    between atoms: C_9  and  C_10
REMARK    6  A    between atoms: C_10  and  N_11
REMARK    7  A    between atoms: N_16  and  C_17
REMARK    8  A    between atoms: C_17  and  C_18
REMARK                            x       y       z     vdW  Elec       q    Type
REMARK                         _______ _______ _______ _____ _____    ______ ____
ROOT
ATOM      1  C   UNL     1     -19.401  44.085 -15.362  0.00  0.00    +0.468 C 
ATOM      2  O   UNL     1     -19.395  45.278 -15.690  0.00  0.00    -0.511 OA
ATOM      3  N   UNL     1     -18.924  43.557 -14.174  0.00  0.00    -0.578 N 
ATOM      4  C   UNL     1     -18.625  42.229 -13.915  0.00  0.00    +0.212 C 
ATOM      5  C   UNL     1     -18.018  41.547 -12.972  0.00  0.00    -0.180 C 
ATOM      6  C   UNL     1     -17.598  42.539 -12.011  0.00  0.00    +0.033 C 
ATOM      7  C   UNL     1     -17.783  43.733 -12.078  0.00  0.00    -0.104 C 
ATOM      8  C   UNL     1     -18.524  44.441 -13.135  0.00  0.00    +0.421 C 
ATOM      9  N   UNL     1     -18.774  45.705 -13.097  0.00  0.00    -0.455 NA
ENDROOT
BRANCH   5  10
ATOM     10  C   UNL     1     -18.147  40.068 -12.872  0.00  0.00    +0.535 C 
ATOM     11  O   UNL     1     -19.269  39.568 -12.804  0.00  0.00    -0.527 OA
BRANCH  10  12
ATOM     12  N   UNL     1     -17.012  39.391 -12.859  0.00  0.00    -0.620 NA
ATOM     13  H   UNL     1     -16.921  38.753 -13.661  0.00  0.00    +0.271 HD
ENDBRANCH  10  12
ENDBRANCH   5  10
BRANCH   1  14
ATOM     14  C   UNL     1     -19.974  43.070 -16.355  0.00  0.00    +0.163 C 
BRANCH  14  16
ATOM     15  C   UNL     1     -21.630  43.980 -18.073  0.00  0.00    +0.121 C 
ATOM     16  C   UNL     1     -21.430  43.423 -16.664  0.00  0.00    +0.103 C 
ENDBRANCH  14  16
BRANCH  14  17
ATOM     17  O   UNL     1     -19.207  43.079 -17.564  0.00  0.00    -0.573 OA
ATOM     18  H   UNL     1     -18.960  42.145 -17.722  0.00  0.00    +0.309 HD
ENDBRANCH  14  17
ENDBRANCH   1  14
BRANCH   9  19
ATOM     19  C   UNL     1     -18.106  46.522 -12.281  0.00  0.00    +0.179 C 
BRANCH  19  20
ATOM     20  C   UNL     1     -17.727  47.442 -11.274  0.00  0.00    -0.047 C 
ATOM     21  C   UNL     1     -18.779  48.260 -10.712  0.00  0.00    -0.046 C 
ATOM     22  C   UNL     1     -18.716  49.789 -10.571  0.00  0.00    +0.108 C 
ATOM     23  N   UNL     1     -17.629  50.769 -10.813  0.00  0.00    -0.575 NA
ATOM     24  C   UNL     1     -16.560  49.787 -11.137  0.00  0.00    +0.103 C 
ATOM     25  C   UNL     1     -16.541  48.254 -11.353  0.00  0.00    -0.063 C 
ATOM     26  H   UNL     1     -17.421  51.268  -9.955  0.00  0.00    +0.254 HD
ENDBRANCH  19  20
ENDBRANCH   9  19
TORSDOF 7
ENDMDL
