MODEL 1
REMARK VINA RESULT:    -7.929      0.000      0.000
REMARK INTER + INTRA:          -9.760
REMARK INTER:                  -9.320
REMARK INTRA:                  -0.440
REMARK UNBOUND:                -0.440
REMARK  Name = 
REMARK  3 active torsions:
REMARK  status: ('A' for Active; 'I' for Inactive)
REMARK    1  A    between atoms: C_2  and  N_3
REMARK    2  A    between atoms: C_2  and  C_10
REMARK    3  A    between atoms: N_3  and  C_4
REMARK                            x       y       z     vdW  Elec       q    Type
REMARK                         _______ _______ _______ _____ _____    ______ ____
ROOT
ATOM      1  C   UNL     1     -19.571  40.573  -9.564  0.00  0.00    -0.076 C 
ATOM      2  C   UNL     1     -20.582  40.012  -8.887  0.00  0.00    +0.053 C 
ATOM      3  C   UNL     1     -21.056  40.604  -7.660  0.00  0.00    -0.089 C 
ATOM      4  C   UNL     1     -22.284  41.054  -7.649  0.00  0.00    +0.146 C 
ATOM      5  N   UNL     1     -22.940  42.271  -7.209  0.00  0.00    -0.664 N 
ATOM      6  C   UNL     1     -21.818  42.808  -6.442  0.00  0.00    +0.411 C 
ATOM      7  N   UNL     1     -20.721  42.633  -6.067  0.00  0.00    -0.529 NA
ATOM      8  C   UNL     1     -20.046  41.508  -6.855  0.00  0.00    +0.305 C 
ATOM      9  N   UNL     1     -19.045  42.161  -7.696  0.00  0.00    -0.393 NA
ATOM     10  C   UNL     1     -18.891  41.723  -8.896  0.00  0.00    +0.233 C 
ATOM     11  H   UNL     1     -23.779  42.135  -6.657  0.00  0.00    +0.259 HD
ENDROOT
BRANCH   1  13
ATOM     12  O   UNL     1     -18.828  39.027 -11.215  0.00  0.00    -0.537 OA
ATOM     13  C   UNL     1     -19.298  40.136 -10.976  0.00  0.00    +0.479 C 
BRANCH  13  14
ATOM     14  N   UNL     1     -19.678  41.103 -11.809  0.00  0.00    -0.521 NA
BRANCH  14  15
ATOM     15  C   UNL     1     -18.828  41.513 -12.754  0.00  0.00    +0.233 C 
ATOM     16  C   UNL     1     -17.452  41.825 -12.448  0.00  0.00    -0.076 C 
ATOM     17  C   UNL     1     -16.710  43.087 -12.962  0.00  0.00    +0.098 C 
ATOM     18  N   UNL     1     -17.096  44.228 -13.850  0.00  0.00    -0.581 NA
ATOM     19  C   UNL     1     -18.497  43.781 -14.088  0.00  0.00    +0.099 C 
ATOM     20  C   UNL     1     -19.314  42.547 -13.639  0.00  0.00    -0.098 C 
ATOM     21  H   UNL     1     -16.587  44.129 -14.723  0.00  0.00    +0.249 HD
ENDBRANCH  14  15
ENDBRANCH  13  14
ENDBRANCH   1  13
TORSDOF 3
ENDMDL
MODEL 2
REMARK VINA RESULT:    -7.765      1.378      1.807
REMARK INTER + INTRA:          -9.566
REMARK INTER:                  -9.107
REMARK INTRA:                  -0.460
REMARK UNBOUND:                -0.440
REMARK  Name = 
REMARK  3 active torsions:
REMARK  status: ('A' for Active; 'I' for Inactive)
REMARK    1  A    between atoms: C_2  and  N_3
REMARK    2  A    between atoms: C_2  and  C_10
REMARK    3  A    between atoms: N_3  and  C_4
REMARK                            x       y       z     vdW  Elec       q    Type
REMARK                         _______ _______ _______ _____ _____    ______ ____
ROOT
ATOM      1  C   UNL     1     -18.904  40.816 -10.890  0.00  0.00    -0.076 C 
ATOM      2  C   UNL     1     -19.634  39.974 -10.147  0.00  0.00    +0.053 C 
ATOM      3  C   UNL     1     -19.908  40.269  -8.762  0.00  0.00    -0.089 C 
ATOM      4  C   UNL     1     -21.157  40.463  -8.428  0.00  0.00    +0.146 C 
ATOM      5  N   UNL     1     -21.881  41.448  -7.647  0.00  0.00    -0.664 N 
ATOM      6  C   UNL     1     -20.715  42.073  -7.025  0.00  0.00    +0.411 C 
ATOM      7  N   UNL     1     -19.548  42.060  -6.910  0.00  0.00    -0.529 NA
ATOM      8  C   UNL     1     -18.899  41.221  -8.013  0.00  0.00    +0.305 C 
ATOM      9  N   UNL     1     -18.230  42.177  -8.893  0.00  0.00    -0.393 NA
ATOM     10  C   UNL     1     -18.282  41.963 -10.162  0.00  0.00    +0.233 C 
ATOM     11  H   UNL     1     -22.542  41.069  -6.978  0.00  0.00    +0.259 HD
ENDROOT
BRANCH   1  13
ATOM     12  O   UNL     1     -18.343  39.696 -12.914  0.00  0.00    -0.537 OA
ATOM     13  C   UNL     1     -18.890  40.660 -12.384  0.00  0.00    +0.479 C 
BRANCH  13  14
ATOM     14  N   UNL     1     -19.566  41.669 -12.931  0.00  0.00    -0.521 NA
BRANCH  14  15
ATOM     15  C   UNL     1     -18.944  42.463 -13.808  0.00  0.00    +0.233 C 
ATOM     16  C   UNL     1     -18.375  43.727 -13.409  0.00  0.00    -0.076 C 
ATOM     17  C   UNL     1     -18.551  45.051 -14.200  0.00  0.00    +0.098 C 
ATOM     18  N   UNL     1     -19.239  45.411 -15.478  0.00  0.00    -0.581 NA
ATOM     19  C   UNL     1     -19.760  44.047 -15.772  0.00  0.00    +0.099 C 
ATOM     20  C   UNL     1     -19.627  42.679 -15.062  0.00  0.00    -0.098 C 
ATOM     21  H   UNL     1     -18.524  45.624 -16.168  0.00  0.00    +0.249 HD
ENDBRANCH  14  15
ENDBRANCH  13  14
ENDBRANCH   1  13
TORSDOF 3
ENDMDL
MODEL 3
REMARK VINA RESULT:    -6.895      1.546      2.119
REMARK INTER + INTRA:          -8.545
REMARK INTER:                  -8.311
REMARK INTRA:                  -0.234
REMARK UNBOUND:                -0.440
REMARK  Name = 
REMARK  3 active torsions:
REMARK  status: ('A' for Active; 'I' for Inactive)
REMARK    1  A    between atoms: C_2  and  N_3
REMARK    2  A    between atoms: C_2  and  C_10
REMARK    3  A    between atoms: N_3  and  C_4
REMARK                            x       y       z     vdW  Elec       q    Type
REMARK                         _______ _______ _______ _____ _____    ______ ____
ROOT
ATOM      1  C   UNL     1     -18.802  41.450 -11.115  0.00  0.00    -0.076 C 
ATOM      2  C   UNL     1     -19.447  40.418 -10.555  0.00  0.00    +0.053 C 
ATOM      3  C   UNL     1     -19.708  40.401  -9.136  0.00  0.00    -0.089 C 
ATOM      4  C   UNL     1     -20.959  40.423  -8.759  0.00  0.00    +0.146 C 
ATOM      5  N   UNL     1     -21.737  41.166  -7.785  0.00  0.00    -0.664 N 
ATOM      6  C   UNL     1     -20.607  41.741  -7.058  0.00  0.00    +0.411 C 
ATOM      7  N   UNL     1     -19.440  41.799  -6.959  0.00  0.00    -0.529 NA
ATOM      8  C   UNL     1     -18.756  41.257  -8.216  0.00  0.00    +0.305 C 
ATOM      9  N   UNL     1     -18.184  42.423  -8.887  0.00  0.00    -0.393 NA
ATOM     10  C   UNL     1     -18.252  42.470 -10.172  0.00  0.00    +0.233 C 
ATOM     11  H   UNL     1     -22.350  40.606  -7.203  0.00  0.00    +0.259 HD
ENDROOT
BRANCH   1  13
ATOM     12  O   UNL     1     -18.954  40.630 -13.345  0.00  0.00    -0.537 OA
ATOM     13  C   UNL     1     -18.814  41.605 -12.609  0.00  0.00    +0.479 C 
BRANCH  13  14
ATOM     14  N   UNL     1     -18.694  42.896 -12.912  0.00  0.00    -0.521 NA
BRANCH  14  15
ATOM     15  C   UNL     1     -17.569  43.321 -13.495  0.00  0.00    +0.233 C 
ATOM     16  C   UNL     1     -16.271  43.006 -12.949  0.00  0.00    -0.076 C 
ATOM     17  C   UNL     1     -15.121  44.035 -12.785  0.00  0.00    +0.098 C 
ATOM     18  N   UNL     1     -14.973  45.486 -13.120  0.00  0.00    -0.581 NA
ATOM     19  C   UNL     1     -16.346  45.667 -13.666  0.00  0.00    +0.099 C 
ATOM     20  C   UNL     1     -17.543  44.712 -13.883  0.00  0.00    -0.098 C 
ATOM     21  H   UNL     1     -14.320  45.562 -13.894  0.00  0.00    +0.249 HD
ENDBRANCH  14  15
ENDBRANCH  13  14
ENDBRANCH   1  13
TORSDOF 3
ENDMDL
MODEL 4
REMARK VINA RESULT:    -6.462      3.097      7.706
REMARK INTER + INTRA:          -8.035
REMARK INTER:                  -7.909
REMARK INTRA:                  -0.126
REMARK UNBOUND:                -0.440
REMARK  Name = 
REMARK  3 active torsions:
REMARK  status: ('A' for Active; 'I' for Inactive)
REMARK    1  A    between atoms: C_2  and  N_3
REMARK    2  A    between atoms: C_2  and  C_10
REMARK    3  A    between atoms: N_3  and  C_4
REMARK                            x       y       z     vdW  Elec       q    Type
REMARK                         _______ _______ _______ _____ _____    ______ ____
ROOT
ATOM      1  C   UNL     1     -19.185  43.688 -14.374  0.00  0.00    -0.076 C 
ATOM      2  C   UNL     1     -19.972  43.158 -15.320  0.00  0.00    +0.053 C 
ATOM      3  C   UNL     1     -20.067  43.772 -16.621  0.00  0.00    -0.089 C 
ATOM      4  C   UNL     1     -19.638  43.077 -17.642  0.00  0.00    +0.146 C 
ATOM      5  N   UNL     1     -18.788  43.335 -18.790  0.00  0.00    -0.664 N 
ATOM      6  C   UNL     1     -18.758  44.791 -18.664  0.00  0.00    +0.411 C 
ATOM      7  N   UNL     1     -19.142  45.725 -18.069  0.00  0.00    -0.529 NA
ATOM      8  C   UNL     1     -19.736  45.310 -16.721  0.00  0.00    +0.305 C 
ATOM      9  N   UNL     1     -18.785  45.773 -15.712  0.00  0.00    -0.393 NA
ATOM     10  C   UNL     1     -18.560  45.005 -14.703  0.00  0.00    +0.233 C 
ATOM     11  H   UNL     1     -19.153  43.013 -19.680  0.00  0.00    +0.259 HD
ENDROOT
BRANCH   1  13
ATOM     12  O   UNL     1     -18.254  43.383 -12.204  0.00  0.00    -0.537 OA
ATOM     13  C   UNL     1     -18.855  42.881 -13.151  0.00  0.00    +0.479 C 
BRANCH  13  14
ATOM     14  N   UNL     1     -19.345  41.652 -13.298  0.00  0.00    -0.521 NA
BRANCH  14  15
ATOM     15  C   UNL     1     -19.082  40.735 -12.362  0.00  0.00    +0.233 C 
ATOM     16  C   UNL     1     -19.673  40.808 -11.048  0.00  0.00    -0.076 C 
ATOM     17  C   UNL     1     -18.888  40.599  -9.726  0.00  0.00    +0.098 C 
ATOM     18  N   UNL     1     -17.465  40.266  -9.407  0.00  0.00    -0.581 NA
ATOM     19  C   UNL     1     -16.990  40.216 -10.818  0.00  0.00    +0.099 C 
ATOM     20  C   UNL     1     -17.689  40.392 -12.186  0.00  0.00    -0.098 C 
ATOM     21  H   UNL     1     -17.441  39.320  -9.039  0.00  0.00    +0.249 HD
ENDBRANCH  14  15
ENDBRANCH  13  14
ENDBRANCH   1  13
TORSDOF 3
ENDMDL
MODEL 5
REMARK VINA RESULT:    -6.408      3.760      5.873
REMARK INTER + INTRA:          -7.972
REMARK INTER:                  -7.677
REMARK INTRA:                  -0.295
REMARK UNBOUND:                -0.440
REMARK  Name = 
REMARK  3 active torsions:
REMARK  status: ('A' for Active; 'I' for Inactive)
REMARK    1  A    between atoms: C_2  and  N_3
REMARK    2  A    between atoms: C_2  and  C_10
REMARK    3  A    between atoms: N_3  and  C_4
REMARK                            x       y       z     vdW  Elec       q    Type
REMARK                         _______ _______ _______ _____ _____    ______ ____
ROOT
ATOM      1  C   UNL     1     -19.145  42.933 -13.648  0.00  0.00    -0.076 C 
ATOM      2  C   UNL     1     -18.234  43.485 -12.835  0.00  0.00    +0.053 C 
ATOM      3  C   UNL     1     -17.742  42.760 -11.690  0.00  0.00    -0.089 C 
ATOM      4  C   UNL     1     -16.472  42.452 -11.678  0.00  0.00    +0.146 C 
ATOM      5  N   UNL     1     -15.695  41.259 -11.395  0.00  0.00    -0.664 N 
ATOM      6  C   UNL     1     -16.776  40.486 -10.786  0.00  0.00    +0.411 C 
ATOM      7  N   UNL     1     -17.899  40.477 -10.452  0.00  0.00    -0.529 NA
ATOM      8  C   UNL     1     -18.670  41.634 -11.094  0.00  0.00    +0.305 C 
ATOM      9  N   UNL     1     -19.554  41.018 -12.082  0.00  0.00    -0.393 NA
ATOM     10  C   UNL     1     -19.711  41.624 -13.207  0.00  0.00    +0.233 C 
ATOM     11  H   UNL     1     -14.900  41.396 -10.781  0.00  0.00    +0.259 HD
ENDROOT
BRANCH   1  13
ATOM     12  O   UNL     1     -19.277  44.767 -15.162  0.00  0.00    -0.537 OA
ATOM     13  C   UNL     1     -19.411  43.558 -14.989  0.00  0.00    +0.479 C 
BRANCH  13  14
ATOM     14  N   UNL     1     -19.747  42.602 -15.853  0.00  0.00    -0.521 NA
BRANCH  14  15
ATOM     15  C   UNL     1     -20.689  42.857 -16.765  0.00  0.00    +0.233 C 
ATOM     16  C   UNL     1     -20.384  43.562 -17.987  0.00  0.00    -0.076 C 
ATOM     17  C   UNL     1     -21.246  44.716 -18.566  0.00  0.00    +0.098 C 
ATOM     18  N   UNL     1     -22.519  45.374 -18.139  0.00  0.00    -0.581 NA
ATOM     19  C   UNL     1     -22.715  44.563 -16.905  0.00  0.00    +0.099 C 
ATOM     20  C   UNL     1     -21.931  43.396 -16.260  0.00  0.00    -0.098 C 
ATOM     21  H   UNL     1     -23.244  45.109 -18.800  0.00  0.00    +0.249 HD
ENDBRANCH  14  15
ENDBRANCH  13  14
ENDBRANCH   1  13
TORSDOF 3
ENDMDL
