MODEL 1
REMARK VINA RESULT:    -7.272      0.000      0.000
REMARK INTER + INTRA:          -9.385
REMARK INTER:                  -8.761
REMARK INTRA:                  -0.624
REMARK UNBOUND:                -0.624
REMARK  Name = 
REMARK  4 active torsions:
REMARK  status: ('A' for Active; 'I' for Inactive)
REMARK    1  A    between atoms: C_5  and  C_6
REMARK    2  A    between atoms: C_6  and  N_7
REMARK    3  A    between atoms: N_10  and  C_11
REMARK    4  A    between atoms: C_11  and  C_12
REMARK                            x       y       z     vdW  Elec       q    Type
REMARK                         _______ _______ _______ _____ _____    ______ ____
ROOT
ATOM      1  N   UNL     1     -18.703  39.315 -13.951  0.00  0.00    -0.678 NA
ATOM      2  C   UNL     1     -18.268  39.950 -12.908  0.00  0.00    +0.487 C 
ATOM      3  C   UNL     1     -16.777  40.049 -12.631  0.00  0.00    -0.051 C 
ATOM      4  C   UNL     1     -16.488  40.081 -11.129  0.00  0.00    +0.054 C 
ATOM      5  C   UNL     1     -17.339  41.133 -10.398  0.00  0.00    -0.147 C 
ATOM      6  C   UNL     1     -18.805  40.777 -10.682  0.00  0.00    +0.432 C 
ATOM      7  N   UNL     1     -19.721  40.557  -9.791  0.00  0.00    -0.450 NA
ATOM      8  N   UNL     1     -19.120  40.551 -12.011  0.00  0.00    -0.701 N 
ATOM      9  H   UNL     1     -17.915  38.911 -14.463  0.00  0.00    +0.243 HD
ATOM     10  H   UNL     1     -19.449  41.426 -12.411  0.00  0.00    +0.298 HD
ENDROOT
BRANCH   5  11
ATOM     11  C   UNL     1     -16.968  42.542 -10.862  0.00  0.00    +0.520 C 
ATOM     12  O   UNL     1     -17.827  43.341 -11.237  0.00  0.00    -0.546 OA
BRANCH  11  13
ATOM     13  N   UNL     1     -15.658  42.781 -10.859  0.00  0.00    -0.675 NA
ATOM     14  H   UNL     1     -15.309  42.969  -9.913  0.00  0.00    +0.242 HD
ENDBRANCH  11  13
ENDBRANCH   5  11
BRANCH   7  15
ATOM     15  C   UNL     1     -19.356  40.589  -8.386  0.00  0.00    +0.105 C 
BRANCH  15  16
ATOM     16  C   UNL     1     -20.462  41.195  -7.548  0.00  0.00    +0.045 A 
ATOM     17  C   UNL     1     -20.157  41.978  -6.425  0.00  0.00    -0.014 A 
ATOM     18  C   UNL     1     -21.177  42.557  -5.669  0.00  0.00    -0.030 A 
ATOM     19  C   UNL     1     -22.509  42.363  -6.031  0.00  0.00    -0.047 A 
ATOM     20  C   UNL     1     -22.821  41.588  -7.147  0.00  0.00    -0.031 A 
ATOM     21  C   UNL     1     -21.805  41.008  -7.902  0.00  0.00    -0.056 A 
ENDBRANCH  15  16
ENDBRANCH   7  15
TORSDOF 4
ENDMDL
MODEL 2
REMARK VINA RESULT:    -6.981      3.761      6.406
REMARK INTER + INTRA:          -9.034
REMARK INTER:                  -8.387
REMARK INTRA:                  -0.647
REMARK UNBOUND:                -0.624
REMARK  Name = 
REMARK  4 active torsions:
REMARK  status: ('A' for Active; 'I' for Inactive)
REMARK    1  A    between atoms: C_5  and  C_6
REMARK    2  A    between atoms: C_6  and  N_7
REMARK    3  A    between atoms: N_10  and  C_11
REMARK    4  A    between atoms: C_11  and  C_12
REMARK                            x       y       z     vdW  Elec       q    Type
REMARK                         _______ _______ _______ _____ _____    ______ ____
ROOT
ATOM      1  N   UNL     1     -20.596  40.047  -9.428  0.00  0.00    -0.678 NA
ATOM      2  C   UNL     1     -19.617  40.519 -10.133  0.00  0.00    +0.487 C 
ATOM      3  C   UNL     1     -18.365  41.053  -9.457  0.00  0.00    -0.051 C 
ATOM      4  C   UNL     1     -17.745  42.201 -10.256  0.00  0.00    +0.054 C 
ATOM      5  C   UNL     1     -17.557  41.840 -11.738  0.00  0.00    -0.147 C 
ATOM      6  C   UNL     1     -18.949  41.471 -12.273  0.00  0.00    +0.432 C 
ATOM      7  N   UNL     1     -19.543  42.015 -13.289  0.00  0.00    -0.450 NA
ATOM      8  N   UNL     1     -19.662  40.564 -11.508  0.00  0.00    -0.701 N 
ATOM      9  H   UNL     1     -20.381  40.139  -8.432  0.00  0.00    +0.243 HD
ATOM     10  H   UNL     1     -19.480  39.632 -11.871  0.00  0.00    +0.298 HD
ENDROOT
BRANCH   5  11
ATOM     11  C   UNL     1     -16.540  40.709 -11.893  0.00  0.00    +0.520 C 
ATOM     12  O   UNL     1     -16.839  39.649 -12.445  0.00  0.00    -0.546 OA
BRANCH  11  13
ATOM     13  N   UNL     1     -15.357  40.972 -11.342  0.00  0.00    -0.675 NA
ATOM     14  H   UNL     1     -14.707  41.386 -12.019  0.00  0.00    +0.242 HD
ENDBRANCH  11  13
ENDBRANCH   5  11
BRANCH   7  15
ATOM     15  C   UNL     1     -18.890  43.113 -13.979  0.00  0.00    +0.105 C 
BRANCH  15  16
ATOM     16  C   UNL     1     -19.714  43.583 -15.158  0.00  0.00    +0.045 A 
ATOM     17  C   UNL     1     -20.936  42.966 -15.464  0.00  0.00    -0.014 A 
ATOM     18  C   UNL     1     -21.707  43.417 -16.535  0.00  0.00    -0.030 A 
ATOM     19  C   UNL     1     -21.267  44.492 -17.306  0.00  0.00    -0.047 A 
ATOM     20  C   UNL     1     -20.056  45.113 -17.008  0.00  0.00    -0.031 A 
ATOM     21  C   UNL     1     -19.283  44.663 -15.940  0.00  0.00    -0.056 A 
ENDBRANCH  15  16
ENDBRANCH   7  15
TORSDOF 4
ENDMDL
MODEL 3
REMARK VINA RESULT:    -6.431      3.871      6.805
REMARK INTER + INTRA:          -8.372
REMARK INTER:                  -7.662
REMARK INTRA:                  -0.710
REMARK UNBOUND:                -0.624
REMARK  Name = 
REMARK  4 active torsions:
REMARK  status: ('A' for Active; 'I' for Inactive)
REMARK    1  A    between atoms: C_5  and  C_6
REMARK    2  A    between atoms: C_6  and  N_7
REMARK    3  A    between atoms: N_10  and  C_11
REMARK    4  A    between atoms: C_11  and  C_12
REMARK                            x       y       z     vdW  Elec       q    Type
REMARK                         _______ _______ _______ _____ _____    ______ ____
ROOT
ATOM      1  N   UNL     1     -15.353  42.560 -10.885  0.00  0.00    -0.678 NA
ATOM      2  C   UNL     1     -16.384  41.919 -11.338  0.00  0.00    +0.487 C 
ATOM      3  C   UNL     1     -16.305  40.429 -11.624  0.00  0.00    -0.051 C 
ATOM      4  C   UNL     1     -17.206  40.036 -12.795  0.00  0.00    +0.054 C 
ATOM      5  C   UNL     1     -18.638  40.572 -12.630  0.00  0.00    -0.147 C 
ATOM      6  C   UNL     1     -18.516  42.097 -12.501  0.00  0.00    +0.432 C 
ATOM      7  N   UNL     1     -19.111  42.974 -13.248  0.00  0.00    -0.450 NA
ATOM      8  N   UNL     1     -17.584  42.548 -11.582  0.00  0.00    -0.701 N 
ATOM      9  H   UNL     1     -14.556  41.922 -10.810  0.00  0.00    +0.243 HD
ATOM     10  H   UNL     1     -18.060  42.697 -10.697  0.00  0.00    +0.298 HD
ENDROOT
BRANCH   5  11
ATOM     11  C   UNL     1     -19.319  39.925 -11.424  0.00  0.00    +0.520 C 
ATOM     12  O   UNL     1     -19.616  40.583 -10.426  0.00  0.00    -0.546 OA
BRANCH  11  13
ATOM     13  N   UNL     1     -19.504  38.612 -11.551  0.00  0.00    -0.675 NA
ATOM     14  H   UNL     1     -18.743  38.079 -11.118  0.00  0.00    +0.242 HD
ENDBRANCH  11  13
ENDBRANCH   5  11
BRANCH   7  15
ATOM     15  C   UNL     1     -19.936  42.513 -14.352  0.00  0.00    +0.105 C 
BRANCH  15  16
ATOM     16  C   UNL     1     -19.841  43.454 -15.533  0.00  0.00    +0.045 A 
ATOM     17  C   UNL     1     -19.207  44.699 -15.403  0.00  0.00    -0.014 A 
ATOM     18  C   UNL     1     -19.098  45.554 -16.499  0.00  0.00    -0.030 A 
ATOM     19  C   UNL     1     -19.616  45.172 -17.736  0.00  0.00    -0.047 A 
ATOM     20  C   UNL     1     -20.245  43.937 -17.875  0.00  0.00    -0.031 A 
ATOM     21  C   UNL     1     -20.357  43.081 -16.781  0.00  0.00    -0.056 A 
ENDBRANCH  15  16
ENDBRANCH   7  15
TORSDOF 4
ENDMDL
MODEL 4
REMARK VINA RESULT:    -5.940      3.771      5.989
REMARK INTER + INTRA:          -7.780
REMARK INTER:                  -6.893
REMARK INTRA:                  -0.887
REMARK UNBOUND:                -0.624
REMARK  Name = 
REMARK  4 active torsions:
REMARK  status: ('A' for Active; 'I' for Inactive)
REMARK    1  A    between atoms: C_5  and  C_6
REMARK    2  A    between atoms: C_6  and  N_7
REMARK    3  A    between atoms: N_10  and  C_11
REMARK    4  A    between atoms: C_11  and  C_12
REMARK                            x       y       z     vdW  Elec       q    Type
REMARK                         _______ _______ _______ _____ _____    ______ ____
ROOT
ATOM      1  N   UNL     1     -14.729  46.814 -15.269  0.00  0.00    -0.678 NA
ATOM      2  C   UNL     1     -15.510  46.372 -14.334  0.00  0.00    +0.487 C 
ATOM      3  C   UNL     1     -16.056  47.313 -13.273  0.00  0.00    -0.051 C 
ATOM      4  C   UNL     1     -16.239  46.598 -11.933  0.00  0.00    +0.054 C 
ATOM      5  C   UNL     1     -17.026  45.286 -12.079  0.00  0.00    -0.147 C 
ATOM      6  C   UNL     1     -16.241  44.420 -13.075  0.00  0.00    +0.432 C 
ATOM      7  N   UNL     1     -15.803  43.219 -12.859  0.00  0.00    -0.450 NA
ATOM      8  N   UNL     1     -15.874  45.048 -14.253  0.00  0.00    -0.701 N 
ATOM      9  H   UNL     1     -14.552  47.812 -15.128  0.00  0.00    +0.243 HD
ATOM     10  H   UNL     1     -16.594  44.864 -14.947  0.00  0.00    +0.298 HD
ENDROOT
BRANCH   5  11
ATOM     11  C   UNL     1     -18.459  45.565 -12.532  0.00  0.00    +0.520 C 
ATOM     12  O   UNL     1     -19.137  46.450 -12.007  0.00  0.00    -0.546 OA
BRANCH  11  13
ATOM     13  N   UNL     1     -18.891  44.744 -13.487  0.00  0.00    -0.675 NA
ATOM     14  H   UNL     1     -18.740  45.138 -14.422  0.00  0.00    +0.242 HD
ENDBRANCH  11  13
ENDBRANCH   5  11
BRANCH   7  15
ATOM     15  C   UNL     1     -16.004  42.623 -11.550  0.00  0.00    +0.105 C 
BRANCH  15  16
ATOM     16  C   UNL     1     -17.051  41.532 -11.603  0.00  0.00    +0.045 A 
ATOM     17  C   UNL     1     -17.803  41.211 -10.463  0.00  0.00    -0.014 A 
ATOM     18  C   UNL     1     -18.786  40.223 -10.520  0.00  0.00    -0.030 A 
ATOM     19  C   UNL     1     -19.030  39.550 -11.717  0.00  0.00    -0.047 A 
ATOM     20  C   UNL     1     -18.290  39.864 -12.855  0.00  0.00    -0.031 A 
ATOM     21  C   UNL     1     -17.307  40.849 -12.800  0.00  0.00    -0.056 A 
ENDBRANCH  15  16
ENDBRANCH   7  15
TORSDOF 4
ENDMDL
MODEL 5
REMARK VINA RESULT:    -5.835      3.078      6.689
REMARK INTER + INTRA:          -7.654
REMARK INTER:                  -6.712
REMARK INTRA:                  -0.942
REMARK UNBOUND:                -0.624
REMARK  Name = 
REMARK  4 active torsions:
REMARK  status: ('A' for Active; 'I' for Inactive)
REMARK    1  A    between atoms: C_5  and  C_6
REMARK    2  A    between atoms: C_6  and  N_7
REMARK    3  A    between atoms: N_10  and  C_11
REMARK    4  A    between atoms: C_11  and  C_12
REMARK                            x       y       z     vdW  Elec       q    Type
REMARK                         _______ _______ _______ _____ _____    ______ ____
ROOT
ATOM      1  N   UNL     1     -18.511  41.413  -8.293  0.00  0.00    -0.678 NA
ATOM      2  C   UNL     1     -18.201  41.372  -9.551  0.00  0.00    +0.487 C 
ATOM      3  C   UNL     1     -17.690  40.087 -10.180  0.00  0.00    -0.051 C 
ATOM      4  C   UNL     1     -16.694  40.372 -11.305  0.00  0.00    +0.054 C 
ATOM      5  C   UNL     1     -17.237  41.397 -12.314  0.00  0.00    -0.147 C 
ATOM      6  C   UNL     1     -17.559  42.666 -11.511  0.00  0.00    +0.432 C 
ATOM      7  N   UNL     1     -17.092  43.853 -11.746  0.00  0.00    -0.450 NA
ATOM      8  N   UNL     1     -18.313  42.475 -10.366  0.00  0.00    -0.701 N 
ATOM      9  H   UNL     1     -18.321  40.506  -7.861  0.00  0.00    +0.243 HD
ATOM     10  H   UNL     1     -19.292  42.604 -10.608  0.00  0.00    +0.298 HD
ENDROOT
BRANCH   5  11
ATOM     11  C   UNL     1     -18.454  40.833 -13.050  0.00  0.00    +0.520 C 
ATOM     12  O   UNL     1     -18.451  39.692 -13.513  0.00  0.00    -0.546 OA
BRANCH  11  13
ATOM     13  N   UNL     1     -19.458  41.699 -13.170  0.00  0.00    -0.675 NA
ATOM     14  H   UNL     1     -20.314  41.350 -12.727  0.00  0.00    +0.242 HD
ENDBRANCH  11  13
ENDBRANCH   5  11
BRANCH   7  15
ATOM     15  C   UNL     1     -16.136  44.031 -12.824  0.00  0.00    +0.105 C 
BRANCH  15  16
ATOM     16  C   UNL     1     -14.777  44.427 -12.287  0.00  0.00    +0.045 A 
ATOM     17  C   UNL     1     -13.795  43.455 -12.046  0.00  0.00    -0.014 A 
ATOM     18  C   UNL     1     -12.535  43.823 -11.576  0.00  0.00    -0.030 A 
ATOM     19  C   UNL     1     -12.242  45.167 -11.348  0.00  0.00    -0.047 A 
ATOM     20  C   UNL     1     -13.210  46.141 -11.587  0.00  0.00    -0.031 A 
ATOM     21  C   UNL     1     -14.470  45.775 -12.054  0.00  0.00    -0.056 A 
ENDBRANCH  15  16
ENDBRANCH   7  15
TORSDOF 4
ENDMDL
