MODEL 1
REMARK VINA RESULT:    -8.674      0.000      0.000
REMARK INTER + INTRA:         -11.407
REMARK INTER:                 -10.956
REMARK INTRA:                  -0.451
REMARK UNBOUND:                -0.451
REMARK  Name = 
REMARK  5 active torsions:
REMARK  status: ('A' for Active; 'I' for Inactive)
REMARK    1  A    between atoms: C_2  and  N_3
REMARK    2  A    between atoms: C_2  and  C_19
REMARK    3  A    between atoms: C_4  and  O_5
REMARK    4  A    between atoms: C_4  and  C_6
REMARK    5  A    between atoms: N_10  and  C_11
REMARK                            x       y       z     vdW  Elec       q    Type
REMARK                         _______ _______ _______ _____ _____    ______ ____
ROOT
ATOM      1  C   UNL     1     -18.107  41.625 -11.652  0.00  0.00    -0.055 A 
ATOM      2  C   UNL     1     -17.951  42.994 -11.868  0.00  0.00    +0.154 A 
ATOM      3  C   UNL     1     -18.665  43.613 -12.889  0.00  0.00    -0.011 A 
ATOM      4  C   UNL     1     -19.502  42.859 -13.709  0.00  0.00    +0.443 A 
ATOM      5  N   UNL     1     -20.230  43.572 -14.677  0.00  0.00    -0.654 N 
ATOM      6  N   UNL     1     -19.627  41.523 -13.555  0.00  0.00    -0.404 NA
ATOM      7  C   UNL     1     -18.942  40.942 -12.528  0.00  0.00    +0.276 A 
ATOM      8  H   UNL     1     -20.832  44.265 -14.249  0.00  0.00    +0.299 HD
ENDROOT
BRANCH   5   9
ATOM      9  C   UNL     1     -20.696  43.084 -15.869  0.00  0.00    +0.263 C 
ATOM     10  C   UNL     1     -19.910  43.487 -17.013  0.00  0.00    -0.030 C 
ATOM     11  C   UNL     1     -20.435  44.430 -18.127  0.00  0.00    +0.167 C 
ATOM     12  N   UNL     1     -21.753  45.076 -18.385  0.00  0.00    -0.533 NA
ATOM     13  C   UNL     1     -22.490  44.417 -17.276  0.00  0.00    +0.167 C 
ATOM     14  C   UNL     1     -22.067  43.471 -16.125  0.00  0.00    -0.064 C 
ATOM     15  H   UNL     1     -22.122  44.774 -19.283  0.00  0.00    +0.286 HD
ENDBRANCH   5   9
BRANCH   1  17
ATOM     16  N   UNL     1     -17.935  40.489  -9.379  0.00  0.00    -0.501 NA
ATOM     17  C   UNL     1     -17.490  40.995 -10.473  0.00  0.00    +0.471 C 
BRANCH  16  19
ATOM     18  O   UNL     1     -19.977  39.506  -9.760  0.00  0.00    -0.495 OA
ATOM     19  C   UNL     1     -19.283  40.340  -9.194  0.00  0.00    +0.474 C 
BRANCH  19  20
ATOM     20  C   UNL     1     -19.839  41.254  -8.191  0.00  0.00    +0.095 A 
ATOM     21  C   UNL     1     -21.206  41.362  -7.847  0.00  0.00    +0.226 A 
ATOM     22  N   UNL     1     -21.374  42.288  -6.897  0.00  0.00    -0.173 NA
ATOM     23  N   UNL     1     -20.110  42.697  -6.703  0.00  0.00    -0.262 N 
ATOM     24  N   UNL     1     -19.141  42.135  -7.441  0.00  0.00    -0.156 NA
ATOM     25  H   UNL     1     -19.900  43.416  -6.011  0.00  0.00    +0.269 HD
ENDBRANCH  19  20
ENDBRANCH  16  19
BRANCH  17  26
ATOM     26  O   UNL     1     -16.150  41.011 -10.618  0.00  0.00    -0.591 OA
ATOM     27  H   UNL     1     -15.866  41.941 -10.682  0.00  0.00    +0.338 HD
ENDBRANCH  17  26
ENDBRANCH   1  17
TORSDOF 5
ENDMDL
MODEL 2
REMARK VINA RESULT:    -8.119      3.157      4.051
REMARK INTER + INTRA:         -10.705
REMARK INTER:                 -10.631
REMARK INTRA:                  -0.074
REMARK UNBOUND:                -0.451
REMARK  Name = 
REMARK  5 active torsions:
REMARK  status: ('A' for Active; 'I' for Inactive)
REMARK    1  A    between atoms: C_2  and  N_3
REMARK    2  A    between atoms: C_2  and  C_19
REMARK    3  A    between atoms: C_4  and  O_5
REMARK    4  A    between atoms: C_4  and  C_6
REMARK    5  A    between atoms: N_10  and  C_11
REMARK                            x       y       z     vdW  Elec       q    Type
REMARK                         _______ _______ _______ _____ _____    ______ ____
ROOT
ATOM      1  C   UNL     1     -18.881  41.091 -11.046  0.00  0.00    -0.055 A 
ATOM      2  C   UNL     1     -19.555  41.514 -12.192  0.00  0.00    +0.154 A 
ATOM      3  C   UNL     1     -18.947  42.428 -13.047  0.00  0.00    -0.011 A 
ATOM      4  C   UNL     1     -17.687  42.939 -12.737  0.00  0.00    +0.443 A 
ATOM      5  N   UNL     1     -17.121  43.811 -13.684  0.00  0.00    -0.654 N 
ATOM      6  N   UNL     1     -17.040  42.586 -11.606  0.00  0.00    -0.404 NA
ATOM      7  C   UNL     1     -17.641  41.666 -10.798  0.00  0.00    +0.276 A 
ATOM      8  H   UNL     1     -17.010  43.357 -14.583  0.00  0.00    +0.299 HD
ENDROOT
BRANCH   5   9
ATOM      9  C   UNL     1     -16.204  44.797 -13.437  0.00  0.00    +0.263 C 
ATOM     10  C   UNL     1     -16.527  45.621 -12.293  0.00  0.00    -0.030 C 
ATOM     11  C   UNL     1     -16.901  47.123 -12.396  0.00  0.00    +0.167 C 
ATOM     12  N   UNL     1     -16.970  48.086 -13.531  0.00  0.00    -0.533 NA
ATOM     13  C   UNL     1     -16.424  47.173 -14.568  0.00  0.00    +0.167 C 
ATOM     14  C   UNL     1     -16.022  45.677 -14.571  0.00  0.00    -0.064 C 
ATOM     15  H   UNL     1     -16.332  48.862 -13.372  0.00  0.00    +0.286 HD
ENDBRANCH   5   9
BRANCH   1  17
ATOM     16  N   UNL     1     -19.809  39.886  -9.003  0.00  0.00    -0.501 NA
ATOM     17  C   UNL     1     -19.441  40.002 -10.228  0.00  0.00    +0.471 C 
BRANCH  16  19
ATOM     18  O   UNL     1     -18.869  41.667  -7.894  0.00  0.00    -0.495 OA
ATOM     19  C   UNL     1     -19.844  40.989  -8.193  0.00  0.00    +0.474 C 
BRANCH  19  20
ATOM     20  C   UNL     1     -21.194  41.338  -7.739  0.00  0.00    +0.095 A 
ATOM     21  C   UNL     1     -21.542  42.500  -7.014  0.00  0.00    +0.226 A 
ATOM     22  N   UNL     1     -22.854  42.513  -6.759  0.00  0.00    -0.173 NA
ATOM     23  N   UNL     1     -23.246  41.369  -7.342  0.00  0.00    -0.262 N 
ATOM     24  N   UNL     1     -22.315  40.609  -7.938  0.00  0.00    -0.156 NA
ATOM     25  H   UNL     1     -24.227  41.090  -7.326  0.00  0.00    +0.269 HD
ENDBRANCH  19  20
ENDBRANCH  16  19
BRANCH  17  26
ATOM     26  O   UNL     1     -19.533  38.890 -10.984  0.00  0.00    -0.591 OA
ATOM     27  H   UNL     1     -20.186  39.058 -11.687  0.00  0.00    +0.338 HD
ENDBRANCH  17  26
ENDBRANCH   1  17
TORSDOF 5
ENDMDL
MODEL 3
REMARK VINA RESULT:    -7.475      1.888      2.403
REMARK INTER + INTRA:          -9.892
REMARK INTER:                  -9.914
REMARK INTRA:                   0.022
REMARK UNBOUND:                -0.451
REMARK  Name = 
REMARK  5 active torsions:
REMARK  status: ('A' for Active; 'I' for Inactive)
REMARK    1  A    between atoms: C_2  and  N_3
REMARK    2  A    between atoms: C_2  and  C_19
REMARK    3  A    between atoms: C_4  and  O_5
REMARK    4  A    between atoms: C_4  and  C_6
REMARK    5  A    between atoms: N_10  and  C_11
REMARK                            x       y       z     vdW  Elec       q    Type
REMARK                         _______ _______ _______ _____ _____    ______ ____
ROOT
ATOM      1  C   UNL     1     -17.225  42.815 -12.737  0.00  0.00    -0.055 A 
ATOM      2  C   UNL     1     -17.440  44.166 -13.010  0.00  0.00    +0.154 A 
ATOM      3  C   UNL     1     -18.471  44.537 -13.867  0.00  0.00    -0.011 A 
ATOM      4  C   UNL     1     -19.258  43.558 -14.473  0.00  0.00    +0.443 A 
ATOM      5  N   UNL     1     -20.313  44.022 -15.278  0.00  0.00    -0.654 N 
ATOM      6  N   UNL     1     -19.033  42.243 -14.268  0.00  0.00    -0.404 NA
ATOM      7  C   UNL     1     -18.037  41.903 -13.399  0.00  0.00    +0.276 A 
ATOM      8  H   UNL     1     -20.960  44.590 -14.746  0.00  0.00    +0.299 HD
ENDROOT
BRANCH   5   9
ATOM      9  C   UNL     1     -20.885  43.359 -16.331  0.00  0.00    +0.263 C 
ATOM     10  C   UNL     1     -20.115  43.430 -17.553  0.00  0.00    -0.030 C 
ATOM     11  C   UNL     1     -20.587  44.182 -18.825  0.00  0.00    +0.167 C 
ATOM     12  N   UNL     1     -21.839  44.909 -19.178  0.00  0.00    -0.533 NA
ATOM     13  C   UNL     1     -22.590  44.577 -17.939  0.00  0.00    +0.167 C 
ATOM     14  C   UNL     1     -22.217  43.841 -16.628  0.00  0.00    -0.064 C 
ATOM     15  H   UNL     1     -22.281  44.476 -19.985  0.00  0.00    +0.286 HD
ENDBRANCH   5   9
BRANCH   1  17
ATOM     16  N   UNL     1     -16.051  41.365 -11.002  0.00  0.00    -0.501 NA
ATOM     17  C   UNL     1     -16.251  42.423 -11.704  0.00  0.00    +0.471 C 
BRANCH  16  19
ATOM     18  O   UNL     1     -16.418  39.334 -12.014  0.00  0.00    -0.495 OA
ATOM     19  C   UNL     1     -16.771  40.230 -11.258  0.00  0.00    +0.474 C 
BRANCH  19  20
ATOM     20  C   UNL     1     -18.016  40.142 -10.487  0.00  0.00    +0.095 A 
ATOM     21  C   UNL     1     -18.255  40.764  -9.241  0.00  0.00    +0.226 A 
ATOM     22  N   UNL     1     -19.490  40.484  -8.811  0.00  0.00    -0.173 NA
ATOM     23  N   UNL     1     -19.947  39.713  -9.810  0.00  0.00    -0.262 N 
ATOM     24  N   UNL     1     -19.125  39.456 -10.839  0.00  0.00    -0.156 NA
ATOM     25  H   UNL     1     -20.893  39.335  -9.781  0.00  0.00    +0.269 HD
ENDBRANCH  19  20
ENDBRANCH  16  19
BRANCH  17  26
ATOM     26  O   UNL     1     -15.430  43.463 -11.458  0.00  0.00    -0.591 OA
ATOM     27  H   UNL     1     -15.898  44.081 -10.867  0.00  0.00    +0.338 HD
ENDBRANCH  17  26
ENDBRANCH   1  17
TORSDOF 5
ENDMDL
MODEL 4
REMARK VINA RESULT:    -7.349      2.083      2.630
REMARK INTER + INTRA:          -9.733
REMARK INTER:                  -9.345
REMARK INTRA:                  -0.387
REMARK UNBOUND:                -0.451
REMARK  Name = 
REMARK  5 active torsions:
REMARK  status: ('A' for Active; 'I' for Inactive)
REMARK    1  A    between atoms: C_2  and  N_3
REMARK    2  A    between atoms: C_2  and  C_19
REMARK    3  A    between atoms: C_4  and  O_5
REMARK    4  A    between atoms: C_4  and  C_6
REMARK    5  A    between atoms: N_10  and  C_11
REMARK                            x       y       z     vdW  Elec       q    Type
REMARK                         _______ _______ _______ _____ _____    ______ ____
ROOT
ATOM      1  C   UNL     1     -18.957  40.959 -12.562  0.00  0.00    -0.055 A 
ATOM      2  C   UNL     1     -17.644  41.232 -12.945  0.00  0.00    +0.154 A 
ATOM      3  C   UNL     1     -17.342  42.452 -13.542  0.00  0.00    -0.011 A 
ATOM      4  C   UNL     1     -18.357  43.377 -13.785  0.00  0.00    +0.443 A 
ATOM      5  N   UNL     1     -17.956  44.606 -14.337  0.00  0.00    -0.654 N 
ATOM      6  N   UNL     1     -19.644  43.113 -13.473  0.00  0.00    -0.404 NA
ATOM      7  C   UNL     1     -19.912  41.924 -12.860  0.00  0.00    +0.276 A 
ATOM      8  H   UNL     1     -17.299  45.085 -13.733  0.00  0.00    +0.299 HD
ENDROOT
BRANCH   5   9
ATOM      9  C   UNL     1     -18.722  45.441 -15.106  0.00  0.00    +0.263 C 
ATOM     10  C   UNL     1     -19.259  44.814 -16.293  0.00  0.00    -0.030 C 
ATOM     11  C   UNL     1     -18.839  45.204 -17.735  0.00  0.00    +0.167 C 
ATOM     12  N   UNL     1     -17.933  46.249 -18.290  0.00  0.00    -0.533 NA
ATOM     13  C   UNL     1     -17.634  46.924 -17.001  0.00  0.00    +0.167 C 
ATOM     14  C   UNL     1     -17.999  46.622 -15.526  0.00  0.00    -0.064 C 
ATOM     15  H   UNL     1     -18.452  46.872 -18.904  0.00  0.00    +0.286 HD
ENDBRANCH   5   9
BRANCH   1  17
ATOM     16  N   UNL     1     -18.982  39.349 -10.589  0.00  0.00    -0.501 NA
ATOM     17  C   UNL     1     -19.255  39.748 -11.779  0.00  0.00    +0.471 C 
BRANCH  16  19
ATOM     18  O   UNL     1     -17.178  40.455  -9.691  0.00  0.00    -0.495 OA
ATOM     19  C   UNL     1     -18.376  40.200  -9.705  0.00  0.00    +0.474 C 
BRANCH  19  20
ATOM     20  C   UNL     1     -19.312  40.846  -8.780  0.00  0.00    +0.095 A 
ATOM     21  C   UNL     1     -20.694  40.566  -8.682  0.00  0.00    +0.226 A 
ATOM     22  N   UNL     1     -21.257  41.329  -7.739  0.00  0.00    -0.173 NA
ATOM     23  N   UNL     1     -20.199  42.031  -7.303  0.00  0.00    -0.262 N 
ATOM     24  N   UNL     1     -19.008  41.807  -7.880  0.00  0.00    -0.156 NA
ATOM     25  H   UNL     1     -20.305  42.716  -6.555  0.00  0.00    +0.269 HD
ENDBRANCH  19  20
ENDBRANCH  16  19
BRANCH  17  26
ATOM     26  O   UNL     1     -19.944  38.885 -12.552  0.00  0.00    -0.591 OA
ATOM     27  H   UNL     1     -20.891  38.995 -12.352  0.00  0.00    +0.338 HD
ENDBRANCH  17  26
ENDBRANCH   1  17
TORSDOF 5
ENDMDL
MODEL 5
REMARK VINA RESULT:    -7.310      2.478      7.309
REMARK INTER + INTRA:          -9.684
REMARK INTER:                  -9.953
REMARK INTRA:                   0.269
REMARK UNBOUND:                -0.451
REMARK  Name = 
REMARK  5 active torsions:
REMARK  status: ('A' for Active; 'I' for Inactive)
REMARK    1  A    between atoms: C_2  and  N_3
REMARK    2  A    between atoms: C_2  and  C_19
REMARK    3  A    between atoms: C_4  and  O_5
REMARK    4  A    between atoms: C_4  and  C_6
REMARK    5  A    between atoms: N_10  and  C_11
REMARK                            x       y       z     vdW  Elec       q    Type
REMARK                         _______ _______ _______ _____ _____    ______ ____
ROOT
ATOM      1  C   UNL     1     -17.219  42.511 -12.044  0.00  0.00    -0.055 A 
ATOM      2  C   UNL     1     -17.530  41.242 -12.531  0.00  0.00    +0.154 A 
ATOM      3  C   UNL     1     -18.396  40.425 -11.812  0.00  0.00    -0.011 A 
ATOM      4  C   UNL     1     -18.920  40.865 -10.597  0.00  0.00    +0.443 A 
ATOM      5  N   UNL     1     -19.833  40.002  -9.965  0.00  0.00    -0.654 N 
ATOM      6  N   UNL     1     -18.590  42.068 -10.079  0.00  0.00    -0.404 NA
ATOM      7  C   UNL     1     -17.764  42.865 -10.816  0.00  0.00    +0.276 A 
ATOM      8  H   UNL     1     -20.638  39.824 -10.552  0.00  0.00    +0.299 HD
ENDROOT
BRANCH   5   9
ATOM      9  C   UNL     1     -20.091  39.933  -8.622  0.00  0.00    +0.263 C 
ATOM     10  C   UNL     1     -21.452  40.274  -8.271  0.00  0.00    -0.030 C 
ATOM     11  C   UNL     1     -21.837  41.534  -7.452  0.00  0.00    +0.167 C 
ATOM     12  N   UNL     1     -21.042  42.609  -6.792  0.00  0.00    -0.533 NA
ATOM     13  C   UNL     1     -19.703  42.021  -7.053  0.00  0.00    +0.167 C 
ATOM     14  C   UNL     1     -19.215  40.784  -7.848  0.00  0.00    -0.064 C 
ATOM     15  H   UNL     1     -21.233  42.623  -5.794  0.00  0.00    +0.286 HD
ENDBRANCH   5   9
BRANCH   1  17
ATOM     16  N   UNL     1     -16.732  44.448 -13.626  0.00  0.00    -0.501 NA
ATOM     17  C   UNL     1     -16.442  43.444 -12.878  0.00  0.00    +0.471 C 
BRANCH  16  19
ATOM     18  O   UNL     1     -18.457  45.769 -12.877  0.00  0.00    -0.495 OA
ATOM     19  C   UNL     1     -18.012  44.933 -13.653  0.00  0.00    +0.474 C 
BRANCH  19  20
ATOM     20  C   UNL     1     -18.818  44.393 -14.752  0.00  0.00    +0.095 A 
ATOM     21  C   UNL     1     -19.551  43.185 -14.717  0.00  0.00    +0.226 A 
ATOM     22  N   UNL     1     -20.175  42.987 -15.882  0.00  0.00    -0.173 NA
ATOM     23  N   UNL     1     -19.802  44.078 -16.569  0.00  0.00    -0.262 N 
ATOM     24  N   UNL     1     -18.987  44.958 -15.968  0.00  0.00    -0.156 NA
ATOM     25  H   UNL     1     -20.132  44.227 -17.522  0.00  0.00    +0.269 HD
ENDBRANCH  19  20
ENDBRANCH  16  19
BRANCH  17  26
ATOM     26  O   UNL     1     -15.141  43.095 -12.831  0.00  0.00    -0.591 OA
ATOM     27  H   UNL     1     -14.642  43.845 -12.462  0.00  0.00    +0.338 HD
ENDBRANCH  17  26
ENDBRANCH   1  17
TORSDOF 5
ENDMDL
