MODEL 1
REMARK VINA RESULT:    -8.208      0.000      0.000
REMARK INTER + INTRA:         -10.812
REMARK INTER:                 -10.607
REMARK INTRA:                  -0.205
REMARK UNBOUND:                -0.205
REMARK  Name = 
REMARK  7 active torsions:
REMARK  status: ('A' for Active; 'I' for Inactive)
REMARK    1  A    between atoms: C_1  and  C_2
REMARK    2  A    between atoms: C_2  and  C_3
REMARK    3  A    between atoms: C_3  and  C_4
REMARK    4  A    between atoms: C_4  and  C_5
REMARK    5  A    between atoms: C_4  and  C_6
REMARK    6  A    between atoms: C_10  and  C_11
REMARK    7  A    between atoms: C_11  and  N_13
REMARK                            x       y       z     vdW  Elec       q    Type
REMARK                         _______ _______ _______ _____ _____    ______ ____
ROOT
ATOM      1  C   UNL     1     -20.051  40.140  -9.293  0.00  0.00    +0.513 C 
ATOM      2  O   UNL     1     -20.472  39.046  -8.910  0.00  0.00    -0.452 OA
ATOM      3  N   UNL     1     -19.274  40.332 -10.449  0.00  0.00    -0.547 N 
ATOM      4  C   UNL     1     -18.485  41.437 -10.737  0.00  0.00    +0.244 C 
ATOM      5  C   UNL     1     -17.729  41.868 -11.723  0.00  0.00    -0.146 C 
ATOM      6  C   UNL     1     -17.815  40.854 -12.738  0.00  0.00    +0.125 C 
ATOM      7  C   UNL     1     -18.442  39.824 -12.650  0.00  0.00    -0.055 C 
ATOM      8  C   UNL     1     -19.280  39.380 -11.525  0.00  0.00    +0.469 C 
ATOM      9  N   UNL     1     -19.918  38.283 -11.672  0.00  0.00    -0.484 NA
ATOM     10  H   UNL     1     -19.722  37.822 -12.565  0.00  0.00    +0.317 HD
ENDROOT
BRANCH   1  11
ATOM     11  C   UNL     1     -20.354  41.426  -8.493  0.00  0.00    +0.065 C 
ATOM     12  C   UNL     1     -19.200  41.778  -7.549  0.00  0.00    +0.291 C 
BRANCH  11  13
ATOM     13  C   UNL     1     -21.684  41.236  -7.733  0.00  0.00    +0.166 C 
BRANCH  13  15
ATOM     14  C   UNL     1     -21.789  42.422  -5.500  0.00  0.00    +0.256 C 
ATOM     15  C   UNL     1     -22.139  42.490  -6.979  0.00  0.00    +0.182 C 
ENDBRANCH  13  15
ENDBRANCH  11  13
ENDBRANCH   1  11
BRANCH   5  16
ATOM     16  C   UNL     1     -17.218  43.244 -11.759  0.00  0.00    +0.532 C 
ATOM     17  O   UNL     1     -17.987  44.196 -11.718  0.00  0.00    -0.484 OA
BRANCH  16  18
ATOM     18  N   UNL     1     -15.890  43.646 -12.028  0.00  0.00    -0.651 NA
ATOM     19  C   UNL     1     -15.641  45.122 -12.075  0.00  0.00    +0.228 C 
ATOM     20  C   UNL     1     -14.365  45.962 -11.924  0.00  0.00    +0.054 C 
ATOM     21  C   UNL     1     -13.194  45.035 -11.549  0.00  0.00    +0.068 C 
ATOM     22  C   UNL     1     -13.155  43.579 -11.297  0.00  0.00    +0.327 C 
ATOM     23  F   UNL     1     -12.422  42.948 -12.236  0.00  0.00    -0.265 F 
ATOM     24  F   UNL     1     -12.683  43.293 -10.074  0.00  0.00    -0.261 F 
ATOM     25  C   UNL     1     -14.599  43.163 -11.462  0.00  0.00    +0.192 C 
ATOM     26  H   UNL     1     -15.868  43.452 -13.040  0.00  0.00    +0.315 HD
ENDBRANCH  16  18
ENDBRANCH   5  16
TORSDOF 5
ENDMDL
MODEL 2
REMARK VINA RESULT:    -8.047      2.646      3.142
REMARK INTER + INTRA:         -10.604
REMARK INTER:                 -10.329
REMARK INTRA:                  -0.275
REMARK UNBOUND:                -0.205
REMARK  Name = 
REMARK  7 active torsions:
REMARK  status: ('A' for Active; 'I' for Inactive)
REMARK    1  A    between atoms: C_1  and  C_2
REMARK    2  A    between atoms: C_2  and  C_3
REMARK    3  A    between atoms: C_3  and  C_4
REMARK    4  A    between atoms: C_4  and  C_5
REMARK    5  A    between atoms: C_4  and  C_6
REMARK    6  A    between atoms: C_10  and  C_11
REMARK    7  A    between atoms: C_11  and  N_13
REMARK                            x       y       z     vdW  Elec       q    Type
REMARK                         _______ _______ _______ _____ _____    ______ ____
ROOT
ATOM      1  C   UNL     1     -20.055  40.103  -9.322  0.00  0.00    +0.513 C 
ATOM      2  O   UNL     1     -20.498  39.025  -8.921  0.00  0.00    -0.452 OA
ATOM      3  N   UNL     1     -19.287  40.261 -10.489  0.00  0.00    -0.547 N 
ATOM      4  C   UNL     1     -18.473  41.342 -10.801  0.00  0.00    +0.244 C 
ATOM      5  C   UNL     1     -17.718  41.741 -11.801  0.00  0.00    -0.146 C 
ATOM      6  C   UNL     1     -17.842  40.717 -12.801  0.00  0.00    +0.125 C 
ATOM      7  C   UNL     1     -18.494  39.705 -12.693  0.00  0.00    -0.055 C 
ATOM      8  C   UNL     1     -19.330  39.297 -11.554  0.00  0.00    +0.469 C 
ATOM      9  N   UNL     1     -19.997  38.214 -11.679  0.00  0.00    -0.484 NA
ATOM     10  H   UNL     1     -19.824  37.738 -12.569  0.00  0.00    +0.317 HD
ENDROOT
BRANCH   1  11
ATOM     11  C   UNL     1     -20.315  41.407  -8.536  0.00  0.00    +0.065 C 
ATOM     12  C   UNL     1     -19.126  41.761  -7.637  0.00  0.00    +0.291 C 
BRANCH  11  13
ATOM     13  C   UNL     1     -21.621  41.246  -7.728  0.00  0.00    +0.166 C 
BRANCH  13  15
ATOM     14  C   UNL     1     -21.786  42.394  -5.479  0.00  0.00    +0.256 C 
ATOM     15  C   UNL     1     -22.031  42.516  -6.975  0.00  0.00    +0.182 C 
ENDBRANCH  13  15
ENDBRANCH  11  13
ENDBRANCH   1  11
BRANCH   5  16
ATOM     16  C   UNL     1     -17.172  43.103 -11.860  0.00  0.00    +0.532 C 
ATOM     17  O   UNL     1     -16.161  43.398 -11.235  0.00  0.00    -0.484 OA
BRANCH  16  18
ATOM     18  N   UNL     1     -17.789  44.237 -12.436  0.00  0.00    -0.651 NA
ATOM     19  C   UNL     1     -17.702  45.508 -11.651  0.00  0.00    +0.228 C 
ATOM     20  C   UNL     1     -17.848  46.984 -12.050  0.00  0.00    +0.054 C 
ATOM     21  C   UNL     1     -18.000  47.078 -13.580  0.00  0.00    +0.068 C 
ATOM     22  C   UNL     1     -17.983  46.027 -14.620  0.00  0.00    +0.327 C 
ATOM     23  F   UNL     1     -19.185  45.926 -15.220  0.00  0.00    -0.265 F 
ATOM     24  F   UNL     1     -17.027  46.244 -15.537  0.00  0.00    -0.261 F 
ATOM     25  C   UNL     1     -17.737  44.763 -13.829  0.00  0.00    +0.192 C 
ATOM     26  H   UNL     1     -18.772  43.998 -12.239  0.00  0.00    +0.315 HD
ENDBRANCH  16  18
ENDBRANCH   5  16
TORSDOF 5
ENDMDL
MODEL 3
REMARK VINA RESULT:    -7.804      1.553      1.973
REMARK INTER + INTRA:         -10.290
REMARK INTER:                  -9.879
REMARK INTRA:                  -0.411
REMARK UNBOUND:                -0.205
REMARK  Name = 
REMARK  7 active torsions:
REMARK  status: ('A' for Active; 'I' for Inactive)
REMARK    1  A    between atoms: C_1  and  C_2
REMARK    2  A    between atoms: C_2  and  C_3
REMARK    3  A    between atoms: C_3  and  C_4
REMARK    4  A    between atoms: C_4  and  C_5
REMARK    5  A    between atoms: C_4  and  C_6
REMARK    6  A    between atoms: C_10  and  C_11
REMARK    7  A    between atoms: C_11  and  N_13
REMARK                            x       y       z     vdW  Elec       q    Type
REMARK                         _______ _______ _______ _____ _____    ______ ____
ROOT
ATOM      1  C   UNL     1     -19.928  40.261  -9.271  0.00  0.00    +0.513 C 
ATOM      2  O   UNL     1     -20.146  39.175  -8.730  0.00  0.00    -0.452 OA
ATOM      3  N   UNL     1     -19.351  40.414 -10.544  0.00  0.00    -0.547 N 
ATOM      4  C   UNL     1     -18.760  41.564 -11.049  0.00  0.00    +0.244 C 
ATOM      5  C   UNL     1     -18.211  41.968 -12.174  0.00  0.00    -0.146 C 
ATOM      6  C   UNL     1     -18.306  40.846 -13.066  0.00  0.00    +0.125 C 
ATOM      7  C   UNL     1     -18.776  39.767 -12.790  0.00  0.00    -0.055 C 
ATOM      8  C   UNL     1     -19.384  39.356 -11.516  0.00  0.00    +0.469 C 
ATOM      9  N   UNL     1     -19.889  38.183 -11.463  0.00  0.00    -0.484 NA
ATOM     10  H   UNL     1     -19.762  37.653 -12.330  0.00  0.00    +0.317 HD
ENDROOT
BRANCH   1  11
ATOM     11  C   UNL     1     -20.280  41.585  -8.556  0.00  0.00    +0.065 C 
ATOM     12  C   UNL     1     -19.104  42.091  -7.714  0.00  0.00    +0.291 C 
BRANCH  11  13
ATOM     13  C   UNL     1     -21.548  41.364  -7.702  0.00  0.00    +0.166 C 
BRANCH  13  15
ATOM     14  C   UNL     1     -21.669  42.350  -5.374  0.00  0.00    +0.256 C 
ATOM     15  C   UNL     1     -21.929  42.583  -6.855  0.00  0.00    +0.182 C 
ENDBRANCH  13  15
ENDBRANCH  11  13
ENDBRANCH   1  11
BRANCH   5  16
ATOM     16  C   UNL     1     -17.892  43.381 -12.413  0.00  0.00    +0.532 C 
ATOM     17  O   UNL     1     -18.477  44.014 -13.283  0.00  0.00    -0.484 OA
BRANCH  16  18
ATOM     18  N   UNL     1     -16.814  44.111 -11.861  0.00  0.00    -0.651 NA
ATOM     19  C   UNL     1     -15.500  43.398 -11.790  0.00  0.00    +0.228 C 
ATOM     20  C   UNL     1     -14.054  43.902 -11.667  0.00  0.00    +0.054 C 
ATOM     21  C   UNL     1     -14.049  45.440 -11.750  0.00  0.00    +0.068 C 
ATOM     22  C   UNL     1     -15.153  46.401 -11.957  0.00  0.00    +0.327 C 
ATOM     23  F   UNL     1     -15.331  47.170 -10.866  0.00  0.00    -0.265 F 
ATOM     24  F   UNL     1     -14.952  47.172 -13.038  0.00  0.00    -0.261 F 
ATOM     25  C   UNL     1     -16.362  45.508 -12.113  0.00  0.00    +0.192 C 
ATOM     26  H   UNL     1     -17.078  44.053 -10.866  0.00  0.00    +0.315 HD
ENDBRANCH  16  18
ENDBRANCH   5  16
TORSDOF 5
ENDMDL
MODEL 4
REMARK VINA RESULT:    -7.155      6.154      9.039
REMARK INTER + INTRA:          -9.451
REMARK INTER:                  -8.826
REMARK INTRA:                  -0.626
REMARK UNBOUND:                -0.205
REMARK  Name = 
REMARK  7 active torsions:
REMARK  status: ('A' for Active; 'I' for Inactive)
REMARK    1  A    between atoms: C_1  and  C_2
REMARK    2  A    between atoms: C_2  and  C_3
REMARK    3  A    between atoms: C_3  and  C_4
REMARK    4  A    between atoms: C_4  and  C_5
REMARK    5  A    between atoms: C_4  and  C_6
REMARK    6  A    between atoms: C_10  and  C_11
REMARK    7  A    between atoms: C_11  and  N_13
REMARK                            x       y       z     vdW  Elec       q    Type
REMARK                         _______ _______ _______ _____ _____    ______ ____
ROOT
ATOM      1  C   UNL     1     -19.252  45.752 -19.053  0.00  0.00    +0.513 C 
ATOM      2  O   UNL     1     -19.813  46.140 -20.080  0.00  0.00    -0.452 OA
ATOM      3  N   UNL     1     -19.827  44.877 -18.115  0.00  0.00    -0.547 N 
ATOM      4  C   UNL     1     -19.417  44.690 -16.802  0.00  0.00    +0.244 C 
ATOM      5  C   UNL     1     -19.739  43.934 -15.775  0.00  0.00    -0.146 C 
ATOM      6  C   UNL     1     -20.811  43.098 -16.242  0.00  0.00    +0.125 C 
ATOM      7  C   UNL     1     -21.301  43.136 -17.347  0.00  0.00    -0.055 C 
ATOM      8  C   UNL     1     -20.908  43.999 -18.470  0.00  0.00    +0.469 C 
ATOM      9  N   UNL     1     -21.515  43.822 -19.581  0.00  0.00    -0.484 NA
ATOM     10  H   UNL     1     -22.247  43.108 -19.528  0.00  0.00    +0.317 HD
ENDROOT
BRANCH   1  11
ATOM     11  C   UNL     1     -17.823  46.227 -18.706  0.00  0.00    +0.065 C 
ATOM     12  C   UNL     1     -17.576  47.655 -19.204  0.00  0.00    +0.291 C 
BRANCH  11  13
ATOM     13  C   UNL     1     -16.810  45.225 -19.301  0.00  0.00    +0.166 C 
BRANCH  13  15
ATOM     14  C   UNL     1     -14.430  45.624 -20.061  0.00  0.00    +0.256 C 
ATOM     15  C   UNL     1     -15.903  45.841 -20.372  0.00  0.00    +0.182 C 
ENDBRANCH  13  15
ENDBRANCH  11  13
ENDBRANCH   1  11
BRANCH   5  16
ATOM     16  C   UNL     1     -18.894  43.860 -14.576  0.00  0.00    +0.532 C 
ATOM     17  O   UNL     1     -18.310  44.854 -14.163  0.00  0.00    -0.484 OA
BRANCH  16  18
ATOM     18  N   UNL     1     -18.498  42.689 -13.892  0.00  0.00    -0.651 NA
ATOM     19  C   UNL     1     -17.198  42.761 -13.153  0.00  0.00    +0.228 C 
ATOM     20  C   UNL     1     -16.614  41.930 -12.001  0.00  0.00    +0.054 C 
ATOM     21  C   UNL     1     -17.680  40.934 -11.509  0.00  0.00    +0.068 C 
ATOM     22  C   UNL     1     -19.079  40.724 -11.938  0.00  0.00    +0.327 C 
ATOM     23  F   UNL     1     -19.231  39.512 -12.505  0.00  0.00    -0.265 F 
ATOM     24  F   UNL     1     -19.944  40.869 -10.921  0.00  0.00    -0.261 F 
ATOM     25  C   UNL     1     -19.274  41.777 -13.005  0.00  0.00    +0.192 C 
ATOM     26  H   UNL     1     -18.187  42.131 -14.701  0.00  0.00    +0.315 HD
ENDBRANCH  16  18
ENDBRANCH   5  16
TORSDOF 5
ENDMDL
MODEL 5
REMARK VINA RESULT:    -7.106      2.313      3.605
REMARK INTER + INTRA:          -9.388
REMARK INTER:                  -8.757
REMARK INTRA:                  -0.631
REMARK UNBOUND:                -0.205
REMARK  Name = 
REMARK  7 active torsions:
REMARK  status: ('A' for Active; 'I' for Inactive)
REMARK    1  A    between atoms: C_1  and  C_2
REMARK    2  A    between atoms: C_2  and  C_3
REMARK    3  A    between atoms: C_3  and  C_4
REMARK    4  A    between atoms: C_4  and  C_5
REMARK    5  A    between atoms: C_4  and  C_6
REMARK    6  A    between atoms: C_10  and  C_11
REMARK    7  A    between atoms: C_11  and  N_13
REMARK                            x       y       z     vdW  Elec       q    Type
REMARK                         _______ _______ _______ _____ _____    ______ ____
ROOT
ATOM      1  C   UNL     1     -18.068  41.113 -12.667  0.00  0.00    +0.513 C 
ATOM      2  O   UNL     1     -18.784  40.252 -13.184  0.00  0.00    -0.452 OA
ATOM      3  N   UNL     1     -17.929  42.425 -13.151  0.00  0.00    -0.547 N 
ATOM      4  C   UNL     1     -16.901  43.309 -12.852  0.00  0.00    +0.244 C 
ATOM      5  C   UNL     1     -16.572  44.554 -13.122  0.00  0.00    -0.146 C 
ATOM      6  C   UNL     1     -17.634  45.055 -13.949  0.00  0.00    +0.125 C 
ATOM      7  C   UNL     1     -18.596  44.422 -14.318  0.00  0.00    -0.055 C 
ATOM      8  C   UNL     1     -18.928  43.027 -13.990  0.00  0.00    +0.469 C 
ATOM      9  N   UNL     1     -20.039  42.574 -14.430  0.00  0.00    -0.484 NA
ATOM     10  H   UNL     1     -20.548  43.251 -15.005  0.00  0.00    +0.317 HD
ENDROOT
BRANCH   1  11
ATOM     11  C   UNL     1     -17.233  40.793 -11.407  0.00  0.00    +0.065 C 
ATOM     12  C   UNL     1     -16.207  39.690 -11.685  0.00  0.00    +0.291 C 
BRANCH  11  13
ATOM     13  C   UNL     1     -18.194  40.412 -10.260  0.00  0.00    +0.166 C 
BRANCH  13  15
ATOM     14  C   UNL     1     -19.307  41.109  -8.097  0.00  0.00    +0.256 C 
ATOM     15  C   UNL     1     -18.410  41.541  -9.246  0.00  0.00    +0.182 C 
ENDBRANCH  13  15
ENDBRANCH  11  13
ENDBRANCH   1  11
BRANCH   5  16
ATOM     16  C   UNL     1     -15.484  45.236 -12.410  0.00  0.00    +0.532 C 
ATOM     17  O   UNL     1     -15.619  46.391 -12.024  0.00  0.00    -0.484 OA
BRANCH  16  18
ATOM     18  N   UNL     1     -14.157  44.776 -12.253  0.00  0.00    -0.651 NA
ATOM     19  C   UNL     1     -13.252  45.636 -11.427  0.00  0.00    +0.228 C 
ATOM     20  C   UNL     1     -11.939  45.343 -10.684  0.00  0.00    +0.054 C 
ATOM     21  C   UNL     1     -11.636  43.836 -10.774  0.00  0.00    +0.068 C 
ATOM     22  C   UNL     1     -12.401  42.730 -11.390  0.00  0.00    +0.327 C 
ATOM     23  F   UNL     1     -11.728  42.203 -12.431  0.00  0.00    -0.265 F 
ATOM     24  F   UNL     1     -12.701  41.771 -10.500  0.00  0.00    -0.261 F 
ATOM     25  C   UNL     1     -13.636  43.420 -11.921  0.00  0.00    +0.192 C 
ATOM     26  H   UNL     1     -13.794  45.019 -13.186  0.00  0.00    +0.315 HD
ENDBRANCH  16  18
ENDBRANCH   5  16
TORSDOF 5
ENDMDL
