MODEL 1
REMARK VINA RESULT:    -7.798      0.000      0.000
REMARK INTER + INTRA:         -10.478
REMARK INTER:                  -9.850
REMARK INTRA:                  -0.629
REMARK UNBOUND:                -0.629
REMARK  Name = 
REMARK  5 active torsions:
REMARK  status: ('A' for Active; 'I' for Inactive)
REMARK    1  A    between atoms: C_4  and  C_5
REMARK    2  A    between atoms: C_5  and  N_6
REMARK    3  A    between atoms: C_7  and  O_8
REMARK    4  A    between atoms: C_7  and  C_9
REMARK    5  A    between atoms: N_13  and  C_14
REMARK                            x       y       z     vdW  Elec       q    Type
REMARK                         _______ _______ _______ _____ _____    ______ ____
ROOT
ATOM      1  C   UNL     1     -17.533  43.202 -11.509  0.00  0.00    -0.084 A 
ATOM      2  C   UNL     1     -17.560  44.592 -11.466  0.00  0.00    +0.130 A 
ATOM      3  C   UNL     1     -16.878  45.320 -12.437  0.00  0.00    -0.087 A 
ATOM      4  C   UNL     1     -16.172  44.661 -13.450  0.00  0.00    +0.503 A 
ATOM      5  N   UNL     1     -15.489  45.297 -14.454  0.00  0.00    -0.702 N 
ATOM      6  N   UNL     1     -16.147  43.319 -13.424  0.00  0.00    -0.702 N 
ATOM      7  C   UNL     1     -16.798  42.581 -12.507  0.00  0.00    +0.288 A 
ATOM      8  H   UNL     1     -14.925  44.767 -15.107  0.00  0.00    +0.280 HD
ATOM      9  H   UNL     1     -15.613  42.840 -14.140  0.00  0.00    +0.286 HD
ENDROOT
BRANCH   5  10
ATOM     10  C   UNL     1     -15.916  46.608 -14.966  0.00  0.00    +0.233 C 
ATOM     11  C   UNL     1     -17.053  46.387 -15.978  0.00  0.00    +0.048 C 
ATOM     12  C   UNL     1     -17.372  47.637 -16.789  0.00  0.00    +0.065 C 
ATOM     13  C   UNL     1     -16.119  48.199 -17.447  0.00  0.00    +0.063 C 
ATOM     14  C   UNL     1     -15.069  48.539 -16.397  0.00  0.00    +0.063 C 
ATOM     15  C   UNL     1     -14.696  47.314 -15.569  0.00  0.00    +0.062 C 
ENDBRANCH   5  10
BRANCH   1  17
ATOM     16  N   UNL     1     -18.104  42.626  -9.237  0.00  0.00    -0.507 NA
ATOM     17  C   UNL     1     -18.177  42.358 -10.497  0.00  0.00    +0.440 C 
BRANCH  17  18
ATOM     18  O   UNL     1     -18.834  41.328 -11.060  0.00  0.00    -0.611 OA
ATOM     19  H   UNL     1     -19.742  41.226 -10.711  0.00  0.00    +0.307 HD
ENDBRANCH  17  18
BRANCH  16  20
ATOM     20  C   UNL     1     -18.854  41.891  -8.400  0.00  0.00    +0.194 C 
BRANCH  20  24
ATOM     21  N   UNL     1     -21.816  43.145  -5.230  0.00  0.00    -0.569 NA
ATOM     22  C   UNL     1     -21.699  42.291  -6.182  0.00  0.00    +0.434 C 
ATOM     23  C   UNL     1     -20.337  41.982  -6.616  0.00  0.00    -0.086 C 
ATOM     24  C   UNL     1     -19.820  41.246  -7.580  0.00  0.00    -0.019 C 
ATOM     25  C   UNL     1     -20.960  40.567  -8.150  0.00  0.00    -0.066 C 
ATOM     26  C   UNL     1     -22.101  40.781  -7.847  0.00  0.00    +0.153 C 
ATOM     27  N   UNL     1     -22.717  41.676  -6.829  0.00  0.00    -0.397 NA
ATOM     28  H   UNL     1     -20.890  43.442  -4.918  0.00  0.00    +0.282 HD
ENDBRANCH  20  24
ENDBRANCH  16  20
ENDBRANCH   1  17
TORSDOF 5
ENDMDL
MODEL 2
REMARK VINA RESULT:    -7.677      3.503      9.449
REMARK INTER + INTRA:         -10.325
REMARK INTER:                 -10.765
REMARK INTRA:                   0.440
REMARK UNBOUND:                -0.629
REMARK  Name = 
REMARK  5 active torsions:
REMARK  status: ('A' for Active; 'I' for Inactive)
REMARK    1  A    between atoms: C_4  and  C_5
REMARK    2  A    between atoms: C_5  and  N_6
REMARK    3  A    between atoms: C_7  and  O_8
REMARK    4  A    between atoms: C_7  and  C_9
REMARK    5  A    between atoms: N_13  and  C_14
REMARK                            x       y       z     vdW  Elec       q    Type
REMARK                         _______ _______ _______ _____ _____    ______ ____
ROOT
ATOM      1  C   UNL     1     -18.557  42.545 -12.812  0.00  0.00    -0.084 A 
ATOM      2  C   UNL     1     -19.580  41.763 -12.285  0.00  0.00    +0.130 A 
ATOM      3  C   UNL     1     -19.429  41.202 -11.019  0.00  0.00    -0.087 A 
ATOM      4  C   UNL     1     -18.261  41.423 -10.282  0.00  0.00    +0.503 A 
ATOM      5  N   UNL     1     -18.036  40.925  -9.024  0.00  0.00    -0.702 N 
ATOM      6  N   UNL     1     -17.289  42.154 -10.852  0.00  0.00    -0.702 N 
ATOM      7  C   UNL     1     -17.400  42.718 -12.068  0.00  0.00    +0.288 A 
ATOM      8  H   UNL     1     -17.135  41.047  -8.577  0.00  0.00    +0.280 HD
ATOM      9  H   UNL     1     -16.431  42.292 -10.331  0.00  0.00    +0.286 HD
ENDROOT
BRANCH   5  10
ATOM     10  C   UNL     1     -19.139  40.686  -8.082  0.00  0.00    +0.233 C 
ATOM     11  C   UNL     1     -20.340  40.136  -8.872  0.00  0.00    +0.048 C 
ATOM     12  C   UNL     1     -21.628  40.130  -8.058  0.00  0.00    +0.065 C 
ATOM     13  C   UNL     1     -21.911  41.505  -7.468  0.00  0.00    +0.063 C 
ATOM     14  C   UNL     1     -20.759  41.955  -6.578  0.00  0.00    +0.063 C 
ATOM     15  C   UNL     1     -19.445  41.998  -7.351  0.00  0.00    +0.062 C 
ENDBRANCH   5  10
BRANCH   1  17
ATOM     16  N   UNL     1     -19.487  42.762 -15.028  0.00  0.00    -0.507 NA
ATOM     17  C   UNL     1     -18.608  43.128 -14.157  0.00  0.00    +0.440 C 
BRANCH  17  18
ATOM     18  O   UNL     1     -17.659  44.067 -14.322  0.00  0.00    -0.611 OA
ATOM     19  H   UNL     1     -16.954  43.783 -14.939  0.00  0.00    +0.307 HD
ENDBRANCH  17  18
BRANCH  16  20
ATOM     20  C   UNL     1     -19.558  43.461 -16.172  0.00  0.00    +0.194 C 
BRANCH  20  24
ATOM     21  N   UNL     1     -21.373  43.673 -20.302  0.00  0.00    -0.569 NA
ATOM     22  C   UNL     1     -20.984  44.453 -19.359  0.00  0.00    +0.434 C 
ATOM     23  C   UNL     1     -20.028  43.894 -18.404  0.00  0.00    -0.086 C 
ATOM     24  C   UNL     1     -19.470  44.332 -17.292  0.00  0.00    -0.019 C 
ATOM     25  C   UNL     1     -19.892  45.710 -17.210  0.00  0.00    -0.066 C 
ATOM     26  C   UNL     1     -20.679  46.227 -17.954  0.00  0.00    +0.153 C 
ATOM     27  N   UNL     1     -21.396  45.727 -19.159  0.00  0.00    -0.397 NA
ATOM     28  H   UNL     1     -20.897  42.773 -20.223  0.00  0.00    +0.282 HD
ENDBRANCH  20  24
ENDBRANCH  16  20
ENDBRANCH   1  17
TORSDOF 5
ENDMDL
MODEL 3
REMARK VINA RESULT:    -7.618      3.990      9.120
REMARK INTER + INTRA:         -10.250
REMARK INTER:                 -10.603
REMARK INTRA:                   0.353
REMARK UNBOUND:                -0.629
REMARK  Name = 
REMARK  5 active torsions:
REMARK  status: ('A' for Active; 'I' for Inactive)
REMARK    1  A    between atoms: C_4  and  C_5
REMARK    2  A    between atoms: C_5  and  N_6
REMARK    3  A    between atoms: C_7  and  O_8
REMARK    4  A    between atoms: C_7  and  C_9
REMARK    5  A    between atoms: N_13  and  C_14
REMARK                            x       y       z     vdW  Elec       q    Type
REMARK                         _______ _______ _______ _____ _____    ______ ____
ROOT
ATOM      1  C   UNL     1     -18.840  42.653 -13.485  0.00  0.00    -0.084 A 
ATOM      2  C   UNL     1     -19.695  41.769 -12.835  0.00  0.00    +0.130 A 
ATOM      3  C   UNL     1     -19.316  41.227 -11.609  0.00  0.00    -0.087 A 
ATOM      4  C   UNL     1     -18.088  41.569 -11.033  0.00  0.00    +0.503 A 
ATOM      5  N   UNL     1     -17.645  41.098  -9.824  0.00  0.00    -0.702 N 
ATOM      6  N   UNL     1     -17.284  42.397 -11.719  0.00  0.00    -0.702 N 
ATOM      7  C   UNL     1     -17.616  42.946 -12.902  0.00  0.00    +0.288 A 
ATOM      8  H   UNL     1     -16.709  41.313  -9.501  0.00  0.00    +0.280 HD
ATOM      9  H   UNL     1     -16.381  42.624 -11.317  0.00  0.00    +0.286 HD
ENDROOT
BRANCH   5  10
ATOM     10  C   UNL     1     -18.580  40.746  -8.745  0.00  0.00    +0.233 C 
ATOM     11  C   UNL     1     -19.794  40.038  -9.368  0.00  0.00    +0.048 C 
ATOM     12  C   UNL     1     -20.956  39.892  -8.393  0.00  0.00    +0.065 C 
ATOM     13  C   UNL     1     -21.329  41.235  -7.779  0.00  0.00    +0.063 C 
ATOM     14  C   UNL     1     -20.136  41.840  -7.049  0.00  0.00    +0.063 C 
ATOM     15  C   UNL     1     -18.948  42.027  -7.986  0.00  0.00    +0.062 C 
ENDBRANCH   5  10
BRANCH   1  17
ATOM     16  N   UNL     1     -20.010  42.708 -15.594  0.00  0.00    -0.507 NA
ATOM     17  C   UNL     1     -19.133  43.226 -14.802  0.00  0.00    +0.440 C 
BRANCH  17  18
ATOM     18  O   UNL     1     -18.396  44.328 -15.034  0.00  0.00    -0.611 OA
ATOM     19  H   UNL     1     -18.010  44.700 -14.215  0.00  0.00    +0.307 HD
ENDBRANCH  17  18
BRANCH  16  20
ATOM     20  C   UNL     1     -20.324  43.391 -16.707  0.00  0.00    +0.194 C 
BRANCH  20  24
ATOM     21  N   UNL     1     -24.257  45.362 -17.726  0.00  0.00    -0.569 NA
ATOM     22  C   UNL     1     -22.995  45.568 -17.846  0.00  0.00    +0.434 C 
ATOM     23  C   UNL     1     -22.132  44.390 -17.765  0.00  0.00    -0.086 C 
ATOM     24  C   UNL     1     -20.828  44.199 -17.762  0.00  0.00    -0.019 C 
ATOM     25  C   UNL     1     -20.283  45.508 -18.035  0.00  0.00    -0.066 C 
ATOM     26  C   UNL     1     -20.933  46.514 -18.103  0.00  0.00    +0.153 C 
ATOM     27  N   UNL     1     -22.397  46.771 -18.015  0.00  0.00    -0.397 NA
ATOM     28  H   UNL     1     -24.435  44.363 -17.620  0.00  0.00    +0.282 HD
ENDBRANCH  20  24
ENDBRANCH  16  20
ENDBRANCH   1  17
TORSDOF 5
ENDMDL
MODEL 4
REMARK VINA RESULT:    -7.028      3.057      3.827
REMARK INTER + INTRA:          -9.505
REMARK INTER:                  -8.845
REMARK INTRA:                  -0.660
REMARK UNBOUND:                -0.629
REMARK  Name = 
REMARK  5 active torsions:
REMARK  status: ('A' for Active; 'I' for Inactive)
REMARK    1  A    between atoms: C_4  and  C_5
REMARK    2  A    between atoms: C_5  and  N_6
REMARK    3  A    between atoms: C_7  and  O_8
REMARK    4  A    between atoms: C_7  and  C_9
REMARK    5  A    between atoms: N_13  and  C_14
REMARK                            x       y       z     vdW  Elec       q    Type
REMARK                         _______ _______ _______ _____ _____    ______ ____
ROOT
ATOM      1  C   UNL     1     -19.193  43.406 -14.208  0.00  0.00    -0.084 A 
ATOM      2  C   UNL     1     -18.510  44.612 -14.319  0.00  0.00    +0.130 A 
ATOM      3  C   UNL     1     -18.706  45.409 -15.444  0.00  0.00    -0.087 A 
ATOM      4  C   UNL     1     -19.584  45.001 -16.454  0.00  0.00    +0.503 A 
ATOM      5  N   UNL     1     -19.851  45.730 -17.586  0.00  0.00    -0.702 N 
ATOM      6  N   UNL     1     -20.190  43.811 -16.315  0.00  0.00    -0.702 N 
ATOM      7  C   UNL     1     -20.031  43.017 -15.242  0.00  0.00    +0.288 A 
ATOM      8  H   UNL     1     -20.428  45.341 -18.322  0.00  0.00    +0.280 HD
ATOM      9  H   UNL     1     -20.804  43.501 -17.060  0.00  0.00    +0.286 HD
ENDROOT
BRANCH   5  10
ATOM     10  C   UNL     1     -19.794  47.199 -17.586  0.00  0.00    +0.233 C 
ATOM     11  C   UNL     1     -21.157  47.737 -17.120  0.00  0.00    +0.048 C 
ATOM     12  C   UNL     1     -21.315  49.233 -17.362  0.00  0.00    +0.065 C 
ATOM     13  C   UNL     1     -21.025  49.588 -18.814  0.00  0.00    +0.063 C 
ATOM     14  C   UNL     1     -19.612  49.165 -19.197  0.00  0.00    +0.063 C 
ATOM     15  C   UNL     1     -19.406  47.668 -18.993  0.00  0.00    +0.062 C 
ENDBRANCH   5  10
BRANCH   1  17
ATOM     16  N   UNL     1     -18.194  42.738 -12.115  0.00  0.00    -0.507 NA
ATOM     17  C   UNL     1     -19.005  42.480 -13.085  0.00  0.00    +0.440 C 
BRANCH  17  18
ATOM     18  O   UNL     1     -19.783  41.390 -13.211  0.00  0.00    -0.611 OA
ATOM     19  H   UNL     1     -20.119  41.272 -14.122  0.00  0.00    +0.307 HD
ENDBRANCH  17  18
BRANCH  16  20
ATOM     20  C   UNL     1     -18.206  41.911 -11.058  0.00  0.00    +0.194 C 
BRANCH  20  24
ATOM     21  N   UNL     1     -19.544  42.590  -6.798  0.00  0.00    -0.569 NA
ATOM     22  C   UNL     1     -19.645  41.714  -7.731  0.00  0.00    +0.434 C 
ATOM     23  C   UNL     1     -18.626  41.758  -8.779  0.00  0.00    -0.086 C 
ATOM     24  C   UNL     1     -18.434  41.105  -9.909  0.00  0.00    -0.019 C 
ATOM     25  C   UNL     1     -19.452  40.081  -9.897  0.00  0.00    -0.066 C 
ATOM     26  C   UNL     1     -20.321  39.995  -9.074  0.00  0.00    +0.153 C 
ATOM     27  N   UNL     1     -20.616  40.777  -7.842  0.00  0.00    -0.397 NA
ATOM     28  H   UNL     1     -18.715  43.164  -6.952  0.00  0.00    +0.282 HD
ENDBRANCH  20  24
ENDBRANCH  16  20
ENDBRANCH   1  17
TORSDOF 5
ENDMDL
MODEL 5
REMARK VINA RESULT:    -6.698      4.996      7.687
REMARK INTER + INTRA:          -9.088
REMARK INTER:                  -8.517
REMARK INTRA:                  -0.572
REMARK UNBOUND:                -0.629
REMARK  Name = 
REMARK  5 active torsions:
REMARK  status: ('A' for Active; 'I' for Inactive)
REMARK    1  A    between atoms: C_4  and  C_5
REMARK    2  A    between atoms: C_5  and  N_6
REMARK    3  A    between atoms: C_7  and  O_8
REMARK    4  A    between atoms: C_7  and  C_9
REMARK    5  A    between atoms: N_13  and  C_14
REMARK                            x       y       z     vdW  Elec       q    Type
REMARK                         _______ _______ _______ _____ _____    ______ ____
ROOT
ATOM      1  C   UNL     1     -17.056  42.515 -12.920  0.00  0.00    -0.084 A 
ATOM      2  C   UNL     1     -16.230  43.633 -12.906  0.00  0.00    +0.130 A 
ATOM      3  C   UNL     1     -15.101  43.639 -12.090  0.00  0.00    -0.087 A 
ATOM      4  C   UNL     1     -14.799  42.531 -11.292  0.00  0.00    +0.503 A 
ATOM      5  N   UNL     1     -13.701  42.444 -10.475  0.00  0.00    -0.702 N 
ATOM      6  N   UNL     1     -15.649  41.492 -11.315  0.00  0.00    -0.702 N 
ATOM      7  C   UNL     1     -16.745  41.445 -12.094  0.00  0.00    +0.288 A 
ATOM      8  H   UNL     1     -13.583  41.651  -9.855  0.00  0.00    +0.280 HD
ATOM      9  H   UNL     1     -15.447  40.699 -10.716  0.00  0.00    +0.286 HD
ENDROOT
BRANCH   5  10
ATOM     10  C   UNL     1     -12.446  43.140 -10.795  0.00  0.00    +0.233 C 
ATOM     11  C   UNL     1     -11.540  42.172 -11.574  0.00  0.00    +0.048 C 
ATOM     12  C   UNL     1     -10.109  42.678 -11.702  0.00  0.00    +0.065 C 
ATOM     13  C   UNL     1      -9.529  43.034 -10.339  0.00  0.00    +0.063 C 
ATOM     14  C   UNL     1     -10.377  44.100  -9.658  0.00  0.00    +0.063 C 
ATOM     15  C   UNL     1     -11.819  43.636  -9.486  0.00  0.00    +0.062 C 
ENDBRANCH   5  10
BRANCH   1  17
ATOM     16  N   UNL     1     -18.728  43.449 -14.387  0.00  0.00    -0.507 NA
ATOM     17  C   UNL     1     -18.293  42.444 -13.706  0.00  0.00    +0.440 C 
BRANCH  17  18
ATOM     18  O   UNL     1     -18.859  41.227 -13.623  0.00  0.00    -0.611 OA
ATOM     19  H   UNL     1     -18.317  40.531 -14.047  0.00  0.00    +0.307 HD
ENDBRANCH  17  18
BRANCH  16  20
ATOM     20  C   UNL     1     -19.778  43.243 -15.199  0.00  0.00    +0.194 C 
BRANCH  20  24
ATOM     21  N   UNL     1     -23.781  44.920 -16.446  0.00  0.00    -0.569 NA
ATOM     22  C   UNL     1     -22.725  44.410 -16.968  0.00  0.00    +0.434 C 
ATOM     23  C   UNL     1     -21.895  43.589 -16.087  0.00  0.00    -0.086 C 
ATOM     24  C   UNL     1     -20.733  42.979 -16.218  0.00  0.00    -0.019 C 
ATOM     25  C   UNL     1     -20.409  43.142 -17.616  0.00  0.00    -0.066 C 
ATOM     26  C   UNL     1     -21.040  43.808 -18.388  0.00  0.00    +0.153 C 
ATOM     27  N   UNL     1     -22.303  44.585 -18.242  0.00  0.00    -0.397 NA
ATOM     28  H   UNL     1     -23.866  44.619 -15.474  0.00  0.00    +0.282 HD
ENDBRANCH  20  24
ENDBRANCH  16  20
ENDBRANCH   1  17
TORSDOF 5
ENDMDL
