MODEL 1
REMARK VINA RESULT:    -9.249      0.000      0.000
REMARK INTER + INTRA:         -11.859
REMARK INTER:                 -11.683
REMARK INTRA:                  -0.176
REMARK UNBOUND:                -0.176
REMARK  Name = 
REMARK  5 active torsions:
REMARK  status: ('A' for Active; 'I' for Inactive)
REMARK    1  A    between atoms: N_1  and  C_2
REMARK    2  A    between atoms: C_2  and  C_4
REMARK    3  A    between atoms: N_8  and  C_9
REMARK    4  A    between atoms: C_13  and  O_15
REMARK    5  A    between atoms: O_15  and  C_16
REMARK                            x       y       z     vdW  Elec       q    Type
REMARK                         _______ _______ _______ _____ _____    ______ ____
ROOT
ATOM      1  C   UNL     1     -17.646  40.355 -10.660  0.00  0.00    +0.261 C 
ATOM      2  C   UNL     1     -16.360  40.884 -11.324  0.00  0.00    +0.069 C 
ATOM      3  C   UNL     1     -16.510  42.308 -11.876  0.00  0.00    +0.307 C 
ATOM      4  N   UNL     1     -17.721  42.517 -12.671  0.00  0.00    -0.456 N 
ATOM      5  C   UNL     1     -17.756  43.635 -13.515  0.00  0.00    +0.658 C 
ATOM      6  O   UNL     1     -16.766  44.282 -13.829  0.00  0.00    -0.525 OA
ATOM      7  C   UNL     1     -18.955  41.928 -12.173  0.00  0.00    +0.318 C 
ATOM      8  C   UNL     1     -18.775  40.495 -11.682  0.00  0.00    +0.078 C 
ENDROOT
BRANCH   1  13
ATOM      9  C   UNL     1     -21.445  41.504  -7.296  0.00  0.00    -0.146 C 
ATOM     10  C   UNL     1     -20.276  42.015  -6.761  0.00  0.00    +0.111 C 
ATOM     11  C   UNL     1     -19.092  41.840  -7.466  0.00  0.00    -0.101 C 
ATOM     12  C   UNL     1     -19.078  41.138  -8.684  0.00  0.00    +0.471 C 
ATOM     13  N   UNL     1     -17.885  41.077  -9.404  0.00  0.00    -0.643 N 
ATOM     14  N   UNL     1     -20.243  40.663  -9.141  0.00  0.00    -0.725 N 
ATOM     15  C   UNL     1     -21.410  40.821  -8.499  0.00  0.00    +0.303 C 
ATOM     16  H   UNL     1     -17.114  40.944  -8.739  0.00  0.00    +0.278 HD
ATOM     17  H   UNL     1     -20.288  40.153 -10.010  0.00  0.00    +0.300 HD
BRANCH   9  18
ATOM     18  C   UNL     1     -22.732  41.684  -6.621  0.00  0.00    +0.562 C 
ATOM     19  O   UNL     1     -23.607  40.846  -6.760  0.00  0.00    -0.498 OA
BRANCH  18  20
ATOM     20  N   UNL     1     -22.811  42.795  -5.903  0.00  0.00    -0.583 NA
ATOM     21  H   UNL     1     -21.853  43.160  -5.822  0.00  0.00    +0.314 HD
ENDBRANCH  18  20
ENDBRANCH   9  18
ENDBRANCH   1  13
BRANCH   5  22
ATOM     22  O   UNL     1     -19.013  43.931 -13.964  0.00  0.00    -0.548 OA
BRANCH  22  23
ATOM     23  C   UNL     1     -19.353  43.796 -15.371  0.00  0.00    +0.298 C 
ATOM     24  C   UNL     1     -20.667  43.045 -15.633  0.00  0.00    +0.140 C 
ATOM     25  C   UNL     1     -21.182  43.397 -17.020  0.00  0.00    +0.485 C 
ATOM     26  S   UNL     1     -20.463  44.959 -17.469  0.00  0.00    -0.879 S 
ATOM     27  O   UNL     1     -19.685  44.758 -18.674  0.00  0.00    -0.174 OA
ATOM     28  O   UNL     1     -21.474  45.989 -17.367  0.00  0.00    -0.161 OA
ATOM     29  C   UNL     1     -19.334  45.125 -16.112  0.00  0.00    +0.485 C 
ENDBRANCH  22  23
ENDBRANCH   5  22
TORSDOF 5
ENDMDL
MODEL 2
REMARK VINA RESULT:    -7.368      3.910      6.564
REMARK INTER + INTRA:          -9.483
REMARK INTER:                  -8.787
REMARK INTRA:                  -0.696
REMARK UNBOUND:                -0.176
REMARK  Name = 
REMARK  5 active torsions:
REMARK  status: ('A' for Active; 'I' for Inactive)
REMARK    1  A    between atoms: N_1  and  C_2
REMARK    2  A    between atoms: C_2  and  C_4
REMARK    3  A    between atoms: N_8  and  C_9
REMARK    4  A    between atoms: C_13  and  O_15
REMARK    5  A    between atoms: O_15  and  C_16
REMARK                            x       y       z     vdW  Elec       q    Type
REMARK                         _______ _______ _______ _____ _____    ______ ____
ROOT
ATOM      1  C   UNL     1     -19.986  44.093 -15.817  0.00  0.00    +0.261 C 
ATOM      2  C   UNL     1     -20.231  43.087 -16.958  0.00  0.00    +0.069 C 
ATOM      3  C   UNL     1     -19.201  43.197 -18.090  0.00  0.00    +0.307 C 
ATOM      4  N   UNL     1     -18.956  44.566 -18.544  0.00  0.00    -0.456 N 
ATOM      5  C   UNL     1     -18.344  44.734 -19.794  0.00  0.00    +0.658 C 
ATOM      6  O   UNL     1     -18.248  43.845 -20.630  0.00  0.00    -0.525 OA
ATOM      7  C   UNL     1     -18.848  45.599 -17.525  0.00  0.00    +0.318 C 
ATOM      8  C   UNL     1     -19.921  45.485 -16.446  0.00  0.00    +0.078 C 
ENDROOT
BRANCH   1  13
ATOM      9  C   UNL     1     -18.398  41.058 -11.900  0.00  0.00    -0.146 C 
ATOM     10  C   UNL     1     -17.262  41.639 -12.435  0.00  0.00    +0.111 C 
ATOM     11  C   UNL     1     -17.405  42.504 -13.513  0.00  0.00    -0.101 C 
ATOM     12  C   UNL     1     -18.671  42.763 -14.064  0.00  0.00    +0.471 C 
ATOM     13  N   UNL     1     -18.774  43.715 -15.078  0.00  0.00    -0.643 N 
ATOM     14  N   UNL     1     -19.728  42.162 -13.503  0.00  0.00    -0.725 N 
ATOM     15  C   UNL     1     -19.637  41.332 -12.454  0.00  0.00    +0.303 C 
ATOM     16  H   UNL     1     -17.968  43.608 -15.703  0.00  0.00    +0.278 HD
ATOM     17  H   UNL     1     -20.659  42.316 -13.860  0.00  0.00    +0.300 HD
BRANCH   9  18
ATOM     18  C   UNL     1     -18.322  40.165 -10.742  0.00  0.00    +0.562 C 
ATOM     19  O   UNL     1     -19.155  39.285 -10.605  0.00  0.00    -0.498 OA
BRANCH  18  20
ATOM     20  N   UNL     1     -17.311  40.429  -9.927  0.00  0.00    -0.583 NA
ATOM     21  H   UNL     1     -17.679  40.351  -8.970  0.00  0.00    +0.314 HD
ENDBRANCH  18  20
ENDBRANCH   9  18
ENDBRANCH   1  13
BRANCH   5  22
ATOM     22  O   UNL     1     -17.868  46.000 -19.995  0.00  0.00    -0.548 OA
BRANCH  22  23
ATOM     23  C   UNL     1     -16.470  46.227 -20.326  0.00  0.00    +0.298 C 
ATOM     24  C   UNL     1     -16.101  47.704 -20.524  0.00  0.00    +0.140 C 
ATOM     25  C   UNL     1     -14.599  47.876 -20.349  0.00  0.00    +0.485 C 
ATOM     26  S   UNL     1     -14.021  46.509 -19.374  0.00  0.00    -0.879 S 
ATOM     27  O   UNL     1     -13.046  45.783 -20.163  0.00  0.00    -0.174 OA
ATOM     28  O   UNL     1     -13.735  46.973 -18.034  0.00  0.00    -0.161 OA
ATOM     29  C   UNL     1     -15.517  45.558 -19.345  0.00  0.00    +0.485 C 
ENDBRANCH  22  23
ENDBRANCH   5  22
TORSDOF 5
ENDMDL
MODEL 3
REMARK VINA RESULT:    -7.041      3.858      6.437
REMARK INTER + INTRA:          -9.069
REMARK INTER:                  -8.434
REMARK INTRA:                  -0.636
REMARK UNBOUND:                -0.176
REMARK  Name = 
REMARK  5 active torsions:
REMARK  status: ('A' for Active; 'I' for Inactive)
REMARK    1  A    between atoms: N_1  and  C_2
REMARK    2  A    between atoms: C_2  and  C_4
REMARK    3  A    between atoms: N_8  and  C_9
REMARK    4  A    between atoms: C_13  and  O_15
REMARK    5  A    between atoms: O_15  and  C_16
REMARK                            x       y       z     vdW  Elec       q    Type
REMARK                         _______ _______ _______ _____ _____    ______ ____
ROOT
ATOM      1  C   UNL     1     -20.055  42.927 -16.476  0.00  0.00    +0.261 C 
ATOM      2  C   UNL     1     -19.584  43.426 -17.856  0.00  0.00    +0.069 C 
ATOM      3  C   UNL     1     -19.901  44.908 -18.100  0.00  0.00    +0.307 C 
ATOM      4  N   UNL     1     -21.273  45.289 -17.764  0.00  0.00    -0.456 N 
ATOM      5  C   UNL     1     -21.761  46.489 -18.298  0.00  0.00    +0.658 C 
ATOM      6  O   UNL     1     -21.227  47.090 -19.221  0.00  0.00    -0.525 OA
ATOM      7  C   UNL     1     -21.836  44.744 -16.538  0.00  0.00    +0.318 C 
ATOM      8  C   UNL     1     -21.543  43.258 -16.358  0.00  0.00    +0.078 C 
ENDROOT
BRANCH   1  13
ATOM      9  C   UNL     1     -18.357  42.040 -11.639  0.00  0.00    -0.146 C 
ATOM     10  C   UNL     1     -17.754  43.212 -12.061  0.00  0.00    +0.111 C 
ATOM     11  C   UNL     1     -18.035  43.679 -13.338  0.00  0.00    -0.101 C 
ATOM     12  C   UNL     1     -18.893  42.966 -14.192  0.00  0.00    +0.471 C 
ATOM     13  N   UNL     1     -19.224  43.527 -15.425  0.00  0.00    -0.643 N 
ATOM     14  N   UNL     1     -19.438  41.836 -13.723  0.00  0.00    -0.725 N 
ATOM     15  C   UNL     1     -19.204  41.356 -12.493  0.00  0.00    +0.303 C 
ATOM     16  H   UNL     1     -18.383  43.969 -15.814  0.00  0.00    +0.278 HD
ATOM     17  H   UNL     1     -20.061  41.288 -14.296  0.00  0.00    +0.300 HD
BRANCH   9  18
ATOM     18  C   UNL     1     -18.131  41.511 -10.292  0.00  0.00    +0.562 C 
ATOM     19  O   UNL     1     -18.300  40.322 -10.077  0.00  0.00    -0.498 OA
BRANCH  18  20
ATOM     20  N   UNL     1     -17.757  42.427  -9.411  0.00  0.00    -0.583 NA
ATOM     21  H   UNL     1     -18.305  43.272  -9.617  0.00  0.00    +0.314 HD
ENDBRANCH  18  20
ENDBRANCH   9  18
ENDBRANCH   1  13
BRANCH   5  22
ATOM     22  O   UNL     1     -22.906  46.924 -17.689  0.00  0.00    -0.548 OA
BRANCH  22  23
ATOM     23  C   UNL     1     -24.176  46.914 -18.396  0.00  0.00    +0.298 C 
ATOM     24  C   UNL     1     -25.222  45.960 -17.800  0.00  0.00    +0.140 C 
ATOM     25  C   UNL     1     -26.610  46.387 -18.254  0.00  0.00    +0.485 C 
ATOM     26  S   UNL     1     -26.516  48.106 -18.695  0.00  0.00    -0.879 S 
ATOM     27  O   UNL     1     -26.889  48.226 -20.089  0.00  0.00    -0.174 OA
ATOM     28  O   UNL     1     -27.147  48.894 -17.658  0.00  0.00    -0.161 OA
ATOM     29  C   UNL     1     -24.758  48.308 -18.580  0.00  0.00    +0.485 C 
ENDBRANCH  22  23
ENDBRANCH   5  22
TORSDOF 5
ENDMDL
MODEL 4
REMARK VINA RESULT:    -6.914      4.794      6.932
REMARK INTER + INTRA:          -8.910
REMARK INTER:                  -8.304
REMARK INTRA:                  -0.606
REMARK UNBOUND:                -0.176
REMARK  Name = 
REMARK  5 active torsions:
REMARK  status: ('A' for Active; 'I' for Inactive)
REMARK    1  A    between atoms: N_1  and  C_2
REMARK    2  A    between atoms: C_2  and  C_4
REMARK    3  A    between atoms: N_8  and  C_9
REMARK    4  A    between atoms: C_13  and  O_15
REMARK    5  A    between atoms: O_15  and  C_16
REMARK                            x       y       z     vdW  Elec       q    Type
REMARK                         _______ _______ _______ _____ _____    ______ ____
ROOT
ATOM      1  C   UNL     1     -18.119  46.175 -13.838  0.00  0.00    +0.261 C 
ATOM      2  C   UNL     1     -18.776  47.177 -14.806  0.00  0.00    +0.069 C 
ATOM      3  C   UNL     1     -18.433  46.906 -16.277  0.00  0.00    +0.307 C 
ATOM      4  N   UNL     1     -17.009  46.681 -16.527  0.00  0.00    -0.456 N 
ATOM      5  C   UNL     1     -16.555  46.807 -17.847  0.00  0.00    +0.658 C 
ATOM      6  O   UNL     1     -17.199  47.344 -18.740  0.00  0.00    -0.525 OA
ATOM      7  C   UNL     1     -16.287  45.851 -15.575  0.00  0.00    +0.318 C 
ATOM      8  C   UNL     1     -16.617  46.186 -14.123  0.00  0.00    +0.078 C 
ENDROOT
BRANCH   1  13
ATOM      9  C   UNL     1     -18.469  41.543 -11.494  0.00  0.00    -0.146 C 
ATOM     10  C   UNL     1     -19.309  41.494 -12.593  0.00  0.00    +0.111 C 
ATOM     11  C   UNL     1     -19.409  42.619 -13.401  0.00  0.00    -0.101 C 
ATOM     12  C   UNL     1     -18.692  43.789 -13.097  0.00  0.00    +0.471 C 
ATOM     13  N   UNL     1     -18.746  44.856 -13.993  0.00  0.00    -0.643 N 
ATOM     14  N   UNL     1     -17.904  43.771 -12.015  0.00  0.00    -0.725 N 
ATOM     15  C   UNL     1     -17.767  42.703 -11.215  0.00  0.00    +0.303 C 
ATOM     16  H   UNL     1     -19.708  44.933 -14.344  0.00  0.00    +0.278 HD
ATOM     17  H   UNL     1     -17.368  44.584 -11.753  0.00  0.00    +0.300 HD
BRANCH   9  18
ATOM     18  C   UNL     1     -18.291  40.381 -10.621  0.00  0.00    +0.562 C 
ATOM     19  O   UNL     1     -18.674  39.284 -10.993  0.00  0.00    -0.498 OA
BRANCH  18  20
ATOM     20  N   UNL     1     -17.710  40.664  -9.464  0.00  0.00    -0.583 NA
ATOM     21  H   UNL     1     -16.727  40.373  -9.551  0.00  0.00    +0.314 HD
ENDBRANCH  18  20
ENDBRANCH   9  18
ENDBRANCH   1  13
BRANCH   5  22
ATOM     22  O   UNL     1     -15.311  46.276 -18.042  0.00  0.00    -0.548 OA
BRANCH  22  23
ATOM     23  C   UNL     1     -14.192  47.121 -18.427  0.00  0.00    +0.298 C 
ATOM     24  C   UNL     1     -13.112  47.268 -17.346  0.00  0.00    +0.140 C 
ATOM     25  C   UNL     1     -11.806  47.706 -17.993  0.00  0.00    +0.485 C 
ATOM     26  S   UNL     1     -11.880  47.232 -19.703  0.00  0.00    -0.879 S 
ATOM     27  O   UNL     1     -11.759  48.435 -20.502  0.00  0.00    -0.174 OA
ATOM     28  O   UNL     1     -11.027  46.081 -19.910  0.00  0.00    -0.161 OA
ATOM     29  C   UNL     1     -13.573  46.710 -19.756  0.00  0.00    +0.485 C 
ENDBRANCH  22  23
ENDBRANCH   5  22
TORSDOF 5
ENDMDL
MODEL 5
REMARK VINA RESULT:    -6.879      3.580      6.335
REMARK INTER + INTRA:          -8.865
REMARK INTER:                  -8.272
REMARK INTRA:                  -0.593
REMARK UNBOUND:                -0.176
REMARK  Name = 
REMARK  5 active torsions:
REMARK  status: ('A' for Active; 'I' for Inactive)
REMARK    1  A    between atoms: N_1  and  C_2
REMARK    2  A    between atoms: C_2  and  C_4
REMARK    3  A    between atoms: N_8  and  C_9
REMARK    4  A    between atoms: C_13  and  O_15
REMARK    5  A    between atoms: O_15  and  C_16
REMARK                            x       y       z     vdW  Elec       q    Type
REMARK                         _______ _______ _______ _____ _____    ______ ____
ROOT
ATOM      1  C   UNL     1     -20.818  43.043 -16.114  0.00  0.00    +0.261 C 
ATOM      2  C   UNL     1     -20.060  43.023 -17.455  0.00  0.00    +0.069 C 
ATOM      3  C   UNL     1     -19.959  44.407 -18.110  0.00  0.00    +0.307 C 
ATOM      4  N   UNL     1     -21.223  45.143 -18.151  0.00  0.00    -0.456 N 
ATOM      5  C   UNL     1     -21.319  46.216 -19.046  0.00  0.00    +0.658 C 
ATOM      6  O   UNL     1     -20.534  46.408 -19.966  0.00  0.00    -0.525 OA
ATOM      7  C   UNL     1     -22.062  45.095 -16.962  0.00  0.00    +0.318 C 
ATOM      8  C   UNL     1     -22.178  43.694 -16.371  0.00  0.00    +0.078 C 
ENDROOT
BRANCH   1  13
ATOM      9  C   UNL     1     -18.286  42.164 -11.655  0.00  0.00    -0.146 C 
ATOM     10  C   UNL     1     -18.040  43.482 -11.995  0.00  0.00    +0.111 C 
ATOM     11  C   UNL     1     -18.603  43.981 -13.163  0.00  0.00    -0.101 C 
ATOM     12  C   UNL     1     -19.383  43.158 -13.993  0.00  0.00    +0.471 C 
ATOM     13  N   UNL     1     -20.010  43.731 -15.100  0.00  0.00    -0.643 N 
ATOM     14  N   UNL     1     -19.575  41.891 -13.609  0.00  0.00    -0.725 N 
ATOM     15  C   UNL     1     -19.062  41.372 -12.483  0.00  0.00    +0.303 C 
ATOM     16  H   UNL     1     -19.360  44.402 -15.526  0.00  0.00    +0.278 HD
ATOM     17  H   UNL     1     -20.128  41.260 -14.168  0.00  0.00    +0.300 HD
BRANCH   9  18
ATOM     18  C   UNL     1     -17.752  41.585 -10.420  0.00  0.00    +0.562 C 
ATOM     19  O   UNL     1     -17.381  40.423 -10.411  0.00  0.00    -0.498 OA
BRANCH  18  20
ATOM     20  N   UNL     1     -17.736  42.427  -9.396  0.00  0.00    -0.583 NA
ATOM     21  H   UNL     1     -16.928  43.047  -9.540  0.00  0.00    +0.314 HD
ENDBRANCH  18  20
ENDBRANCH   9  18
ENDBRANCH   1  13
BRANCH   5  22
ATOM     22  O   UNL     1     -22.388  47.032 -18.797  0.00  0.00    -0.548 OA
BRANCH  22  23
ATOM     23  C   UNL     1     -22.193  48.432 -18.454  0.00  0.00    +0.298 C 
ATOM     24  C   UNL     1     -23.417  49.098 -17.809  0.00  0.00    +0.140 C 
ATOM     25  C   UNL     1     -22.971  50.335 -17.042  0.00  0.00    +0.485 C 
ATOM     26  S   UNL     1     -21.249  50.128 -16.660  0.00  0.00    -0.879 S 
ATOM     27  O   UNL     1     -20.524  51.220 -17.276  0.00  0.00    -0.174 OA
ATOM     28  O   UNL     1     -21.113  49.808 -15.255  0.00  0.00    -0.161 OA
ATOM     29  C   UNL     1     -20.945  48.664 -17.614  0.00  0.00    +0.485 C 
ENDBRANCH  22  23
ENDBRANCH   5  22
TORSDOF 5
ENDMDL
