MODEL 1
REMARK VINA RESULT:    -9.064      0.000      0.000
REMARK INTER + INTRA:         -11.559
REMARK INTER:                 -11.448
REMARK INTRA:                  -0.110
REMARK UNBOUND:                -0.110
REMARK  Name = 
REMARK  5 active torsions:
REMARK  status: ('A' for Active; 'I' for Inactive)
REMARK    1  A    between atoms: C_4  and  C_5
REMARK    2  A    between atoms: C_5  and  N_6
REMARK    3  A    between atoms: C_7  and  O_8
REMARK    4  A    between atoms: C_7  and  C_9
REMARK    5  A    between atoms: N_13  and  C_14
REMARK                            x       y       z     vdW  Elec       q    Type
REMARK                         _______ _______ _______ _____ _____    ______ ____
ROOT
ATOM      1  C   UNL     1     -18.825  42.752 -12.940  0.00  0.00    -0.062 A 
ATOM      2  C   UNL     1     -17.735  43.280 -12.258  0.00  0.00    +0.197 A 
ATOM      3  C   UNL     1     -17.434  42.796 -10.981  0.00  0.00    +0.004 A 
ATOM      4  C   UNL     1     -18.218  41.785 -10.404  0.00  0.00    +0.531 A 
ATOM      5  N   UNL     1     -17.969  41.340  -9.112  0.00  0.00    -0.672 N 
ATOM      6  N   UNL     1     -19.272  41.330 -11.098  0.00  0.00    -0.663 N 
ATOM      7  C   UNL     1     -19.595  41.767 -12.323  0.00  0.00    +0.353 A 
ATOM      8  H   UNL     1     -16.996  41.340  -8.816  0.00  0.00    +0.317 HD
ATOM      9  H   UNL     1     -19.851  40.609 -10.666  0.00  0.00    +0.323 HD
ENDROOT
BRANCH   5  10
ATOM     10  C   UNL     1     -18.855  40.884  -8.176  0.00  0.00    +0.259 C 
ATOM     11  C   UNL     1     -19.900  39.987  -8.603  0.00  0.00    -0.007 C 
ATOM     12  C   UNL     1     -21.426  40.062  -8.383  0.00  0.00    +0.065 C 
ATOM     13  C   UNL     1     -21.920  41.238  -7.521  0.00  0.00    +0.057 C 
ATOM     14  C   UNL     1     -20.864  42.196  -6.935  0.00  0.00    +0.070 C 
ATOM     15  C   UNL     1     -19.395  41.895  -7.302  0.00  0.00    -0.001 C 
ENDBRANCH   5  10
BRANCH   1  17
ATOM     16  N   UNL     1     -20.389  42.789 -14.743  0.00  0.00    -0.481 NA
ATOM     17  C   UNL     1     -19.245  43.158 -14.290  0.00  0.00    +0.478 C 
BRANCH  17  18
ATOM     18  O   UNL     1     -18.330  43.890 -14.939  0.00  0.00    -0.584 OA
ATOM     19  H   UNL     1     -18.697  44.293 -15.747  0.00  0.00    +0.338 HD
ENDBRANCH  17  18
BRANCH  16  20
ATOM     20  C   UNL     1     -20.884  43.105 -15.945  0.00  0.00    +0.246 C 
BRANCH  20  24
ATOM     21  N   UNL     1     -20.461  44.065 -20.398  0.00  0.00    -0.516 NA
ATOM     22  C   UNL     1     -21.087  44.448 -19.352  0.00  0.00    +0.484 C 
ATOM     23  C   UNL     1     -21.091  43.509 -18.230  0.00  0.00    -0.040 C 
ATOM     24  C   UNL     1     -21.694  43.452 -17.060  0.00  0.00    +0.008 C 
ATOM     25  C   UNL     1     -22.565  44.606 -17.053  0.00  0.00    -0.017 C 
ATOM     26  C   UNL     1     -22.613  45.463 -17.894  0.00  0.00    +0.258 C 
ATOM     27  N   UNL     1     -21.834  45.602 -19.126  0.00  0.00    -0.600 N 
ATOM     28  H   UNL     1     -20.030  43.147 -20.259  0.00  0.00    +0.313 HD
ATOM     29  H   UNL     1     -22.196  46.049 -19.961  0.00  0.00    +0.342 HD
ENDBRANCH  20  24
ENDBRANCH  16  20
ENDBRANCH   1  17
TORSDOF 5
ENDMDL
MODEL 2
REMARK VINA RESULT:    -7.351      2.606      9.726
REMARK INTER + INTRA:          -9.395
REMARK INTER:                  -8.878
REMARK INTRA:                  -0.517
REMARK UNBOUND:                -0.110
REMARK  Name = 
REMARK  5 active torsions:
REMARK  status: ('A' for Active; 'I' for Inactive)
REMARK    1  A    between atoms: C_4  and  C_5
REMARK    2  A    between atoms: C_5  and  N_6
REMARK    3  A    between atoms: C_7  and  O_8
REMARK    4  A    between atoms: C_7  and  C_9
REMARK    5  A    between atoms: N_13  and  C_14
REMARK                            x       y       z     vdW  Elec       q    Type
REMARK                         _______ _______ _______ _____ _____    ______ ____
ROOT
ATOM      1  C   UNL     1     -21.129  43.961 -16.448  0.00  0.00    -0.062 A 
ATOM      2  C   UNL     1     -22.497  43.768 -16.295  0.00  0.00    +0.197 A 
ATOM      3  C   UNL     1     -23.380  44.618 -16.967  0.00  0.00    +0.004 A 
ATOM      4  C   UNL     1     -22.889  45.644 -17.789  0.00  0.00    +0.531 A 
ATOM      5  N   UNL     1     -23.756  46.535 -18.410  0.00  0.00    -0.672 N 
ATOM      6  N   UNL     1     -21.561  45.799 -17.879  0.00  0.00    -0.663 N 
ATOM      7  C   UNL     1     -20.680  45.007 -17.253  0.00  0.00    +0.353 A 
ATOM      8  H   UNL     1     -24.658  46.160 -18.695  0.00  0.00    +0.317 HD
ATOM      9  H   UNL     1     -21.208  46.559 -18.463  0.00  0.00    +0.323 HD
ENDROOT
BRANCH   5  10
ATOM     10  C   UNL     1     -23.560  47.854 -18.709  0.00  0.00    +0.259 C 
ATOM     11  C   UNL     1     -23.642  48.818 -17.639  0.00  0.00    -0.007 C 
ATOM     12  C   UNL     1     -24.467  50.118 -17.533  0.00  0.00    +0.065 C 
ATOM     13  C   UNL     1     -25.286  50.493 -18.781  0.00  0.00    +0.057 C 
ATOM     14  C   UNL     1     -25.183  49.575 -20.014  0.00  0.00    +0.070 C 
ATOM     15  C   UNL     1     -24.278  48.333 -19.863  0.00  0.00    -0.001 C 
ENDBRANCH   5  10
BRANCH   1  17
ATOM     16  N   UNL     1     -19.878  43.232 -14.549  0.00  0.00    -0.481 NA
ATOM     17  C   UNL     1     -20.091  43.134 -15.812  0.00  0.00    +0.478 C 
BRANCH  17  18
ATOM     18  O   UNL     1     -19.434  42.343 -16.671  0.00  0.00    -0.584 OA
ATOM     19  H   UNL     1     -18.848  41.717 -16.209  0.00  0.00    +0.338 HD
ENDBRANCH  17  18
BRANCH  16  20
ATOM     20  C   UNL     1     -18.974  42.528 -13.860  0.00  0.00    +0.246 C 
BRANCH  20  24
ATOM     21  N   UNL     1     -19.614  38.549 -11.696  0.00  0.00    -0.516 NA
ATOM     22  C   UNL     1     -19.116  39.711 -11.514  0.00  0.00    +0.484 C 
ATOM     23  C   UNL     1     -18.871  40.496 -12.725  0.00  0.00    -0.040 C 
ATOM     24  C   UNL     1     -18.279  41.643 -12.992  0.00  0.00    +0.008 C 
ATOM     25  C   UNL     1     -17.742  42.070 -11.718  0.00  0.00    -0.017 C 
ATOM     26  C   UNL     1     -17.919  41.533 -10.659  0.00  0.00    +0.258 C 
ATOM     27  N   UNL     1     -18.701  40.336 -10.341  0.00  0.00    -0.600 N 
ATOM     28  H   UNL     1     -19.789  38.368 -12.688  0.00  0.00    +0.313 HD
ATOM     29  H   UNL     1     -18.465  39.708  -9.581  0.00  0.00    +0.342 HD
ENDBRANCH  20  24
ENDBRANCH  16  20
ENDBRANCH   1  17
TORSDOF 5
ENDMDL
MODEL 3
REMARK VINA RESULT:    -7.340      3.492      5.149
REMARK INTER + INTRA:          -9.381
REMARK INTER:                  -8.910
REMARK INTRA:                  -0.472
REMARK UNBOUND:                -0.110
REMARK  Name = 
REMARK  5 active torsions:
REMARK  status: ('A' for Active; 'I' for Inactive)
REMARK    1  A    between atoms: C_4  and  C_5
REMARK    2  A    between atoms: C_5  and  N_6
REMARK    3  A    between atoms: C_7  and  O_8
REMARK    4  A    between atoms: C_7  and  C_9
REMARK    5  A    between atoms: N_13  and  C_14
REMARK                            x       y       z     vdW  Elec       q    Type
REMARK                         _______ _______ _______ _____ _____    ______ ____
ROOT
ATOM      1  C   UNL     1     -17.558  43.327 -12.972  0.00  0.00    -0.062 A 
ATOM      2  C   UNL     1     -17.687  42.378 -11.966  0.00  0.00    +0.197 A 
ATOM      3  C   UNL     1     -16.575  42.071 -11.176  0.00  0.00    +0.004 A 
ATOM      4  C   UNL     1     -15.351  42.720 -11.394  0.00  0.00    +0.531 A 
ATOM      5  N   UNL     1     -14.222  42.378 -10.660  0.00  0.00    -0.672 N 
ATOM      6  N   UNL     1     -15.278  43.609 -12.395  0.00  0.00    -0.663 N 
ATOM      7  C   UNL     1     -16.319  43.932 -13.175  0.00  0.00    +0.353 A 
ATOM      8  H   UNL     1     -14.382  42.091  -9.697  0.00  0.00    +0.317 HD
ATOM      9  H   UNL     1     -14.380  44.065 -12.564  0.00  0.00    +0.323 HD
ENDROOT
BRANCH   5  10
ATOM     10  C   UNL     1     -12.911  42.387 -11.048  0.00  0.00    +0.259 C 
ATOM     11  C   UNL     1     -12.163  41.157 -10.957  0.00  0.00    -0.007 C 
ATOM     12  C   UNL     1     -10.802  40.869 -10.289  0.00  0.00    +0.065 C 
ATOM     13  C   UNL     1     -10.088  42.087  -9.674  0.00  0.00    +0.057 C 
ATOM     14  C   UNL     1     -10.765  43.464  -9.811  0.00  0.00    +0.070 C 
ATOM     15  C   UNL     1     -12.129  43.483 -10.534  0.00  0.00    -0.001 C 
ENDBRANCH   5  10
BRANCH   1  17
ATOM     16  N   UNL     1     -19.189  42.909 -14.665  0.00  0.00    -0.481 NA
ATOM     17  C   UNL     1     -18.647  43.755 -13.865  0.00  0.00    +0.478 C 
BRANCH  17  18
ATOM     18  O   UNL     1     -18.955  45.054 -13.752  0.00  0.00    -0.584 OA
ATOM     19  H   UNL     1     -18.157  45.610 -13.701  0.00  0.00    +0.338 HD
ENDBRANCH  17  18
BRANCH  16  20
ATOM     20  C   UNL     1     -20.190  43.174 -15.511  0.00  0.00    +0.246 C 
BRANCH  20  24
ATOM     21  N   UNL     1     -21.070  43.894 -19.942  0.00  0.00    -0.516 NA
ATOM     22  C   UNL     1     -21.563  44.108 -18.782  0.00  0.00    +0.484 C 
ATOM     23  C   UNL     1     -20.995  43.312 -17.692  0.00  0.00    -0.040 C 
ATOM     24  C   UNL     1     -21.283  43.131 -16.419  0.00  0.00    +0.008 C 
ATOM     25  C   UNL     1     -22.489  43.901 -16.215  0.00  0.00    -0.017 C 
ATOM     26  C   UNL     1     -23.015  44.623 -17.019  0.00  0.00    +0.258 C 
ATOM     27  N   UNL     1     -22.610  44.937 -18.391  0.00  0.00    -0.600 N 
ATOM     28  H   UNL     1     -20.319  43.200 -19.907  0.00  0.00    +0.313 HD
ATOM     29  H   UNL     1     -23.273  45.165 -19.123  0.00  0.00    +0.342 HD
ENDBRANCH  20  24
ENDBRANCH  16  20
ENDBRANCH   1  17
TORSDOF 5
ENDMDL
MODEL 4
REMARK VINA RESULT:    -6.840     15.656     21.432
REMARK INTER + INTRA:          -8.750
REMARK INTER:                  -8.337
REMARK INTRA:                  -0.413
REMARK UNBOUND:                -0.110
REMARK  Name = 
REMARK  5 active torsions:
REMARK  status: ('A' for Active; 'I' for Inactive)
REMARK    1  A    between atoms: C_4  and  C_5
REMARK    2  A    between atoms: C_5  and  N_6
REMARK    3  A    between atoms: C_7  and  O_8
REMARK    4  A    between atoms: C_7  and  C_9
REMARK    5  A    between atoms: N_13  and  C_14
REMARK                            x       y       z     vdW  Elec       q    Type
REMARK                         _______ _______ _______ _____ _____    ______ ____
ROOT
ATOM      1  C   UNL     1     -21.532  31.959   2.697  0.00  0.00    -0.062 A 
ATOM      2  C   UNL     1     -22.023  32.083   1.403  0.00  0.00    +0.197 A 
ATOM      3  C   UNL     1     -21.596  33.158   0.616  0.00  0.00    +0.004 A 
ATOM      4  C   UNL     1     -20.678  34.088   1.126  0.00  0.00    +0.531 A 
ATOM      5  N   UNL     1     -20.296  35.195   0.379  0.00  0.00    -0.672 N 
ATOM      6  N   UNL     1     -20.257  33.932   2.390  0.00  0.00    -0.663 N 
ATOM      7  C   UNL     1     -20.641  32.918   3.177  0.00  0.00    +0.353 A 
ATOM      8  H   UNL     1     -20.246  35.061  -0.629  0.00  0.00    +0.317 HD
ATOM      9  H   UNL     1     -19.605  34.623   2.764  0.00  0.00    +0.323 HD
ENDROOT
BRANCH   5  10
ATOM     10  C   UNL     1     -19.959  36.448   0.810  0.00  0.00    +0.259 C 
ATOM     11  C   UNL     1     -20.290  37.573  -0.029  0.00  0.00    -0.007 C 
ATOM     12  C   UNL     1     -19.401  38.726  -0.541  0.00  0.00    +0.065 C 
ATOM     13  C   UNL     1     -17.948  38.726  -0.034  0.00  0.00    +0.057 C 
ATOM     14  C   UNL     1     -17.528  37.616   0.950  0.00  0.00    +0.070 C 
ATOM     15  C   UNL     1     -18.614  36.581   1.311  0.00  0.00    -0.001 C 
ENDBRANCH   5  10
BRANCH   1  17
ATOM     16  N   UNL     1     -20.960  30.157   4.155  0.00  0.00    -0.481 NA
ATOM     17  C   UNL     1     -21.885  30.873   3.626  0.00  0.00    +0.478 C 
BRANCH  17  18
ATOM     18  O   UNL     1     -23.205  30.733   3.811  0.00  0.00    -0.584 OA
ATOM     19  H   UNL     1     -23.689  31.547   3.583  0.00  0.00    +0.338 HD
ENDBRANCH  17  18
BRANCH  16  20
ATOM     20  C   UNL     1     -21.155  29.155   5.018  0.00  0.00    +0.246 C 
BRANCH  20  24
ATOM     21  N   UNL     1     -25.024  26.913   5.985  0.00  0.00    -0.516 NA
ATOM     22  C   UNL     1     -23.925  27.281   6.525  0.00  0.00    +0.484 C 
ATOM     23  C   UNL     1     -22.864  27.683   5.601  0.00  0.00    -0.040 C 
ATOM     24  C   UNL     1     -21.590  27.998   5.720  0.00  0.00    +0.008 C 
ATOM     25  C   UNL     1     -21.303  27.789   7.122  0.00  0.00    -0.017 C 
ATOM     26  C   UNL     1     -22.100  27.506   7.975  0.00  0.00    +0.258 C 
ATOM     27  N   UNL     1     -23.546  27.299   7.865  0.00  0.00    -0.600 N 
ATOM     28  H   UNL     1     -24.983  26.991   4.965  0.00  0.00    +0.313 HD
ATOM     29  H   UNL     1     -24.060  26.664   8.465  0.00  0.00    +0.342 HD
ENDBRANCH  20  24
ENDBRANCH  16  20
ENDBRANCH   1  17
TORSDOF 5
ENDMDL
MODEL 5
REMARK VINA RESULT:    -6.699      4.475      9.463
REMARK INTER + INTRA:          -8.572
REMARK INTER:                  -8.101
REMARK INTRA:                  -0.471
REMARK UNBOUND:                -0.110
REMARK  Name = 
REMARK  5 active torsions:
REMARK  status: ('A' for Active; 'I' for Inactive)
REMARK    1  A    between atoms: C_4  and  C_5
REMARK    2  A    between atoms: C_5  and  N_6
REMARK    3  A    between atoms: C_7  and  O_8
REMARK    4  A    between atoms: C_7  and  C_9
REMARK    5  A    between atoms: N_13  and  C_14
REMARK                            x       y       z     vdW  Elec       q    Type
REMARK                         _______ _______ _______ _____ _____    ______ ____
ROOT
ATOM      1  C   UNL     1     -16.728  42.756 -12.284  0.00  0.00    -0.062 A 
ATOM      2  C   UNL     1     -17.312  44.009 -12.145  0.00  0.00    +0.197 A 
ATOM      3  C   UNL     1     -18.465  44.305 -12.878  0.00  0.00    +0.004 A 
ATOM      4  C   UNL     1     -19.027  43.344 -13.733  0.00  0.00    +0.531 A 
ATOM      5  N   UNL     1     -20.135  43.648 -14.514  0.00  0.00    -0.672 N 
ATOM      6  N   UNL     1     -18.407  42.161 -13.846  0.00  0.00    -0.663 N 
ATOM      7  C   UNL     1     -17.301  41.837 -13.163  0.00  0.00    +0.353 A 
ATOM      8  H   UNL     1     -20.806  44.297 -14.110  0.00  0.00    +0.317 HD
ATOM      9  H   UNL     1     -18.808  41.473 -14.485  0.00  0.00    +0.323 HD
ENDROOT
BRANCH   5  10
ATOM     10  C   UNL     1     -20.462  43.180 -15.756  0.00  0.00    +0.259 C 
ATOM     11  C   UNL     1     -19.554  43.438 -16.846  0.00  0.00    -0.007 C 
ATOM     12  C   UNL     1     -19.818  44.057 -18.235  0.00  0.00    +0.065 C 
ATOM     13  C   UNL     1     -21.287  44.398 -18.546  0.00  0.00    +0.057 C 
ATOM     14  C   UNL     1     -22.347  44.064 -17.478  0.00  0.00    +0.070 C 
ATOM     15  C   UNL     1     -21.819  43.439 -16.169  0.00  0.00    -0.001 C 
ENDBRANCH   5  10
BRANCH   1  17
ATOM     16  N   UNL     1     -14.478  43.053 -11.542  0.00  0.00    -0.481 NA
ATOM     17  C   UNL     1     -15.524  42.308 -11.566  0.00  0.00    +0.478 C 
BRANCH  17  18
ATOM     18  O   UNL     1     -15.654  41.100 -11.002  0.00  0.00    -0.584 OA
ATOM     19  H   UNL     1     -15.554  41.141 -10.034  0.00  0.00    +0.338 HD
ENDBRANCH  17  18
BRANCH  16  20
ATOM     20  C   UNL     1     -13.334  42.761 -10.915  0.00  0.00    +0.246 C 
BRANCH  20  24
ATOM     21  N   UNL     1      -9.126  42.962 -12.701  0.00  0.00    -0.516 NA
ATOM     22  C   UNL     1      -9.861  42.219 -11.965  0.00  0.00    +0.484 C 
ATOM     23  C   UNL     1     -11.060  42.852 -11.414  0.00  0.00    -0.040 C 
ATOM     24  C   UNL     1     -11.986  42.503 -10.545  0.00  0.00    +0.008 C 
ATOM     25  C   UNL     1     -11.551  41.210 -10.063  0.00  0.00    -0.017 C 
ATOM     26  C   UNL     1     -10.615  40.579 -10.473  0.00  0.00    +0.258 C 
ATOM     27  N   UNL     1      -9.670  40.905 -11.544  0.00  0.00    -0.600 N 
ATOM     28  H   UNL     1      -9.529  43.898 -12.805  0.00  0.00    +0.313 HD
ATOM     29  H   UNL     1      -8.707  40.590 -11.545  0.00  0.00    +0.342 HD
ENDBRANCH  20  24
ENDBRANCH  16  20
ENDBRANCH   1  17
TORSDOF 5
ENDMDL
