MODEL 1
REMARK VINA RESULT:    -6.880      0.000      0.000
REMARK INTER + INTRA:          -8.494
REMARK INTER:                  -8.086
REMARK INTRA:                  -0.408
REMARK UNBOUND:                -0.408
REMARK  Name = 
REMARK  3 active torsions:
REMARK  status: ('A' for Active; 'I' for Inactive)
REMARK    1  A    between atoms: C_5  and  C_6
REMARK    2  A    between atoms: C_18  and  N_20
REMARK    3  A    between atoms: N_20  and  C_21
REMARK                            x       y       z     vdW  Elec       q    Type
REMARK                         _______ _______ _______ _____ _____    ______ ____
ROOT
ATOM      1  N   UNL     1     -28.230  42.213  -0.035  0.00  0.00    -0.600 NA
ATOM      2  C   UNL     1     -28.514  41.284   0.816  0.00  0.00    +0.468 C 
ATOM      3  C   UNL     1     -27.550  40.151   1.119  0.00  0.00    +0.047 C 
ATOM      4  C   UNL     1     -28.242  38.790   1.099  0.00  0.00    +0.111 C 
ATOM      5  C   UNL     1     -29.527  38.796   1.936  0.00  0.00    -0.019 C 
ATOM      6  C   UNL     1     -30.409  39.940   1.439  0.00  0.00    +0.280 C 
ATOM      7  N   UNL     1     -29.723  41.217   1.521  0.00  0.00    -0.520 N 
ATOM      8  C   UNL     1     -30.346  42.245   2.260  0.00  0.00    +0.655 C 
ATOM      9  O   UNL     1     -31.468  42.085   2.748  0.00  0.00    -0.543 OA
ATOM     10  H   UNL     1     -27.280  42.104  -0.379  0.00  0.00    +0.272 HD
ENDROOT
BRANCH   5  11
ATOM     11  C   UNL     1     -29.257  38.934   3.442  0.00  0.00    +0.494 C 
ATOM     12  O   UNL     1     -28.354  39.640   3.888  0.00  0.00    -0.518 OA
ATOM     13  N   UNL     1     -30.058  38.134   4.253  0.00  0.00    -0.509 N 
ATOM     14  C   UNL     1     -30.265  38.268   5.601  0.00  0.00    +0.207 C 
ATOM     15  C   UNL     1     -30.847  37.373   6.712  0.00  0.00    -0.053 C 
ATOM     16  C   UNL     1     -31.179  36.015   6.061  0.00  0.00    -0.017 C 
ATOM     17  C   UNL     1     -30.968  35.614   4.654  0.00  0.00    +0.269 C 
ATOM     18  F   UNL     1     -29.989  34.679   4.580  0.00  0.00    -0.315 F 
ATOM     19  F   UNL     1     -32.082  35.108   4.087  0.00  0.00    -0.314 F 
ATOM     20  C   UNL     1     -30.511  36.857   3.991  0.00  0.00    +0.137 C 
ENDBRANCH   5  11
BRANCH   8  21
ATOM     21  N   UNL     1     -29.573  43.313   2.439  0.00  0.00    -0.423 NA
BRANCH  21  22
ATOM     22  C   UNL     1     -30.165  44.619   2.147  0.00  0.00    +0.230 C 
ATOM     23  C   UNL     1     -29.198  45.511   1.345  0.00  0.00    +0.088 C 
ATOM     24  C   UNL     1     -28.049  45.889   2.281  0.00  0.00    +0.459 C 
ATOM     25  S   UNL     1     -28.824  46.170   3.867  0.00  0.00    -0.914 S 
ATOM     26  O   UNL     1     -28.115  45.458   4.911  0.00  0.00    -0.183 OA
ATOM     27  O   UNL     1     -29.066  47.601   4.002  0.00  0.00    -0.208 OA
ATOM     28  C   UNL     1     -30.384  45.372   3.475  0.00  0.00    +0.419 C 
ENDBRANCH  21  22
ENDBRANCH   8  21
TORSDOF 3
ENDMDL
MODEL 2
REMARK VINA RESULT:    -6.331     20.642     22.599
REMARK INTER + INTRA:          -7.849
REMARK INTER:                  -7.179
REMARK INTRA:                  -0.669
REMARK UNBOUND:                -0.408
REMARK  Name = 
REMARK  3 active torsions:
REMARK  status: ('A' for Active; 'I' for Inactive)
REMARK    1  A    between atoms: C_5  and  C_6
REMARK    2  A    between atoms: C_18  and  N_20
REMARK    3  A    between atoms: N_20  and  C_21
REMARK                            x       y       z     vdW  Elec       q    Type
REMARK                         _______ _______ _______ _____ _____    ______ ____
ROOT
ATOM      1  N   UNL     1     -20.038  42.703 -14.528  0.00  0.00    -0.600 NA
ATOM      2  C   UNL     1     -18.997  43.200 -13.950  0.00  0.00    +0.468 C 
ATOM      3  C   UNL     1     -17.896  42.321 -13.382  0.00  0.00    +0.047 C 
ATOM      4  C   UNL     1     -17.497  42.745 -11.971  0.00  0.00    +0.111 C 
ATOM      5  C   UNL     1     -17.237  44.254 -11.885  0.00  0.00    -0.019 C 
ATOM      6  C   UNL     1     -18.474  44.977 -12.415  0.00  0.00    +0.280 C 
ATOM      7  N   UNL     1     -18.784  44.574 -13.775  0.00  0.00    -0.520 N 
ATOM      8  C   UNL     1     -18.871  45.590 -14.751  0.00  0.00    +0.655 C 
ATOM      9  O   UNL     1     -18.765  46.779 -14.441  0.00  0.00    -0.543 OA
ATOM     10  H   UNL     1     -19.956  41.693 -14.605  0.00  0.00    +0.272 HD
ENDROOT
BRANCH   5  11
ATOM     11  C   UNL     1     -15.982  44.688 -12.657  0.00  0.00    +0.494 C 
ATOM     12  O   UNL     1     -15.212  43.878 -13.171  0.00  0.00    -0.518 OA
ATOM     13  N   UNL     1     -15.741  46.059 -12.655  0.00  0.00    -0.509 N 
ATOM     14  C   UNL     1     -14.910  46.754 -13.494  0.00  0.00    +0.207 C 
ATOM     15  C   UNL     1     -14.288  48.164 -13.496  0.00  0.00    -0.053 C 
ATOM     16  C   UNL     1     -14.709  48.837 -12.172  0.00  0.00    -0.017 C 
ATOM     17  C   UNL     1     -15.527  48.258 -11.087  0.00  0.00    +0.269 C 
ATOM     18  F   UNL     1     -14.762  48.052  -9.987  0.00  0.00    -0.315 F 
ATOM     19  F   UNL     1     -16.563  49.049 -10.740  0.00  0.00    -0.314 F 
ATOM     20  C   UNL     1     -15.970  46.953 -11.628  0.00  0.00    +0.137 C 
ENDBRANCH   5  11
BRANCH   8  21
ATOM     21  N   UNL     1     -18.976  45.124 -15.993  0.00  0.00    -0.423 NA
BRANCH  21  22
ATOM     22  C   UNL     1     -19.936  45.789 -16.874  0.00  0.00    +0.230 C 
ATOM     23  C   UNL     1     -21.201  44.933 -17.079  0.00  0.00    +0.088 C 
ATOM     24  C   UNL     1     -20.796  43.719 -17.915  0.00  0.00    +0.459 C 
ATOM     25  S   UNL     1     -19.633  44.355 -19.114  0.00  0.00    -0.914 S 
ATOM     26  O   UNL     1     -18.445  43.528 -19.156  0.00  0.00    -0.183 OA
ATOM     27  O   UNL     1     -20.364  44.638 -20.343  0.00  0.00    -0.208 OA
ATOM     28  C   UNL     1     -19.315  45.913 -18.280  0.00  0.00    +0.419 C 
ENDBRANCH  21  22
ENDBRANCH   8  21
TORSDOF 3
ENDMDL
MODEL 3
REMARK VINA RESULT:    -6.198      9.957     11.584
REMARK INTER + INTRA:          -7.693
REMARK INTER:                  -7.044
REMARK INTRA:                  -0.648
REMARK UNBOUND:                -0.408
REMARK  Name = 
REMARK  3 active torsions:
REMARK  status: ('A' for Active; 'I' for Inactive)
REMARK    1  A    between atoms: C_5  and  C_6
REMARK    2  A    between atoms: C_18  and  N_20
REMARK    3  A    between atoms: N_20  and  C_21
REMARK                            x       y       z     vdW  Elec       q    Type
REMARK                         _______ _______ _______ _____ _____    ______ ____
ROOT
ATOM      1  N   UNL     1     -21.137  34.067  -0.200  0.00  0.00    -0.600 NA
ATOM      2  C   UNL     1     -20.951  33.264   0.793  0.00  0.00    +0.468 C 
ATOM      3  C   UNL     1     -19.567  32.772   1.179  0.00  0.00    +0.047 C 
ATOM      4  C   UNL     1     -19.539  31.262   1.406  0.00  0.00    +0.111 C 
ATOM      5  C   UNL     1     -20.675  30.808   2.330  0.00  0.00    -0.019 C 
ATOM      6  C   UNL     1     -21.992  31.316   1.745  0.00  0.00    +0.280 C 
ATOM      7  N   UNL     1     -21.985  32.759   1.592  0.00  0.00    -0.520 N 
ATOM      8  C   UNL     1     -23.018  33.485   2.223  0.00  0.00    +0.655 C 
ATOM      9  O   UNL     1     -23.933  32.906   2.814  0.00  0.00    -0.543 OA
ATOM     10  H   UNL     1     -20.248  34.357  -0.597  0.00  0.00    +0.272 HD
ENDROOT
BRANCH   5  11
ATOM     11  C   UNL     1     -20.499  31.296   3.776  0.00  0.00    +0.494 C 
ATOM     12  O   UNL     1     -19.760  32.234   4.069  0.00  0.00    -0.518 OA
ATOM     13  N   UNL     1     -21.175  30.541   4.732  0.00  0.00    -0.509 N 
ATOM     14  C   UNL     1     -21.460  30.905   6.022  0.00  0.00    +0.207 C 
ATOM     15  C   UNL     1     -21.916  30.161   7.292  0.00  0.00    -0.053 C 
ATOM     16  C   UNL     1     -21.966  28.661   6.935  0.00  0.00    -0.017 C 
ATOM     17  C   UNL     1     -21.626  28.030   5.643  0.00  0.00    +0.269 C 
ATOM     18  F   UNL     1     -20.491  27.299   5.767  0.00  0.00    -0.315 F 
ATOM     19  F   UNL     1     -22.604  27.221   5.188  0.00  0.00    -0.314 F 
ATOM     20  C   UNL     1     -21.376  29.176   4.738  0.00  0.00    +0.137 C 
ENDBRANCH   5  11
BRANCH   8  21
ATOM     21  N   UNL     1     -22.837  34.804   2.189  0.00  0.00    -0.423 NA
BRANCH  21  22
ATOM     22  C   UNL     1     -22.350  35.440   3.413  0.00  0.00    +0.230 C 
ATOM     23  C   UNL     1     -23.272  36.591   3.857  0.00  0.00    +0.088 C 
ATOM     24  C   UNL     1     -23.115  37.717   2.833  0.00  0.00    +0.459 C 
ATOM     25  S   UNL     1     -21.374  37.730   2.430  0.00  0.00    -0.914 S 
ATOM     26  O   UNL     1     -21.187  37.750   0.993  0.00  0.00    -0.183 OA
ATOM     27  O   UNL     1     -20.728  38.739   3.259  0.00  0.00    -0.208 OA
ATOM     28  C   UNL     1     -20.995  36.115   3.116  0.00  0.00    +0.419 C 
ENDBRANCH  21  22
ENDBRANCH   8  21
TORSDOF 3
ENDMDL
MODEL 4
REMARK VINA RESULT:    -6.072      4.567      6.324
REMARK INTER + INTRA:          -7.544
REMARK INTER:                  -6.699
REMARK INTRA:                  -0.845
REMARK UNBOUND:                -0.408
REMARK  Name = 
REMARK  3 active torsions:
REMARK  status: ('A' for Active; 'I' for Inactive)
REMARK    1  A    between atoms: C_5  and  C_6
REMARK    2  A    between atoms: C_18  and  N_20
REMARK    3  A    between atoms: N_20  and  C_21
REMARK                            x       y       z     vdW  Elec       q    Type
REMARK                         _______ _______ _______ _____ _____    ______ ____
ROOT
ATOM      1  N   UNL     1     -31.609  46.068   7.123  0.00  0.00    -0.600 NA
ATOM      2  C   UNL     1     -31.101  44.982   6.645  0.00  0.00    +0.468 C 
ATOM      3  C   UNL     1     -30.513  43.907   7.543  0.00  0.00    +0.047 C 
ATOM      4  C   UNL     1     -29.148  43.434   7.051  0.00  0.00    +0.111 C 
ATOM      5  C   UNL     1     -29.172  43.094   5.555  0.00  0.00    -0.019 C 
ATOM      6  C   UNL     1     -29.708  44.311   4.802  0.00  0.00    +0.280 C 
ATOM      7  N   UNL     1     -31.026  44.692   5.276  0.00  0.00    -0.520 N 
ATOM      8  C   UNL     1     -32.064  44.764   4.323  0.00  0.00    +0.655 C 
ATOM      9  O   UNL     1     -31.839  44.585   3.124  0.00  0.00    -0.543 OA
ATOM     10  H   UNL     1     -31.620  46.041   8.139  0.00  0.00    +0.272 HD
ENDROOT
BRANCH   5  11
ATOM     11  C   UNL     1     -30.014  41.848   5.240  0.00  0.00    +0.494 C 
ATOM     12  O   UNL     1     -30.514  41.151   6.122  0.00  0.00    -0.518 OA
ATOM     13  N   UNL     1     -30.094  41.525   3.888  0.00  0.00    -0.509 N 
ATOM     14  C   UNL     1     -31.000  40.689   3.290  0.00  0.00    +0.207 C 
ATOM     15  C   UNL     1     -31.101  39.983   1.924  0.00  0.00    -0.053 C 
ATOM     16  C   UNL     1     -29.800  40.307   1.160  0.00  0.00    -0.017 C 
ATOM     17  C   UNL     1     -28.655  41.113   1.631  0.00  0.00    +0.269 C 
ATOM     18  F   UNL     1     -27.576  40.316   1.828  0.00  0.00    -0.315 F 
ATOM     19  F   UNL     1     -28.312  42.084   0.760  0.00  0.00    -0.314 F 
ATOM     20  C   UNL     1     -29.109  41.657   2.931  0.00  0.00    +0.137 C 
ENDBRANCH   5  11
BRANCH   8  21
ATOM     21  N   UNL     1     -33.269  44.938   4.863  0.00  0.00    -0.423 NA
BRANCH  21  22
ATOM     22  C   UNL     1     -34.162  43.780   4.885  0.00  0.00    +0.230 C 
ATOM     23  C   UNL     1     -35.631  44.196   4.680  0.00  0.00    +0.088 C 
ATOM     24  C   UNL     1     -36.067  44.952   5.936  0.00  0.00    +0.459 C 
ATOM     25  S   UNL     1     -35.299  44.073   7.290  0.00  0.00    -0.914 S 
ATOM     26  O   UNL     1     -34.626  44.999   8.178  0.00  0.00    -0.183 OA
ATOM     27  O   UNL     1     -36.275  43.133   7.827  0.00  0.00    -0.208 OA
ATOM     28  C   UNL     1     -34.124  43.152   6.293  0.00  0.00    +0.419 C 
ENDBRANCH  21  22
ENDBRANCH   8  21
TORSDOF 3
ENDMDL
MODEL 5
REMARK VINA RESULT:    -5.988     21.262     23.469
REMARK INTER + INTRA:          -7.446
REMARK INTER:                  -6.867
REMARK INTRA:                  -0.580
REMARK UNBOUND:                -0.408
REMARK  Name = 
REMARK  3 active torsions:
REMARK  status: ('A' for Active; 'I' for Inactive)
REMARK    1  A    between atoms: C_5  and  C_6
REMARK    2  A    between atoms: C_18  and  N_20
REMARK    3  A    between atoms: N_20  and  C_21
REMARK                            x       y       z     vdW  Elec       q    Type
REMARK                         _______ _______ _______ _____ _____    ______ ____
ROOT
ATOM      1  N   UNL     1     -14.788  46.718 -16.237  0.00  0.00    -0.600 NA
ATOM      2  C   UNL     1     -15.876  46.448 -16.877  0.00  0.00    +0.468 C 
ATOM      3  C   UNL     1     -15.859  45.875 -18.284  0.00  0.00    +0.047 C 
ATOM      4  C   UNL     1     -16.821  46.611 -19.213  0.00  0.00    +0.111 C 
ATOM      5  C   UNL     1     -18.213  46.758 -18.584  0.00  0.00    -0.019 C 
ATOM      6  C   UNL     1     -18.047  47.426 -17.220  0.00  0.00    +0.280 C 
ATOM      7  N   UNL     1     -17.160  46.665 -16.359  0.00  0.00    -0.520 N 
ATOM      8  C   UNL     1     -17.661  46.259 -15.104  0.00  0.00    +0.655 C 
ATOM      9  O   UNL     1     -18.782  46.609 -14.724  0.00  0.00    -0.543 OA
ATOM     10  H   UNL     1     -13.976  46.423 -16.771  0.00  0.00    +0.272 HD
ENDROOT
BRANCH   5  11
ATOM     11  C   UNL     1     -18.950  45.418 -18.447  0.00  0.00    +0.494 C 
ATOM     12  O   UNL     1     -18.492  44.365 -18.888  0.00  0.00    -0.518 OA
ATOM     13  N   UNL     1     -20.210  45.504 -17.861  0.00  0.00    -0.509 N 
ATOM     14  C   UNL     1     -20.948  44.477 -17.332  0.00  0.00    +0.207 C 
ATOM     15  C   UNL     1     -22.419  44.289 -16.913  0.00  0.00    -0.053 C 
ATOM     16  C   UNL     1     -23.155  45.595 -17.281  0.00  0.00    -0.017 C 
ATOM     17  C   UNL     1     -22.590  46.797 -17.929  0.00  0.00    +0.269 C 
ATOM     18  F   UNL     1     -23.088  46.925 -19.183  0.00  0.00    -0.315 F 
ATOM     19  F   UNL     1     -22.860  47.928 -17.248  0.00  0.00    -0.314 F 
ATOM     20  C   UNL     1     -21.138  46.516 -18.003  0.00  0.00    +0.137 C 
ENDBRANCH   5  11
BRANCH   8  21
ATOM     21  N   UNL     1     -16.857  45.417 -14.458  0.00  0.00    -0.423 NA
BRANCH  21  22
ATOM     22  C   UNL     1     -16.796  45.541 -13.002  0.00  0.00    +0.230 C 
ATOM     23  C   UNL     1     -15.376  45.265 -12.472  0.00  0.00    +0.088 C 
ATOM     24  C   UNL     1     -15.098  43.775 -12.673  0.00  0.00    +0.459 C 
ATOM     25  S   UNL     1     -16.644  42.965 -12.290  0.00  0.00    -0.914 S 
ATOM     26  O   UNL     1     -16.992  42.019 -13.331  0.00  0.00    -0.183 OA
ATOM     27  O   UNL     1     -16.591  42.527 -10.900  0.00  0.00    -0.208 OA
ATOM     28  C   UNL     1     -17.670  44.436 -12.374  0.00  0.00    +0.419 C 
ENDBRANCH  21  22
ENDBRANCH   8  21
TORSDOF 3
ENDMDL
