MODEL 1
REMARK VINA RESULT:    -8.533      0.000      0.000
REMARK INTER + INTRA:         -10.861
REMARK INTER:                 -10.528
REMARK INTRA:                  -0.333
REMARK UNBOUND:                -0.333
REMARK  Name = 
REMARK  5 active torsions:
REMARK  status: ('A' for Active; 'I' for Inactive)
REMARK    1  A    between atoms: N_1  and  C_2
REMARK    2  A    between atoms: C_7  and  C_8
REMARK    3  A    between atoms: C_8  and  O_9
REMARK    4  A    between atoms: N_10  and  C_11
REMARK    5  A    between atoms: C_11  and  C_12
REMARK                            x       y       z     vdW  Elec       q    Type
REMARK                         _______ _______ _______ _____ _____    ______ ____
ROOT
ATOM      1  C   UNL     1     -19.213  39.668 -10.963  0.00  0.00    +0.477 C 
ATOM      2  N   UNL     1     -19.643  39.703  -9.754  0.00  0.00    -0.366 NA
ENDROOT
BRANCH   1   8
ATOM      3  C   UNL     1     -17.057  40.504 -12.204  0.00  0.00    +0.566 C 
ATOM      4  N   UNL     1     -16.494  41.545 -12.846  0.00  0.00    -0.698 N 
ATOM      5  C   UNL     1     -17.121  42.671 -13.189  0.00  0.00    +0.305 C 
ATOM      6  C   UNL     1     -18.457  42.822 -12.851  0.00  0.00    -0.011 C 
ATOM      7  C   UNL     1     -19.069  41.810 -12.125  0.00  0.00    +0.102 C 
ATOM      8  C   UNL     1     -18.399  40.630 -11.781  0.00  0.00    -0.199 C 
ATOM      9  H   UNL     1     -15.510  41.465 -13.107  0.00  0.00    +0.331 HD
BRANCH   3  10
ATOM     10  N   UNL     1     -16.219  39.435 -12.003  0.00  0.00    -0.853 N 
ATOM     11  H   UNL     1     -15.586  39.081 -12.711  0.00  0.00    +0.344 HD
ATOM     12  H   UNL     1     -16.607  38.665 -11.452  0.00  0.00    +0.327 HD
ENDBRANCH   3  10
ENDBRANCH   1   8
BRANCH   1  13
ATOM     13  O   UNL     1     -19.560  38.555 -11.650  0.00  0.00    -0.558 OA
ATOM     14  H   UNL     1     -19.333  38.500 -12.590  0.00  0.00    +0.342 HD
ENDBRANCH   1  13
BRANCH   2  15
ATOM     15  C   UNL     1     -19.362  40.823  -8.885  0.00  0.00    +0.270 C 
BRANCH  15  16
ATOM     16  C   UNL     1     -20.345  41.225  -7.825  0.00  0.00    +0.074 A 
ATOM     17  C   UNL     1     -20.051  41.992  -6.697  0.00  0.00    +0.123 A 
ATOM     18  C   UNL     1     -21.087  42.412  -5.857  0.00  0.00    +0.126 A 
ATOM     19  C   UNL     1     -22.416  42.075  -6.134  0.00  0.00    +0.115 A 
ATOM     20  C   UNL     1     -22.716  41.300  -7.243  0.00  0.00    +0.124 A 
ATOM     21  C   UNL     1     -21.688  40.878  -8.078  0.00  0.00    +0.060 A 
ENDBRANCH  15  16
ENDBRANCH   2  15
TORSDOF 5
ENDMDL
MODEL 2
REMARK VINA RESULT:    -8.329      1.726      2.118
REMARK INTER + INTRA:         -10.609
REMARK INTER:                 -10.117
REMARK INTRA:                  -0.493
REMARK UNBOUND:                -0.333
REMARK  Name = 
REMARK  5 active torsions:
REMARK  status: ('A' for Active; 'I' for Inactive)
REMARK    1  A    between atoms: N_1  and  C_2
REMARK    2  A    between atoms: C_7  and  C_8
REMARK    3  A    between atoms: C_8  and  O_9
REMARK    4  A    between atoms: N_10  and  C_11
REMARK    5  A    between atoms: C_11  and  C_12
REMARK                            x       y       z     vdW  Elec       q    Type
REMARK                         _______ _______ _______ _____ _____    ______ ____
ROOT
ATOM      1  C   UNL     1     -17.967  40.589 -10.254  0.00  0.00    +0.477 C 
ATOM      2  N   UNL     1     -18.614  40.089  -9.264  0.00  0.00    -0.366 NA
ENDROOT
BRANCH   1   8
ATOM      3  C   UNL     1     -19.157  40.799 -12.583  0.00  0.00    +0.566 C 
ATOM      4  N   UNL     1     -19.350  41.598 -13.649  0.00  0.00    -0.698 N 
ATOM      5  C   UNL     1     -18.957  42.869 -13.742  0.00  0.00    +0.305 C 
ATOM      6  C   UNL     1     -18.270  43.437 -12.679  0.00  0.00    -0.011 C 
ATOM      7  C   UNL     1     -17.979  42.636 -11.584  0.00  0.00    +0.102 C 
ATOM      8  C   UNL     1     -18.407  41.306 -11.498  0.00  0.00    -0.199 C 
ATOM      9  H   UNL     1     -19.852  41.210 -14.449  0.00  0.00    +0.331 HD
BRANCH   3  10
ATOM     10  N   UNL     1     -19.696  39.542 -12.706  0.00  0.00    -0.853 N 
ATOM     11  H   UNL     1     -20.502  39.227 -12.178  0.00  0.00    +0.344 HD
ATOM     12  H   UNL     1     -19.023  38.781 -12.822  0.00  0.00    +0.327 HD
ENDBRANCH   3  10
ENDBRANCH   1   8
BRANCH   1  13
ATOM     13  O   UNL     1     -16.624  40.442 -10.178  0.00  0.00    -0.558 OA
ATOM     14  H   UNL     1     -16.167  39.968 -10.888  0.00  0.00    +0.342 HD
ENDBRANCH   1  13
BRANCH   2  15
ATOM     15  C   UNL     1     -20.056  40.159  -9.193  0.00  0.00    +0.270 C 
BRANCH  15  16
ATOM     16  C   UNL     1     -20.723  40.968  -8.119  0.00  0.00    +0.074 A 
ATOM     17  C   UNL     1     -22.090  40.969  -7.836  0.00  0.00    +0.123 A 
ATOM     18  C   UNL     1     -22.565  41.663  -6.719  0.00  0.00    +0.126 A 
ATOM     19  C   UNL     1     -21.687  42.355  -5.879  0.00  0.00    +0.115 A 
ATOM     20  C   UNL     1     -20.330  42.373  -6.161  0.00  0.00    +0.124 A 
ATOM     21  C   UNL     1     -19.855  41.688  -7.272  0.00  0.00    +0.060 A 
ENDBRANCH  15  16
ENDBRANCH   2  15
TORSDOF 5
ENDMDL
MODEL 3
REMARK VINA RESULT:    -7.628      1.391      1.748
REMARK INTER + INTRA:          -9.744
REMARK INTER:                  -9.402
REMARK INTRA:                  -0.342
REMARK UNBOUND:                -0.333
REMARK  Name = 
REMARK  5 active torsions:
REMARK  status: ('A' for Active; 'I' for Inactive)
REMARK    1  A    between atoms: N_1  and  C_2
REMARK    2  A    between atoms: C_7  and  C_8
REMARK    3  A    between atoms: C_8  and  O_9
REMARK    4  A    between atoms: N_10  and  C_11
REMARK    5  A    between atoms: C_11  and  C_12
REMARK                            x       y       z     vdW  Elec       q    Type
REMARK                         _______ _______ _______ _____ _____    ______ ____
ROOT
ATOM      1  C   UNL     1     -17.908  40.307 -10.828  0.00  0.00    +0.477 C 
ATOM      2  N   UNL     1     -18.362  40.211  -9.630  0.00  0.00    -0.366 NA
ENDROOT
BRANCH   1   8
ATOM      3  C   UNL     1     -18.187  41.922 -12.876  0.00  0.00    +0.566 C 
ATOM      4  N   UNL     1     -17.635  42.951 -13.546  0.00  0.00    -0.698 N 
ATOM      5  C   UNL     1     -16.574  43.653 -13.145  0.00  0.00    +0.305 C 
ATOM      6  C   UNL     1     -15.952  43.304 -11.955  0.00  0.00    -0.011 C 
ATOM      7  C   UNL     1     -16.435  42.205 -11.260  0.00  0.00    +0.102 C 
ATOM      8  C   UNL     1     -17.556  41.485 -11.691  0.00  0.00    -0.199 C 
ATOM      9  H   UNL     1     -18.068  43.231 -14.427  0.00  0.00    +0.331 HD
BRANCH   3  10
ATOM     10  N   UNL     1     -19.305  41.388 -13.469  0.00  0.00    -0.853 N 
ATOM     11  H   UNL     1     -19.369  41.189 -14.461  0.00  0.00    +0.344 HD
ATOM     12  H   UNL     1     -20.201  41.729 -13.112  0.00  0.00    +0.327 HD
ENDBRANCH   3  10
ENDBRANCH   1   8
BRANCH   1  13
ATOM     13  O   UNL     1     -17.710  39.121 -11.448  0.00  0.00    -0.558 OA
ATOM     14  H   UNL     1     -18.155  38.958 -12.292  0.00  0.00    +0.342 HD
ENDBRANCH   1  13
BRANCH   2  15
ATOM     15  C   UNL     1     -18.631  41.385  -8.830  0.00  0.00    +0.270 C 
BRANCH  15  16
ATOM     16  C   UNL     1     -19.845  41.439  -7.950  0.00  0.00    +0.074 A 
ATOM     17  C   UNL     1     -19.962  42.185  -6.776  0.00  0.00    +0.123 A 
ATOM     18  C   UNL     1     -21.195  42.257  -6.122  0.00  0.00    +0.126 A 
ATOM     19  C   UNL     1     -22.315  41.592  -6.629  0.00  0.00    +0.115 A 
ATOM     20  C   UNL     1     -22.205  40.836  -7.786  0.00  0.00    +0.124 A 
ATOM     21  C   UNL     1     -20.980  40.759  -8.437  0.00  0.00    +0.060 A 
ENDBRANCH  15  16
ENDBRANCH   2  15
TORSDOF 5
ENDMDL
MODEL 4
REMARK VINA RESULT:    -7.100      2.332      5.641
REMARK INTER + INTRA:          -9.093
REMARK INTER:                  -8.448
REMARK INTRA:                  -0.645
REMARK UNBOUND:                -0.333
REMARK  Name = 
REMARK  5 active torsions:
REMARK  status: ('A' for Active; 'I' for Inactive)
REMARK    1  A    between atoms: N_1  and  C_2
REMARK    2  A    between atoms: C_7  and  C_8
REMARK    3  A    between atoms: C_8  and  O_9
REMARK    4  A    between atoms: N_10  and  C_11
REMARK    5  A    between atoms: C_11  and  C_12
REMARK                            x       y       z     vdW  Elec       q    Type
REMARK                         _______ _______ _______ _____ _____    ______ ____
ROOT
ATOM      1  C   UNL     1     -17.013  40.576 -12.211  0.00  0.00    +0.477 C 
ATOM      2  N   UNL     1     -16.969  41.399 -13.196  0.00  0.00    -0.366 NA
ENDROOT
BRANCH   1   8
ATOM      3  C   UNL     1     -19.306  39.721 -11.263  0.00  0.00    +0.566 C 
ATOM      4  N   UNL     1     -20.104  39.695 -10.180  0.00  0.00    -0.698 N 
ATOM      5  C   UNL     1     -19.770  40.128  -8.963  0.00  0.00    +0.305 C 
ATOM      6  C   UNL     1     -18.510  40.677  -8.772  0.00  0.00    -0.011 C 
ATOM      7  C   UNL     1     -17.672  40.795  -9.871  0.00  0.00    +0.102 C 
ATOM      8  C   UNL     1     -18.036  40.327 -11.139  0.00  0.00    -0.199 C 
ATOM      9  H   UNL     1     -21.039  39.298 -10.288  0.00  0.00    +0.331 HD
BRANCH   3  10
ATOM     10  N   UNL     1     -19.859  39.173 -12.394  0.00  0.00    -0.853 N 
ATOM     11  H   UNL     1     -19.835  39.624 -13.302  0.00  0.00    +0.344 HD
ATOM     12  H   UNL     1     -20.746  38.682 -12.260  0.00  0.00    +0.327 HD
ENDBRANCH   3  10
ENDBRANCH   1   8
BRANCH   1  13
ATOM     13  O   UNL     1     -15.929  39.774 -12.102  0.00  0.00    -0.558 OA
ATOM     14  H   UNL     1     -15.731  39.160 -12.824  0.00  0.00    +0.342 HD
ENDBRANCH   1  13
BRANCH   2  15
ATOM     15  C   UNL     1     -18.047  42.327 -13.451  0.00  0.00    +0.270 C 
BRANCH  15  16
ATOM     16  C   UNL     1     -17.884  43.785 -13.132  0.00  0.00    +0.074 A 
ATOM     17  C   UNL     1     -18.091  44.837 -14.025  0.00  0.00    +0.123 A 
ATOM     18  C   UNL     1     -18.038  46.156 -13.563  0.00  0.00    +0.126 A 
ATOM     19  C   UNL     1     -17.782  46.434 -12.217  0.00  0.00    +0.115 A 
ATOM     20  C   UNL     1     -17.559  45.395 -11.326  0.00  0.00    +0.124 A 
ATOM     21  C   UNL     1     -17.607  44.084 -11.782  0.00  0.00    +0.060 A 
ENDBRANCH  15  16
ENDBRANCH   2  15
TORSDOF 5
ENDMDL
MODEL 5
REMARK VINA RESULT:    -6.814      1.828      2.440
REMARK INTER + INTRA:          -8.740
REMARK INTER:                  -8.241
REMARK INTRA:                  -0.500
REMARK UNBOUND:                -0.333
REMARK  Name = 
REMARK  5 active torsions:
REMARK  status: ('A' for Active; 'I' for Inactive)
REMARK    1  A    between atoms: N_1  and  C_2
REMARK    2  A    between atoms: C_7  and  C_8
REMARK    3  A    between atoms: C_8  and  O_9
REMARK    4  A    between atoms: N_10  and  C_11
REMARK    5  A    between atoms: C_11  and  C_12
REMARK                            x       y       z     vdW  Elec       q    Type
REMARK                         _______ _______ _______ _____ _____    ______ ____
ROOT
ATOM      1  C   UNL     1     -17.205  40.549 -11.642  0.00  0.00    +0.477 C 
ATOM      2  N   UNL     1     -17.824  40.012 -10.654  0.00  0.00    -0.366 NA
ENDROOT
BRANCH   1   8
ATOM      3  C   UNL     1     -15.139  42.160 -11.507  0.00  0.00    +0.566 C 
ATOM      4  N   UNL     1     -14.732  43.437 -11.631  0.00  0.00    -0.698 N 
ATOM      5  C   UNL     1     -15.480  44.444 -12.085  0.00  0.00    +0.305 C 
ATOM      6  C   UNL     1     -16.795  44.191 -12.447  0.00  0.00    -0.011 C 
ATOM      7  C   UNL     1     -17.288  42.906 -12.271  0.00  0.00    +0.102 C 
ATOM      8  C   UNL     1     -16.487  41.859 -11.801  0.00  0.00    -0.199 C 
ATOM      9  H   UNL     1     -13.770  43.657 -11.372  0.00  0.00    +0.331 HD
BRANCH   3  10
ATOM     10  N   UNL     1     -14.171  41.293 -11.061  0.00  0.00    -0.853 N 
ATOM     11  H   UNL     1     -14.144  40.927 -10.116  0.00  0.00    +0.344 HD
ATOM     12  H   UNL     1     -13.224  41.471 -11.405  0.00  0.00    +0.327 HD
ENDBRANCH   3  10
ENDBRANCH   1   8
BRANCH   1  13
ATOM     13  O   UNL     1     -17.198  39.803 -12.771  0.00  0.00    -0.558 OA
ATOM     14  H   UNL     1     -16.643  39.009 -12.799  0.00  0.00    +0.342 HD
ENDBRANCH   1  13
BRANCH   2  15
ATOM     15  C   UNL     1     -17.926  40.679  -9.376  0.00  0.00    +0.270 C 
BRANCH  15  16
ATOM     16  C   UNL     1     -19.271  40.934  -8.760  0.00  0.00    +0.074 A 
ATOM     17  C   UNL     1     -20.432  40.202  -9.017  0.00  0.00    +0.123 A 
ATOM     18  C   UNL     1     -21.588  40.456  -8.273  0.00  0.00    +0.126 A 
ATOM     19  C   UNL     1     -21.597  41.433  -7.273  0.00  0.00    +0.115 A 
ATOM     20  C   UNL     1     -20.454  42.176  -7.022  0.00  0.00    +0.124 A 
ATOM     21  C   UNL     1     -19.304  41.929  -7.762  0.00  0.00    +0.060 A 
ENDBRANCH  15  16
ENDBRANCH   2  15
TORSDOF 5
ENDMDL
