MODEL 1
REMARK VINA RESULT:    -8.476      0.000      0.000
REMARK INTER + INTRA:         -10.656
REMARK INTER:                 -10.211
REMARK INTRA:                  -0.445
REMARK UNBOUND:                -0.445
REMARK  Name = 
REMARK  4 active torsions:
REMARK  status: ('A' for Active; 'I' for Inactive)
REMARK    1  A    between atoms: C_4  and  C_5
REMARK    2  A    between atoms: C_5  and  N_6
REMARK    3  A    between atoms: C_10  and  C_11
REMARK    4  A    between atoms: C_11  and  N_12
REMARK                            x       y       z     vdW  Elec       q    Type
REMARK                         _______ _______ _______ _____ _____    ______ ____
ROOT
ATOM      1  N   UNL     1     -17.725  41.058  -9.325  0.00  0.00    -0.642 N 
ATOM      2  C   UNL     1     -18.971  41.187  -8.670  0.00  0.00    +0.393 A 
ATOM      3  C   UNL     1     -19.052  42.001  -7.544  0.00  0.00    -0.112 A 
ATOM      4  C   UNL     1     -20.286  42.169  -6.910  0.00  0.00    +0.070 A 
ATOM      5  C   UNL     1     -21.423  41.529  -7.409  0.00  0.00    -0.126 A 
ATOM      6  C   UNL     1     -21.238  40.726  -8.524  0.00  0.00    +0.164 A 
ATOM      7  N   UNL     1     -20.045  40.536  -9.153  0.00  0.00    -0.494 NA
ATOM      8  H   UNL     1     -17.437  41.995  -9.592  0.00  0.00    +0.243 HD
ENDROOT
BRANCH   5   9
ATOM      9  C   UNL     1     -22.743  41.752  -6.730  0.00  0.00    +0.499 C 
ATOM     10  O   UNL     1     -23.627  40.934  -6.949  0.00  0.00    -0.549 OA
BRANCH   9  11
ATOM     11  N   UNL     1     -22.889  42.803  -5.929  0.00  0.00    -0.660 NA
ATOM     12  H   UNL     1     -23.837  43.162  -5.874  0.00  0.00    +0.253 HD
ENDBRANCH   9  11
ENDBRANCH   5   9
BRANCH   1  13
ATOM     13  C   UNL     1     -17.788  40.145 -10.470  0.00  0.00    +0.190 C 
BRANCH  13  17
ATOM     14  N   UNL     1     -15.235  43.419 -13.075  0.00  0.00    -0.711 NA
ATOM     15  C   UNL     1     -16.379  42.954 -12.694  0.00  0.00    +0.477 C 
ATOM     16  C   UNL     1     -16.542  42.096 -11.458  0.00  0.00    -0.087 C 
ATOM     17  C   UNL     1     -17.446  40.891 -11.765  0.00  0.00    +0.065 C 
ATOM     18  C   UNL     1     -18.726  41.350 -12.491  0.00  0.00    +0.031 C 
ATOM     19  C   UNL     1     -18.395  42.148 -13.744  0.00  0.00    +0.152 C 
ATOM     20  N   UNL     1     -17.494  43.240 -13.425  0.00  0.00    -0.667 N 
ATOM     21  H   UNL     1     -14.495  43.110 -12.434  0.00  0.00    +0.246 HD
ATOM     22  H   UNL     1     -17.249  43.806 -14.234  0.00  0.00    +0.264 HD
ENDBRANCH  13  17
ENDBRANCH   1  13
TORSDOF 4
ENDMDL
MODEL 2
REMARK VINA RESULT:    -7.681      2.789      6.936
REMARK INTER + INTRA:          -9.698
REMARK INTER:                  -9.327
REMARK INTRA:                  -0.371
REMARK UNBOUND:                -0.445
REMARK  Name = 
REMARK  4 active torsions:
REMARK  status: ('A' for Active; 'I' for Inactive)
REMARK    1  A    between atoms: C_4  and  C_5
REMARK    2  A    between atoms: C_5  and  N_6
REMARK    3  A    between atoms: C_10  and  C_11
REMARK    4  A    between atoms: C_11  and  N_12
REMARK                            x       y       z     vdW  Elec       q    Type
REMARK                         _______ _______ _______ _____ _____    ______ ____
ROOT
ATOM      1  N   UNL     1     -19.378  40.317  -9.586  0.00  0.00    -0.642 N 
ATOM      2  C   UNL     1     -18.776  41.199 -10.512  0.00  0.00    +0.393 A 
ATOM      3  C   UNL     1     -19.011  41.003 -11.871  0.00  0.00    -0.112 A 
ATOM      4  C   UNL     1     -18.455  41.891 -12.794  0.00  0.00    +0.070 A 
ATOM      5  C   UNL     1     -17.677  42.964 -12.355  0.00  0.00    -0.126 A 
ATOM      6  C   UNL     1     -17.485  43.065 -10.985  0.00  0.00    +0.164 A 
ATOM      7  N   UNL     1     -18.007  42.208 -10.064  0.00  0.00    -0.494 NA
ATOM      8  H   UNL     1     -20.381  40.369  -9.743  0.00  0.00    +0.243 HD
ENDROOT
BRANCH   5   9
ATOM      9  C   UNL     1     -17.117  43.923 -13.365  0.00  0.00    +0.499 C 
ATOM     10  O   UNL     1     -15.942  44.240 -13.241  0.00  0.00    -0.549 OA
BRANCH   9  11
ATOM     11  N   UNL     1     -17.905  44.370 -14.337  0.00  0.00    -0.660 NA
ATOM     12  H   UNL     1     -18.864  44.549 -14.054  0.00  0.00    +0.253 HD
ENDBRANCH   9  11
ENDBRANCH   5   9
BRANCH   1  13
ATOM     13  C   UNL     1     -19.012  40.628  -8.201  0.00  0.00    +0.190 C 
BRANCH  13  17
ATOM     14  N   UNL     1     -23.861  40.531  -7.489  0.00  0.00    -0.711 NA
ATOM     15  C   UNL     1     -22.748  41.186  -7.452  0.00  0.00    +0.477 C 
ATOM     16  C   UNL     1     -21.526  40.766  -8.240  0.00  0.00    -0.087 C 
ATOM     17  C   UNL     1     -20.272  40.840  -7.353  0.00  0.00    +0.065 C 
ATOM     18  C   UNL     1     -20.216  42.192  -6.614  0.00  0.00    +0.031 C 
ATOM     19  C   UNL     1     -21.491  42.441  -5.820  0.00  0.00    +0.152 C 
ATOM     20  N   UNL     1     -22.655  42.304  -6.676  0.00  0.00    -0.667 N 
ATOM     21  H   UNL     1     -23.772  39.714  -8.102  0.00  0.00    +0.246 HD
ATOM     22  H   UNL     1     -23.532  42.468  -6.189  0.00  0.00    +0.264 HD
ENDBRANCH  13  17
ENDBRANCH   1  13
TORSDOF 4
ENDMDL
MODEL 3
REMARK VINA RESULT:    -7.435      1.319      2.173
REMARK INTER + INTRA:          -9.402
REMARK INTER:                  -9.305
REMARK INTRA:                  -0.096
REMARK UNBOUND:                -0.445
REMARK  Name = 
REMARK  4 active torsions:
REMARK  status: ('A' for Active; 'I' for Inactive)
REMARK    1  A    between atoms: C_4  and  C_5
REMARK    2  A    between atoms: C_5  and  N_6
REMARK    3  A    between atoms: C_10  and  C_11
REMARK    4  A    between atoms: C_11  and  N_12
REMARK                            x       y       z     vdW  Elec       q    Type
REMARK                         _______ _______ _______ _____ _____    ______ ____
ROOT
ATOM      1  N   UNL     1     -18.365  40.074 -10.350  0.00  0.00    -0.642 N 
ATOM      2  C   UNL     1     -19.174  40.635  -9.334  0.00  0.00    +0.393 A 
ATOM      3  C   UNL     1     -20.468  40.149  -9.168  0.00  0.00    -0.112 A 
ATOM      4  C   UNL     1     -21.264  40.667  -8.144  0.00  0.00    +0.070 A 
ATOM      5  C   UNL     1     -20.761  41.655  -7.296  0.00  0.00    -0.126 A 
ATOM      6  C   UNL     1     -19.468  42.086  -7.552  0.00  0.00    +0.164 A 
ATOM      7  N   UNL     1     -18.675  41.607  -8.550  0.00  0.00    -0.494 NA
ATOM      8  H   UNL     1     -18.305  39.078 -10.159  0.00  0.00    +0.243 HD
ENDROOT
BRANCH   5   9
ATOM      9  C   UNL     1     -21.625  42.171  -6.182  0.00  0.00    +0.499 C 
ATOM     10  O   UNL     1     -21.110  42.265  -5.075  0.00  0.00    -0.549 OA
BRANCH   9  11
ATOM     11  N   UNL     1     -22.884  42.506  -6.442  0.00  0.00    -0.660 NA
ATOM     12  H   UNL     1     -23.112  43.476  -6.249  0.00  0.00    +0.253 HD
ENDBRANCH   9  11
ENDBRANCH   5   9
BRANCH   1  13
ATOM     13  C   UNL     1     -17.046  40.708 -10.425  0.00  0.00    +0.190 C 
BRANCH  13  17
ATOM     14  N   UNL     1     -18.496  43.394 -14.260  0.00  0.00    -0.711 NA
ATOM     15  C   UNL     1     -17.541  42.980 -13.494  0.00  0.00    +0.477 C 
ATOM     16  C   UNL     1     -17.661  41.737 -12.639  0.00  0.00    -0.087 C 
ATOM     17  C   UNL     1     -17.128  42.015 -11.224  0.00  0.00    +0.065 C 
ATOM     18  C   UNL     1     -15.751  42.705 -11.294  0.00  0.00    +0.031 C 
ATOM     19  C   UNL     1     -15.809  43.970 -12.139  0.00  0.00    +0.152 C 
ATOM     20  N   UNL     1     -16.372  43.680 -13.445  0.00  0.00    -0.667 N 
ATOM     21  H   UNL     1     -19.310  42.775 -14.180  0.00  0.00    +0.246 HD
ATOM     22  H   UNL     1     -16.425  44.497 -14.048  0.00  0.00    +0.264 HD
ENDBRANCH  13  17
ENDBRANCH   1  13
TORSDOF 4
ENDMDL
MODEL 4
REMARK VINA RESULT:    -6.918      4.031      6.139
REMARK INTER + INTRA:          -8.778
REMARK INTER:                  -8.508
REMARK INTRA:                  -0.270
REMARK UNBOUND:                -0.445
REMARK  Name = 
REMARK  4 active torsions:
REMARK  status: ('A' for Active; 'I' for Inactive)
REMARK    1  A    between atoms: C_4  and  C_5
REMARK    2  A    between atoms: C_5  and  N_6
REMARK    3  A    between atoms: C_10  and  C_11
REMARK    4  A    between atoms: C_11  and  N_12
REMARK                            x       y       z     vdW  Elec       q    Type
REMARK                         _______ _______ _______ _____ _____    ______ ____
ROOT
ATOM      1  N   UNL     1     -18.822  43.482 -14.648  0.00  0.00    -0.642 N 
ATOM      2  C   UNL     1     -18.800  42.697 -13.473  0.00  0.00    +0.393 A 
ATOM      3  C   UNL     1     -18.000  43.109 -12.410  0.00  0.00    -0.112 A 
ATOM      4  C   UNL     1     -17.999  42.364 -11.228  0.00  0.00    +0.070 A 
ATOM      5  C   UNL     1     -18.797  41.223 -11.117  0.00  0.00    -0.126 A 
ATOM      6  C   UNL     1     -19.544  40.885 -12.235  0.00  0.00    +0.164 A 
ATOM      7  N   UNL     1     -19.555  41.586 -13.403  0.00  0.00    -0.494 NA
ATOM      8  H   UNL     1     -19.121  44.413 -14.372  0.00  0.00    +0.243 HD
ENDROOT
BRANCH   5   9
ATOM      9  C   UNL     1     -18.803  40.459  -9.826  0.00  0.00    +0.499 C 
ATOM     10  O   UNL     1     -19.831  39.861  -9.537  0.00  0.00    -0.549 OA
BRANCH   9  11
ATOM     11  N   UNL     1     -17.710  40.458  -9.070  0.00  0.00    -0.660 NA
ATOM     12  H   UNL     1     -17.068  39.694  -9.259  0.00  0.00    +0.253 HD
ENDBRANCH   9  11
ENDBRANCH   5   9
BRANCH   1  13
ATOM     13  C   UNL     1     -19.680  42.906 -15.687  0.00  0.00    +0.190 C 
BRANCH  13  17
ATOM     14  N   UNL     1     -23.958  45.006 -16.832  0.00  0.00    -0.711 NA
ATOM     15  C   UNL     1     -22.812  44.545 -17.212  0.00  0.00    +0.477 C 
ATOM     16  C   UNL     1     -22.007  43.570 -16.380  0.00  0.00    -0.087 C 
ATOM     17  C   UNL     1     -20.532  44.001 -16.341  0.00  0.00    +0.065 C 
ATOM     18  C   UNL     1     -20.026  44.316 -17.763  0.00  0.00    +0.031 C 
ATOM     19  C   UNL     1     -20.904  45.356 -18.445  0.00  0.00    +0.152 C 
ATOM     20  N   UNL     1     -22.296  44.944 -18.409  0.00  0.00    -0.667 N 
ATOM     21  H   UNL     1     -24.206  44.627 -15.912  0.00  0.00    +0.246 HD
ATOM     22  H   UNL     1     -22.921  45.607 -18.859  0.00  0.00    +0.264 HD
ENDBRANCH  13  17
ENDBRANCH   1  13
TORSDOF 4
ENDMDL
MODEL 5
REMARK VINA RESULT:    -6.666      5.239      8.463
REMARK INTER + INTRA:          -8.474
REMARK INTER:                  -8.212
REMARK INTRA:                  -0.262
REMARK UNBOUND:                -0.445
REMARK  Name = 
REMARK  4 active torsions:
REMARK  status: ('A' for Active; 'I' for Inactive)
REMARK    1  A    between atoms: C_4  and  C_5
REMARK    2  A    between atoms: C_5  and  N_6
REMARK    3  A    between atoms: C_10  and  C_11
REMARK    4  A    between atoms: C_11  and  N_12
REMARK                            x       y       z     vdW  Elec       q    Type
REMARK                         _______ _______ _______ _____ _____    ______ ____
ROOT
ATOM      1  N   UNL     1     -20.313  42.640 -14.487  0.00  0.00    -0.642 N 
ATOM      2  C   UNL     1     -20.450  43.373 -15.688  0.00  0.00    +0.393 A 
ATOM      3  C   UNL     1     -21.696  43.410 -16.309  0.00  0.00    -0.112 A 
ATOM      4  C   UNL     1     -21.855  44.163 -17.474  0.00  0.00    +0.070 A 
ATOM      5  C   UNL     1     -20.775  44.874 -18.003  0.00  0.00    -0.126 A 
ATOM      6  C   UNL     1     -19.572  44.760 -17.323  0.00  0.00    +0.164 A 
ATOM      7  N   UNL     1     -19.387  44.025 -16.192  0.00  0.00    -0.494 NA
ATOM      8  H   UNL     1     -20.982  43.030 -13.829  0.00  0.00    +0.243 HD
ENDROOT
BRANCH   5   9
ATOM      9  C   UNL     1     -20.980  45.702 -19.238  0.00  0.00    +0.499 C 
ATOM     10  O   UNL     1     -20.076  45.707 -20.062  0.00  0.00    -0.549 OA
BRANCH   9  11
ATOM     11  N   UNL     1     -22.117  46.375 -19.384  0.00  0.00    -0.660 NA
ATOM     12  H   UNL     1     -22.177  47.226 -18.834  0.00  0.00    +0.253 HD
ENDBRANCH   9  11
ENDBRANCH   5   9
BRANCH   1  13
ATOM     13  C   UNL     1     -18.941  42.665 -13.971  0.00  0.00    +0.190 C 
BRANCH  13  17
ATOM     14  N   UNL     1     -19.761  38.444 -11.619  0.00  0.00    -0.711 NA
ATOM     15  C   UNL     1     -19.015  39.482 -11.806  0.00  0.00    +0.477 C 
ATOM     16  C   UNL     1     -19.532  40.756 -12.440  0.00  0.00    -0.087 C 
ATOM     17  C   UNL     1     -18.529  41.270 -13.487  0.00  0.00    +0.065 C 
ATOM     18  C   UNL     1     -17.103  41.290 -12.901  0.00  0.00    +0.031 C 
ATOM     19  C   UNL     1     -16.709  39.923 -12.359  0.00  0.00    +0.152 C 
ATOM     20  N   UNL     1     -17.708  39.444 -11.420  0.00  0.00    -0.667 N 
ATOM     21  H   UNL     1     -20.709  38.620 -11.969  0.00  0.00    +0.246 HD
ATOM     22  H   UNL     1     -17.483  38.535 -11.027  0.00  0.00    +0.264 HD
ENDBRANCH  13  17
ENDBRANCH   1  13
TORSDOF 4
ENDMDL
