MODEL 1
REMARK VINA RESULT:    -6.629      0.000      0.000
REMARK INTER + INTRA:          -8.347
REMARK INTER:                  -7.986
REMARK INTRA:                  -0.362
REMARK UNBOUND:                -0.362
REMARK  Name = 
REMARK  4 active torsions:
REMARK  status: ('A' for Active; 'I' for Inactive)
REMARK    1  A    between atoms: N_1  and  C_2
REMARK    2  A    between atoms: C_7  and  O_8
REMARK    3  A    between atoms: O_8  and  C_9
REMARK    4  A    between atoms: C_9  and  C_11
REMARK                            x       y       z     vdW  Elec       q    Type
REMARK                         _______ _______ _______ _____ _____    ______ ____
ROOT
ATOM      1  C   UNL     1     -18.857  39.700 -11.436  0.00  0.00    +0.579 A 
ATOM      2  N   UNL     1     -17.637  39.331 -11.866  0.00  0.00    -0.646 N 
ATOM      3  C   UNL     1     -16.509  39.900 -11.426  0.00  0.00    +0.729 A 
ATOM      4  N   UNL     1     -16.562  40.876 -10.511  0.00  0.00    -0.565 N 
ATOM      5  C   UNL     1     -17.737  41.306 -10.024  0.00  0.00    +0.508 A 
ATOM      6  C   UNL     1     -18.919  40.726 -10.479  0.00  0.00    +0.196 A 
ATOM      7  H   UNL     1     -17.591  38.560 -12.535  0.00  0.00    +0.402 HD
ATOM      8  H   UNL     1     -15.692  41.296 -10.159  0.00  0.00    +0.396 HD
ENDROOT
BRANCH   1   9
ATOM      9  N   UNL     1     -19.926  38.938 -11.840  0.00  0.00    -0.656 N 
ATOM     10  H   UNL     1     -20.887  39.143 -11.583  0.00  0.00    +0.419 HD
ATOM     11  H   UNL     1     -19.776  37.917 -11.767  0.00  0.00    +0.426 HD
ENDBRANCH   1   9
BRANCH   6  12
ATOM     12  O   UNL     1     -20.084  41.198  -9.836  0.00  0.00    -0.442 OA
BRANCH  12  13
ATOM     13  C   UNL     1     -20.686  40.554  -8.759  0.00  0.00    +0.698 C 
ATOM     14  O   UNL     1     -20.855  39.348  -8.688  0.00  0.00    -0.430 OA
BRANCH  13  15
ATOM     15  C   UNL     1     -21.047  41.493  -7.695  0.00  0.00    +0.144 C 
ATOM     16  C   UNL     1     -22.289  41.587  -7.214  0.00  0.00    +0.636 C 
ATOM     17  F   UNL     1     -23.282  40.802  -7.683  0.00  0.00    -0.207 F 
ATOM     18  F   UNL     1     -22.551  42.464  -6.225  0.00  0.00    -0.186 F 
ENDBRANCH  13  15
ENDBRANCH  12  13
ENDBRANCH   6  12
TORSDOF 4
ENDMDL
MODEL 2
REMARK VINA RESULT:    -6.593      1.696      2.810
REMARK INTER + INTRA:          -8.304
REMARK INTER:                  -8.135
REMARK INTRA:                  -0.169
REMARK UNBOUND:                -0.362
REMARK  Name = 
REMARK  4 active torsions:
REMARK  status: ('A' for Active; 'I' for Inactive)
REMARK    1  A    between atoms: N_1  and  C_2
REMARK    2  A    between atoms: C_7  and  O_8
REMARK    3  A    between atoms: O_8  and  C_9
REMARK    4  A    between atoms: C_9  and  C_11
REMARK                            x       y       z     vdW  Elec       q    Type
REMARK                         _______ _______ _______ _____ _____    ______ ____
ROOT
ATOM      1  C   UNL     1     -16.613  40.145 -11.486  0.00  0.00    +0.579 A 
ATOM      2  N   UNL     1     -16.637  39.985 -12.822  0.00  0.00    -0.646 N 
ATOM      3  C   UNL     1     -17.765  39.763 -13.505  0.00  0.00    +0.729 A 
ATOM      4  N   UNL     1     -18.939  39.698 -12.863  0.00  0.00    -0.565 N 
ATOM      5  C   UNL     1     -19.008  39.848 -11.531  0.00  0.00    +0.508 A 
ATOM      6  C   UNL     1     -17.839  40.075 -10.807  0.00  0.00    +0.196 A 
ATOM      7  H   UNL     1     -15.749  40.073 -13.319  0.00  0.00    +0.402 HD
ATOM      8  H   UNL     1     -19.805  39.548 -13.394  0.00  0.00    +0.396 HD
ENDROOT
BRANCH   1   9
ATOM      9  N   UNL     1     -15.421  40.525 -10.918  0.00  0.00    -0.656 N 
ATOM     10  H   UNL     1     -15.046  41.466 -10.985  0.00  0.00    +0.419 HD
ATOM     11  H   UNL     1     -14.649  39.852 -11.051  0.00  0.00    +0.426 HD
ENDBRANCH   1   9
BRANCH   6  12
ATOM     12  O   UNL     1     -18.044  40.301  -9.429  0.00  0.00    -0.442 OA
BRANCH  12  13
ATOM     13  C   UNL     1     -18.633  41.453  -8.914  0.00  0.00    +0.698 C 
ATOM     14  O   UNL     1     -18.102  42.551  -8.909  0.00  0.00    -0.430 OA
BRANCH  13  15
ATOM     15  C   UNL     1     -19.991  41.199  -8.427  0.00  0.00    +0.144 C 
ATOM     16  C   UNL     1     -20.413  41.622  -7.233  0.00  0.00    +0.636 C 
ATOM     17  F   UNL     1     -19.602  42.324  -6.412  0.00  0.00    -0.207 F 
ATOM     18  F   UNL     1     -21.678  41.366  -6.850  0.00  0.00    -0.186 F 
ENDBRANCH  13  15
ENDBRANCH  12  13
ENDBRANCH   6  12
TORSDOF 4
ENDMDL
MODEL 3
REMARK VINA RESULT:    -6.319      1.442      2.506
REMARK INTER + INTRA:          -7.973
REMARK INTER:                  -7.734
REMARK INTRA:                  -0.239
REMARK UNBOUND:                -0.362
REMARK  Name = 
REMARK  4 active torsions:
REMARK  status: ('A' for Active; 'I' for Inactive)
REMARK    1  A    between atoms: N_1  and  C_2
REMARK    2  A    between atoms: C_7  and  O_8
REMARK    3  A    between atoms: O_8  and  C_9
REMARK    4  A    between atoms: C_9  and  C_11
REMARK                            x       y       z     vdW  Elec       q    Type
REMARK                         _______ _______ _______ _____ _____    ______ ____
ROOT
ATOM      1  C   UNL     1     -17.975  41.397 -10.539  0.00  0.00    +0.579 A 
ATOM      2  N   UNL     1     -17.916  41.354 -11.881  0.00  0.00    -0.646 N 
ATOM      3  C   UNL     1     -18.627  40.487 -12.612  0.00  0.00    +0.729 A 
ATOM      4  N   UNL     1     -19.448  39.616 -12.010  0.00  0.00    -0.565 N 
ATOM      5  C   UNL     1     -19.571  39.590 -10.675  0.00  0.00    +0.508 A 
ATOM      6  C   UNL     1     -18.832  40.484  -9.902  0.00  0.00    +0.196 A 
ATOM      7  H   UNL     1     -17.321  42.042 -12.345  0.00  0.00    +0.402 HD
ATOM      8  H   UNL     1     -20.008  38.967 -12.576  0.00  0.00    +0.396 HD
ENDROOT
BRANCH   1   9
ATOM      9  N   UNL     1     -17.325  42.431  -9.911  0.00  0.00    -0.656 N 
ATOM     10  H   UNL     1     -17.159  43.333 -10.347  0.00  0.00    +0.419 HD
ATOM     11  H   UNL     1     -16.473  42.152  -9.396  0.00  0.00    +0.426 HD
ENDBRANCH   1   9
BRANCH   6  12
ATOM     12  O   UNL     1     -19.107  40.422  -8.519  0.00  0.00    -0.442 OA
BRANCH  12  13
ATOM     13  C   UNL     1     -19.724  41.447  -7.807  0.00  0.00    +0.698 C 
ATOM     14  O   UNL     1     -19.123  42.327  -7.213  0.00  0.00    -0.430 OA
BRANCH  13  15
ATOM     15  C   UNL     1     -21.184  41.372  -7.899  0.00  0.00    +0.144 C 
ATOM     16  C   UNL     1     -21.979  41.598  -6.851  0.00  0.00    +0.636 C 
ATOM     17  F   UNL     1     -21.470  41.922  -5.643  0.00  0.00    -0.207 F 
ATOM     18  F   UNL     1     -23.315  41.526  -7.007  0.00  0.00    -0.186 F 
ENDBRANCH  13  15
ENDBRANCH  12  13
ENDBRANCH   6  12
TORSDOF 4
ENDMDL
MODEL 4
REMARK VINA RESULT:    -6.249      1.763      2.153
REMARK INTER + INTRA:          -7.889
REMARK INTER:                  -7.815
REMARK INTRA:                  -0.074
REMARK UNBOUND:                -0.362
REMARK  Name = 
REMARK  4 active torsions:
REMARK  status: ('A' for Active; 'I' for Inactive)
REMARK    1  A    between atoms: N_1  and  C_2
REMARK    2  A    between atoms: C_7  and  O_8
REMARK    3  A    between atoms: O_8  and  C_9
REMARK    4  A    between atoms: C_9  and  C_11
REMARK                            x       y       z     vdW  Elec       q    Type
REMARK                         _______ _______ _______ _____ _____    ______ ____
ROOT
ATOM      1  C   UNL     1     -19.149  40.236 -11.942  0.00  0.00    +0.579 A 
ATOM      2  N   UNL     1     -19.104  40.712 -13.199  0.00  0.00    -0.646 N 
ATOM      3  C   UNL     1     -18.532  41.880 -13.512  0.00  0.00    +0.729 A 
ATOM      4  N   UNL     1     -17.964  42.628 -12.557  0.00  0.00    -0.565 N 
ATOM      5  C   UNL     1     -17.962  42.230 -11.276  0.00  0.00    +0.508 A 
ATOM      6  C   UNL     1     -18.560  41.018 -10.935  0.00  0.00    +0.196 A 
ATOM      7  H   UNL     1     -19.501  40.125 -13.935  0.00  0.00    +0.402 HD
ATOM      8  H   UNL     1     -17.508  43.515 -12.806  0.00  0.00    +0.396 HD
ENDROOT
BRANCH   1   9
ATOM      9  N   UNL     1     -19.619  38.957 -11.767  0.00  0.00    -0.656 N 
ATOM     10  H   UNL     1     -19.869  38.344 -12.537  0.00  0.00    +0.419 HD
ATOM     11  H   UNL     1     -20.332  38.860 -11.024  0.00  0.00    +0.426 HD
ENDBRANCH   1   9
BRANCH   6  12
ATOM     12  O   UNL     1     -18.421  40.663  -9.576  0.00  0.00    -0.442 OA
BRANCH  12  13
ATOM     13  C   UNL     1     -19.172  41.228  -8.549  0.00  0.00    +0.698 C 
ATOM     14  O   UNL     1     -18.786  42.144  -7.842  0.00  0.00    -0.430 OA
BRANCH  13  15
ATOM     15  C   UNL     1     -20.503  40.626  -8.453  0.00  0.00    +0.144 C 
ATOM     16  C   UNL     1     -21.526  41.243  -7.856  0.00  0.00    +0.636 C 
ATOM     17  F   UNL     1     -21.383  42.473  -7.316  0.00  0.00    -0.207 F 
ATOM     18  F   UNL     1     -22.729  40.639  -7.813  0.00  0.00    -0.186 F 
ENDBRANCH  13  15
ENDBRANCH  12  13
ENDBRANCH   6  12
TORSDOF 4
ENDMDL
MODEL 5
REMARK VINA RESULT:    -5.923      3.730      4.976
REMARK INTER + INTRA:          -7.497
REMARK INTER:                  -7.095
REMARK INTRA:                  -0.402
REMARK UNBOUND:                -0.362
REMARK  Name = 
REMARK  4 active torsions:
REMARK  status: ('A' for Active; 'I' for Inactive)
REMARK    1  A    between atoms: N_1  and  C_2
REMARK    2  A    between atoms: C_7  and  O_8
REMARK    3  A    between atoms: O_8  and  C_9
REMARK    4  A    between atoms: C_9  and  C_11
REMARK                            x       y       z     vdW  Elec       q    Type
REMARK                         _______ _______ _______ _____ _____    ______ ____
ROOT
ATOM      1  C   UNL     1     -19.274  39.720 -10.574  0.00  0.00    +0.579 A 
ATOM      2  N   UNL     1     -20.330  39.853  -9.752  0.00  0.00    -0.646 N 
ATOM      3  C   UNL     1     -20.355  40.726  -8.738  0.00  0.00    +0.729 A 
ATOM      4  N   UNL     1     -19.302  41.521  -8.510  0.00  0.00    -0.565 N 
ATOM      5  C   UNL     1     -18.206  41.457  -9.282  0.00  0.00    +0.508 A 
ATOM      6  C   UNL     1     -18.165  40.548 -10.337  0.00  0.00    +0.196 A 
ATOM      7  H   UNL     1     -21.150  39.276  -9.948  0.00  0.00    +0.402 HD
ATOM      8  H   UNL     1     -19.334  42.204  -7.743  0.00  0.00    +0.396 HD
ENDROOT
BRANCH   1   9
ATOM      9  N   UNL     1     -19.427  38.908 -11.671  0.00  0.00    -0.656 N 
ATOM     10  H   UNL     1     -18.862  38.992 -12.511  0.00  0.00    +0.419 HD
ATOM     11  H   UNL     1     -20.409  38.744 -11.949  0.00  0.00    +0.426 HD
ENDBRANCH   1   9
BRANCH   6  12
ATOM     12  O   UNL     1     -17.000  40.630 -11.130  0.00  0.00    -0.442 OA
BRANCH  12  13
ATOM     13  C   UNL     1     -17.014  40.691 -12.520  0.00  0.00    +0.698 C 
ATOM     14  O   UNL     1     -16.921  39.718 -13.250  0.00  0.00    -0.430 OA
BRANCH  13  15
ATOM     15  C   UNL     1     -17.207  42.060 -13.004  0.00  0.00    +0.144 C 
ATOM     16  C   UNL     1     -18.393  42.512 -13.419  0.00  0.00    +0.636 C 
ATOM     17  F   UNL     1     -19.488  41.722 -13.401  0.00  0.00    -0.207 F 
ATOM     18  F   UNL     1     -18.504  43.786 -13.840  0.00  0.00    -0.186 F 
ENDBRANCH  13  15
ENDBRANCH  12  13
ENDBRANCH   6  12
TORSDOF 4
ENDMDL
