MODEL 1
REMARK VINA RESULT:    -8.277      0.000      0.000
REMARK INTER + INTRA:         -12.242
REMARK INTER:                 -11.180
REMARK INTRA:                  -1.062
REMARK UNBOUND:                -1.062
REMARK  Name = 
REMARK  6 active torsions:
REMARK  status: ('A' for Active; 'I' for Inactive)
REMARK    1  A    between atoms: C_4  and  N_5
REMARK    2  A    between atoms: N_5  and  C_6
REMARK    3  A    between atoms: C_14  and  C_15
REMARK    4  A    between atoms: C_15  and  N_17
REMARK    5  A    between atoms: N_17  and  C_18
REMARK    6  A    between atoms: C_18  and  C_19
REMARK                            x       y       z     vdW  Elec       q    Type
REMARK                         _______ _______ _______ _____ _____    ______ ____
ROOT
ATOM      1  N   UNL     1     -19.995  38.864 -12.840  0.00  0.00    -0.619 NA
ATOM      2  C   UNL     1     -19.121  39.642 -12.291  0.00  0.00    +0.475 C 
ATOM      3  N   UNL     1     -18.582  39.309 -11.070  0.00  0.00    -0.643 N 
ATOM      4  C   UNL     1     -18.848  40.258 -10.007  0.00  0.00    +0.395 C 
ATOM      5  C   UNL     1     -18.679  41.734 -10.415  0.00  0.00    +0.026 C 
ATOM      6  C   UNL     1     -19.276  42.035 -11.802  0.00  0.00    +0.127 C 
ATOM      7  C   UNL     1     -18.783  41.019 -12.854  0.00  0.00    -0.059 C 
ATOM      8  H   UNL     1     -19.967  37.973 -12.327  0.00  0.00    +0.298 HD
ATOM      9  H   UNL     1     -17.552  39.414 -11.233  0.00  0.00    +0.298 HD
ENDROOT
BRANCH   4  10
ATOM     10  N   UNL     1     -20.277  40.079  -9.652  0.00  0.00    -0.823 N 
ATOM     11  H   UNL     1     -20.846  40.729 -10.196  0.00  0.00    +0.284 HD
ATOM     12  H   UNL     1     -20.513  39.125  -9.957  0.00  0.00    +0.307 HD
BRANCH  10  13
ATOM     13  C   UNL     1     -20.573  40.191  -8.274  0.00  0.00    +0.238 C 
ATOM     14  C   UNL     1     -21.968  40.458  -7.984  0.00  0.00    -0.067 C 
ATOM     15  C   UNL     1     -22.632  41.591  -7.175  0.00  0.00    -0.014 C 
ATOM     16  C   UNL     1     -21.665  42.545  -6.451  0.00  0.00    -0.025 C 
ATOM     17  C   UNL     1     -20.156  42.270  -6.567  0.00  0.00    -0.017 C 
ATOM     18  C   UNL     1     -19.770  41.075  -7.461  0.00  0.00    -0.064 C 
ENDBRANCH  10  13
ENDBRANCH   4  10
BRANCH   7  19
ATOM     19  C   UNL     1     -17.291  41.266 -13.092  0.00  0.00    +0.490 C 
ATOM     20  O   UNL     1     -16.528  40.308 -13.195  0.00  0.00    -0.530 OA
BRANCH  19  21
ATOM     21  N   UNL     1     -17.029  42.559 -13.290  0.00  0.00    -0.480 NA
BRANCH  21  22
ATOM     22  C   UNL     1     -15.877  43.073 -12.561  0.00  0.00    +0.206 C 
BRANCH  22  23
ATOM     23  C   UNL     1     -16.199  44.486 -12.125  0.00  0.00    +0.055 A 
ATOM     24  C   UNL     1     -15.182  45.451 -12.080  0.00  0.00    +0.040 A 
ATOM     25  C   UNL     1     -15.465  46.773 -11.739  0.00  0.00    +0.041 A 
ATOM     26  C   UNL     1     -16.775  47.149 -11.447  0.00  0.00    +0.027 A 
ATOM     27  C   UNL     1     -17.796  46.200 -11.485  0.00  0.00    +0.038 A 
ATOM     28  C   UNL     1     -17.510  44.873 -11.820  0.00  0.00    -0.006 A 
ENDBRANCH  22  23
ENDBRANCH  21  22
ENDBRANCH  19  21
ENDBRANCH   7  19
TORSDOF 6
ENDMDL
MODEL 2
REMARK VINA RESULT:    -7.375      1.945      7.290
REMARK INTER + INTRA:         -11.024
REMARK INTER:                  -9.691
REMARK INTRA:                  -1.333
REMARK UNBOUND:                -1.062
REMARK  Name = 
REMARK  6 active torsions:
REMARK  status: ('A' for Active; 'I' for Inactive)
REMARK    1  A    between atoms: C_4  and  N_5
REMARK    2  A    between atoms: N_5  and  C_6
REMARK    3  A    between atoms: C_14  and  C_15
REMARK    4  A    between atoms: C_15  and  N_17
REMARK    5  A    between atoms: N_17  and  C_18
REMARK    6  A    between atoms: C_18  and  C_19
REMARK                            x       y       z     vdW  Elec       q    Type
REMARK                         _______ _______ _______ _____ _____    ______ ____
ROOT
ATOM      1  N   UNL     1     -14.619  42.117 -11.244  0.00  0.00    -0.619 NA
ATOM      2  C   UNL     1     -15.796  42.257 -11.759  0.00  0.00    +0.475 C 
ATOM      3  N   UNL     1     -15.934  42.828 -13.002  0.00  0.00    -0.643 N 
ATOM      4  C   UNL     1     -16.703  44.057 -13.027  0.00  0.00    +0.395 C 
ATOM      5  C   UNL     1     -17.987  44.022 -12.177  0.00  0.00    +0.026 C 
ATOM      6  C   UNL     1     -17.773  43.345 -10.811  0.00  0.00    +0.127 C 
ATOM      7  C   UNL     1     -17.071  41.980 -10.969  0.00  0.00    -0.059 C 
ATOM      8  H   UNL     1     -13.941  42.275 -12.002  0.00  0.00    +0.298 HD
ATOM      9  H   UNL     1     -16.554  42.148 -13.503  0.00  0.00    +0.298 HD
ENDROOT
BRANCH   4  10
ATOM     10  N   UNL     1     -15.827  45.094 -12.426  0.00  0.00    -0.823 N 
ATOM     11  H   UNL     1     -16.004  45.146 -11.422  0.00  0.00    +0.284 HD
ATOM     12  H   UNL     1     -14.868  44.747 -12.557  0.00  0.00    +0.307 HD
BRANCH  10  13
ATOM     13  C   UNL     1     -15.920  46.375 -13.015  0.00  0.00    +0.238 C 
ATOM     14  C   UNL     1     -16.308  46.363 -14.411  0.00  0.00    -0.067 C 
ATOM     15  C   UNL     1     -15.621  46.965 -15.655  0.00  0.00    -0.014 C 
ATOM     16  C   UNL     1     -14.373  47.822 -15.375  0.00  0.00    -0.025 C 
ATOM     17  C   UNL     1     -13.952  48.028 -13.910  0.00  0.00    -0.017 C 
ATOM     18  C   UNL     1     -14.812  47.291 -12.866  0.00  0.00    -0.064 C 
ENDBRANCH  10  13
ENDBRANCH   4  10
BRANCH   7  19
ATOM     19  C   UNL     1     -18.049  41.017 -11.649  0.00  0.00    +0.490 C 
ATOM     20  O   UNL     1     -17.711  40.438 -12.678  0.00  0.00    -0.530 OA
BRANCH  19  21
ATOM     21  N   UNL     1     -19.151  40.834 -10.919  0.00  0.00    -0.480 NA
BRANCH  21  22
ATOM     22  C   UNL     1     -18.954  40.085  -9.684  0.00  0.00    +0.206 C 
BRANCH  22  23
ATOM     23  C   UNL     1     -19.807  40.729  -8.612  0.00  0.00    +0.055 A 
ATOM     24  C   UNL     1     -19.231  41.646  -7.720  0.00  0.00    +0.040 A 
ATOM     25  C   UNL     1     -20.009  42.295  -6.762  0.00  0.00    +0.041 A 
ATOM     26  C   UNL     1     -21.377  42.043  -6.691  0.00  0.00    +0.027 A 
ATOM     27  C   UNL     1     -21.963  41.132  -7.570  0.00  0.00    +0.038 A 
ATOM     28  C   UNL     1     -21.182  40.476  -8.525  0.00  0.00    -0.006 A 
ENDBRANCH  22  23
ENDBRANCH  21  22
ENDBRANCH  19  21
ENDBRANCH   7  19
TORSDOF 6
ENDMDL
MODEL 3
REMARK VINA RESULT:    -7.315      3.634      4.511
REMARK INTER + INTRA:         -10.943
REMARK INTER:                 -10.177
REMARK INTRA:                  -0.766
REMARK UNBOUND:                -1.062
REMARK  Name = 
REMARK  6 active torsions:
REMARK  status: ('A' for Active; 'I' for Inactive)
REMARK    1  A    between atoms: C_4  and  N_5
REMARK    2  A    between atoms: N_5  and  C_6
REMARK    3  A    between atoms: C_14  and  C_15
REMARK    4  A    between atoms: C_15  and  N_17
REMARK    5  A    between atoms: N_17  and  C_18
REMARK    6  A    between atoms: C_18  and  C_19
REMARK                            x       y       z     vdW  Elec       q    Type
REMARK                         _______ _______ _______ _____ _____    ______ ____
ROOT
ATOM      1  N   UNL     1     -15.935  42.497 -11.899  0.00  0.00    -0.619 NA
ATOM      2  C   UNL     1     -17.195  42.581 -12.174  0.00  0.00    +0.475 C 
ATOM      3  N   UNL     1     -18.090  42.903 -11.181  0.00  0.00    -0.643 N 
ATOM      4  C   UNL     1     -19.084  41.884 -10.903  0.00  0.00    +0.395 C 
ATOM      5  C   UNL     1     -19.702  41.238 -12.157  0.00  0.00    +0.026 C 
ATOM      6  C   UNL     1     -18.653  40.930 -13.241  0.00  0.00    +0.127 C 
ATOM      7  C   UNL     1     -17.766  42.160 -13.525  0.00  0.00    -0.059 C 
ATOM      8  H   UNL     1     -15.802  42.924 -10.972  0.00  0.00    +0.298 HD
ATOM      9  H   UNL     1     -18.653  43.673 -11.615  0.00  0.00    +0.298 HD
ENDROOT
BRANCH   4  10
ATOM     10  N   UNL     1     -18.365  40.804 -10.182  0.00  0.00    -0.823 N 
ATOM     11  H   UNL     1     -18.323  39.972 -10.773  0.00  0.00    +0.284 HD
ATOM     12  H   UNL     1     -17.405  41.152 -10.063  0.00  0.00    +0.307 HD
BRANCH  10  13
ATOM     13  C   UNL     1     -18.883  40.484  -8.907  0.00  0.00    +0.238 C 
ATOM     14  C   UNL     1     -20.232  39.956  -8.927  0.00  0.00    -0.067 C 
ATOM     15  C   UNL     1     -21.511  40.423  -8.200  0.00  0.00    -0.014 C 
ATOM     16  C   UNL     1     -21.319  41.571  -7.193  0.00  0.00    -0.025 C 
ATOM     17  C   UNL     1     -19.897  42.116  -6.978  0.00  0.00    -0.017 C 
ATOM     18  C   UNL     1     -18.806  41.474  -7.857  0.00  0.00    -0.064 C 
ENDBRANCH  10  13
ENDBRANCH   4  10
BRANCH   7  19
ATOM     19  C   UNL     1     -18.629  43.221 -14.214  0.00  0.00    +0.490 C 
ATOM     20  O   UNL     1     -18.275  44.398 -14.191  0.00  0.00    -0.530 OA
BRANCH  19  21
ATOM     21  N   UNL     1     -19.640  42.673 -14.889  0.00  0.00    -0.480 NA
BRANCH  21  22
ATOM     22  C   UNL     1     -19.641  42.942 -16.322  0.00  0.00    +0.206 C 
BRANCH  22  23
ATOM     23  C   UNL     1     -20.732  43.953 -16.602  0.00  0.00    +0.055 A 
ATOM     24  C   UNL     1     -20.392  45.264 -16.964  0.00  0.00    +0.040 A 
ATOM     25  C   UNL     1     -21.378  46.196 -17.283  0.00  0.00    +0.041 A 
ATOM     26  C   UNL     1     -22.721  45.825 -17.254  0.00  0.00    +0.027 A 
ATOM     27  C   UNL     1     -23.074  44.525 -16.892  0.00  0.00    +0.038 A 
ATOM     28  C   UNL     1     -22.085  43.593 -16.565  0.00  0.00    -0.006 A 
ENDBRANCH  22  23
ENDBRANCH  21  22
ENDBRANCH  19  21
ENDBRANCH   7  19
TORSDOF 6
ENDMDL
MODEL 4
REMARK VINA RESULT:    -7.221      3.700      7.159
REMARK INTER + INTRA:         -10.816
REMARK INTER:                  -9.690
REMARK INTRA:                  -1.126
REMARK UNBOUND:                -1.062
REMARK  Name = 
REMARK  6 active torsions:
REMARK  status: ('A' for Active; 'I' for Inactive)
REMARK    1  A    between atoms: C_4  and  N_5
REMARK    2  A    between atoms: N_5  and  C_6
REMARK    3  A    between atoms: C_14  and  C_15
REMARK    4  A    between atoms: C_15  and  N_17
REMARK    5  A    between atoms: N_17  and  C_18
REMARK    6  A    between atoms: C_18  and  C_19
REMARK                            x       y       z     vdW  Elec       q    Type
REMARK                         _______ _______ _______ _____ _____    ______ ____
ROOT
ATOM      1  N   UNL     1     -18.844  45.796 -13.483  0.00  0.00    -0.619 NA
ATOM      2  C   UNL     1     -18.528  44.544 -13.543  0.00  0.00    +0.475 C 
ATOM      3  N   UNL     1     -18.452  43.917 -14.765  0.00  0.00    -0.643 N 
ATOM      4  C   UNL     1     -19.382  42.820 -14.946  0.00  0.00    +0.395 C 
ATOM      5  C   UNL     1     -19.499  41.877 -13.734  0.00  0.00    +0.026 C 
ATOM      6  C   UNL     1     -19.550  42.639 -12.396  0.00  0.00    +0.127 C 
ATOM      7  C   UNL     1     -18.407  43.671 -12.298  0.00  0.00    -0.059 C 
ATOM      8  H   UNL     1     -18.766  46.170 -14.438  0.00  0.00    +0.298 HD
ATOM      9  H   UNL     1     -17.521  43.436 -14.723  0.00  0.00    +0.298 HD
ENDROOT
BRANCH   4  10
ATOM     10  N   UNL     1     -20.716  43.446 -15.125  0.00  0.00    -0.823 N 
ATOM     11  H   UNL     1     -21.383  43.011 -14.486  0.00  0.00    +0.284 HD
ATOM     12  H   UNL     1     -20.596  44.425 -14.833  0.00  0.00    +0.307 HD
BRANCH  10  13
ATOM     13  C   UNL     1     -21.213  43.435 -16.447  0.00  0.00    +0.238 C 
ATOM     14  C   UNL     1     -20.224  43.107 -17.454  0.00  0.00    -0.067 C 
ATOM     15  C   UNL     1     -19.777  43.873 -18.717  0.00  0.00    -0.014 C 
ATOM     16  C   UNL     1     -20.582  45.144 -19.043  0.00  0.00    -0.025 C 
ATOM     17  C   UNL     1     -21.758  45.511 -18.122  0.00  0.00    -0.017 C 
ATOM     18  C   UNL     1     -21.968  44.575 -16.916  0.00  0.00    -0.064 C 
ENDBRANCH  10  13
ENDBRANCH   4  10
BRANCH   7  19
ATOM     19  C   UNL     1     -17.085  42.907 -12.176  0.00  0.00    +0.490 C 
ATOM     20  O   UNL     1     -16.332  42.842 -13.145  0.00  0.00    -0.530 OA
BRANCH  19  21
ATOM     21  N   UNL     1     -16.863  42.500 -10.926  0.00  0.00    -0.480 NA
BRANCH  21  22
ATOM     22  C   UNL     1     -17.126  41.088 -10.681  0.00  0.00    +0.206 C 
BRANCH  22  23
ATOM     23  C   UNL     1     -18.287  40.995  -9.714  0.00  0.00    +0.055 A 
ATOM     24  C   UNL     1     -18.398  41.921  -8.666  0.00  0.00    +0.040 A 
ATOM     25  C   UNL     1     -19.489  41.891  -7.799  0.00  0.00    +0.041 A 
ATOM     26  C   UNL     1     -20.490  40.938  -7.975  0.00  0.00    +0.027 A 
ATOM     27  C   UNL     1     -20.391  40.009  -9.010  0.00  0.00    +0.038 A 
ATOM     28  C   UNL     1     -19.294  40.036  -9.875  0.00  0.00    -0.006 A 
ENDBRANCH  22  23
ENDBRANCH  21  22
ENDBRANCH  19  21
ENDBRANCH   7  19
TORSDOF 6
ENDMDL
MODEL 5
REMARK VINA RESULT:    -6.578      4.095      5.862
REMARK INTER + INTRA:          -9.948
REMARK INTER:                  -8.795
REMARK INTRA:                  -1.152
REMARK UNBOUND:                -1.062
REMARK  Name = 
REMARK  6 active torsions:
REMARK  status: ('A' for Active; 'I' for Inactive)
REMARK    1  A    between atoms: C_4  and  N_5
REMARK    2  A    between atoms: N_5  and  C_6
REMARK    3  A    between atoms: C_14  and  C_15
REMARK    4  A    between atoms: C_15  and  N_17
REMARK    5  A    between atoms: N_17  and  C_18
REMARK    6  A    between atoms: C_18  and  C_19
REMARK                            x       y       z     vdW  Elec       q    Type
REMARK                         _______ _______ _______ _____ _____    ______ ____
ROOT
ATOM      1  N   UNL     1     -18.845  46.841 -11.884  0.00  0.00    -0.619 NA
ATOM      2  C   UNL     1     -18.384  46.022 -12.771  0.00  0.00    +0.475 C 
ATOM      3  N   UNL     1     -18.899  44.750 -12.860  0.00  0.00    -0.643 N 
ATOM      4  C   UNL     1     -17.945  43.687 -12.610  0.00  0.00    +0.395 C 
ATOM      5  C   UNL     1     -16.577  43.887 -13.289  0.00  0.00    +0.026 C 
ATOM      6  C   UNL     1     -16.070  45.337 -13.180  0.00  0.00    +0.127 C 
ATOM      7  C   UNL     1     -17.155  46.342 -13.617  0.00  0.00    -0.059 C 
ATOM      8  H   UNL     1     -19.719  46.433 -11.526  0.00  0.00    +0.298 HD
ATOM      9  H   UNL     1     -19.104  44.653 -13.883  0.00  0.00    +0.298 HD
ENDROOT
BRANCH   4  10
ATOM     10  N   UNL     1     -17.698  43.702 -11.147  0.00  0.00    -0.823 N 
ATOM     11  H   UNL     1     -16.839  44.219 -10.954  0.00  0.00    +0.284 HD
ATOM     12  H   UNL     1     -18.480  44.233 -10.746  0.00  0.00    +0.307 HD
BRANCH  10  13
ATOM     13  C   UNL     1     -17.661  42.430 -10.531  0.00  0.00    +0.238 C 
ATOM     14  C   UNL     1     -18.298  41.378 -11.296  0.00  0.00    -0.067 C 
ATOM     15  C   UNL     1     -19.427  40.396 -10.919  0.00  0.00    -0.014 C 
ATOM     16  C   UNL     1     -19.892  40.451  -9.452  0.00  0.00    -0.025 C 
ATOM     17  C   UNL     1     -19.181  41.433  -8.505  0.00  0.00    -0.017 C 
ATOM     18  C   UNL     1     -18.097  42.311  -9.158  0.00  0.00    -0.064 C 
ENDBRANCH  10  13
ENDBRANCH   4  10
BRANCH   7  19
ATOM     19  C   UNL     1     -17.362  46.193 -15.128  0.00  0.00    +0.490 C 
ATOM     20  O   UNL     1     -16.384  46.136 -15.870  0.00  0.00    -0.530 OA
BRANCH  19  21
ATOM     21  N   UNL     1     -18.647  46.008 -15.435  0.00  0.00    -0.480 NA
BRANCH  21  22
ATOM     22  C   UNL     1     -18.898  44.999 -16.456  0.00  0.00    +0.206 C 
BRANCH  22  23
ATOM     23  C   UNL     1     -20.387  44.976 -16.727  0.00  0.00    +0.055 A 
ATOM     24  C   UNL     1     -21.133  43.827 -16.427  0.00  0.00    +0.040 A 
ATOM     25  C   UNL     1     -22.515  43.804 -16.614  0.00  0.00    +0.041 A 
ATOM     26  C   UNL     1     -23.170  44.936 -17.095  0.00  0.00    +0.027 A 
ATOM     27  C   UNL     1     -22.440  46.084 -17.401  0.00  0.00    +0.038 A 
ATOM     28  C   UNL     1     -21.054  46.105 -17.220  0.00  0.00    -0.006 A 
ENDBRANCH  22  23
ENDBRANCH  21  22
ENDBRANCH  19  21
ENDBRANCH   7  19
TORSDOF 6
ENDMDL
