MODEL 1
REMARK VINA RESULT:    -8.680      0.000      0.000
REMARK INTER + INTRA:         -11.425
REMARK INTER:                 -10.710
REMARK INTRA:                  -0.715
REMARK UNBOUND:                -0.715
REMARK  Name = 
REMARK  5 active torsions:
REMARK  status: ('A' for Active; 'I' for Inactive)
REMARK    1  A    between atoms: C_5  and  C_6
REMARK    2  A    between atoms: C_6  and  O_7
REMARK    3  A    between atoms: N_8  and  C_9
REMARK    4  A    between atoms: C_9  and  C_10
REMARK    5  A    between atoms: C_16  and  N_17
REMARK                            x       y       z     vdW  Elec       q    Type
REMARK                         _______ _______ _______ _____ _____    ______ ____
ROOT
ATOM      1  N   UNL     1     -18.754  42.847 -14.300  0.00  0.00    -0.629 NA
ATOM      2  C   UNL     1     -18.529  42.128 -13.253  0.00  0.00    +0.499 C 
ATOM      3  C   UNL     1     -18.027  42.723 -11.958  0.00  0.00    +0.021 C 
ATOM      4  C   UNL     1     -16.988  41.807 -11.310  0.00  0.00    +0.145 C 
ATOM      5  C   UNL     1     -17.408  40.322 -11.341  0.00  0.00    -0.025 C 
ATOM      6  C   UNL     1     -17.807  39.862 -12.753  0.00  0.00    +0.427 C 
ATOM      7  N   UNL     1     -18.783  40.784 -13.300  0.00  0.00    -0.704 N 
ATOM      8  H   UNL     1     -18.528  43.832 -14.119  0.00  0.00    +0.274 HD
ATOM      9  H   UNL     1     -19.062  40.526 -14.246  0.00  0.00    +0.307 HD
ENDROOT
BRANCH   6  10
ATOM     10  N   UNL     1     -16.608  39.682 -13.562  0.00  0.00    -0.774 NA
ATOM     11  H   UNL     1     -15.807  40.048 -13.049  0.00  0.00    +0.298 HD
ATOM     12  H   UNL     1     -16.676  40.270 -14.391  0.00  0.00    +0.299 HD
ENDBRANCH   6  10
BRANCH   5  13
ATOM     13  C   UNL     1     -18.474  40.140 -10.284  0.00  0.00    +0.451 C 
ATOM     14  N   UNL     1     -18.247  40.581  -9.087  0.00  0.00    -0.500 NA
BRANCH  13  15
ATOM     15  O   UNL     1     -19.677  39.682 -10.676  0.00  0.00    -0.604 OA
ATOM     16  H   UNL     1     -19.995  40.090 -11.503  0.00  0.00    +0.325 HD
ENDBRANCH  13  15
BRANCH  14  17
ATOM     17  C   UNL     1     -19.302  40.770  -8.289  0.00  0.00    +0.238 C 
BRANCH  17  18
ATOM     18  C   UNL     1     -20.434  41.241  -7.565  0.00  0.00    -0.057 C 
ATOM     19  C   UNL     1     -20.200  42.018  -6.431  0.00  0.00    +0.011 C 
ATOM     20  C   UNL     1     -21.267  42.509  -5.690  0.00  0.00    -0.009 C 
ATOM     21  C   UNL     1     -22.569  42.222  -6.086  0.00  0.00    -0.002 C 
ATOM     22  C   UNL     1     -22.800  41.439  -7.217  0.00  0.00    -0.006 C 
ATOM     23  C   UNL     1     -21.731  40.942  -7.961  0.00  0.00    +0.013 C 
ENDBRANCH  17  18
ENDBRANCH  14  17
ENDBRANCH   5  13
TORSDOF 5
ENDMDL
MODEL 2
REMARK VINA RESULT:    -6.749      3.554      6.912
REMARK INTER + INTRA:          -9.042
REMARK INTER:                  -8.446
REMARK INTRA:                  -0.596
REMARK UNBOUND:                -0.715
REMARK  Name = 
REMARK  5 active torsions:
REMARK  status: ('A' for Active; 'I' for Inactive)
REMARK    1  A    between atoms: C_5  and  C_6
REMARK    2  A    between atoms: C_6  and  O_7
REMARK    3  A    between atoms: N_8  and  C_9
REMARK    4  A    between atoms: C_9  and  C_10
REMARK    5  A    between atoms: C_16  and  N_17
REMARK                            x       y       z     vdW  Elec       q    Type
REMARK                         _______ _______ _______ _____ _____    ______ ____
ROOT
ATOM      1  N   UNL     1     -15.392  39.686 -11.677  0.00  0.00    -0.629 NA
ATOM      2  C   UNL     1     -16.469  40.353 -11.918  0.00  0.00    +0.499 C 
ATOM      3  C   UNL     1     -16.741  41.701 -11.292  0.00  0.00    +0.021 C 
ATOM      4  C   UNL     1     -18.212  41.825 -10.894  0.00  0.00    +0.145 C 
ATOM      5  C   UNL     1     -19.166  41.298 -11.987  0.00  0.00    -0.025 C 
ATOM      6  C   UNL     1     -18.793  39.879 -12.448  0.00  0.00    +0.427 C 
ATOM      7  N   UNL     1     -17.386  39.843 -12.797  0.00  0.00    -0.704 N 
ATOM      8  H   UNL     1     -14.795  40.190 -11.010  0.00  0.00    +0.274 HD
ATOM      9  H   UNL     1     -17.091  38.913 -13.091  0.00  0.00    +0.307 HD
ENDROOT
BRANCH   6  10
ATOM     10  N   UNL     1     -19.201  38.915 -11.433  0.00  0.00    -0.774 NA
ATOM     11  H   UNL     1     -19.137  39.356 -10.516  0.00  0.00    +0.298 HD
ATOM     12  H   UNL     1     -18.522  38.157 -11.405  0.00  0.00    +0.299 HD
ENDBRANCH   6  10
BRANCH   5  13
ATOM     13  C   UNL     1     -19.203  42.338 -13.084  0.00  0.00    +0.451 C 
ATOM     14  N   UNL     1     -19.359  41.948 -14.308  0.00  0.00    -0.500 NA
BRANCH  13  15
ATOM     15  O   UNL     1     -19.242  43.633 -12.720  0.00  0.00    -0.604 OA
ATOM     16  H   UNL     1     -18.677  44.207 -13.270  0.00  0.00    +0.325 HD
ENDBRANCH  13  15
BRANCH  14  17
ATOM     17  C   UNL     1     -19.776  42.856 -15.197  0.00  0.00    +0.238 C 
BRANCH  17  18
ATOM     18  C   UNL     1     -20.490  43.743 -16.051  0.00  0.00    -0.057 C 
ATOM     19  C   UNL     1     -21.852  43.506 -16.236  0.00  0.00    +0.011 C 
ATOM     20  C   UNL     1     -22.601  44.343 -17.054  0.00  0.00    -0.009 C 
ATOM     21  C   UNL     1     -21.984  45.418 -17.685  0.00  0.00    -0.002 C 
ATOM     22  C   UNL     1     -20.620  45.648 -17.504  0.00  0.00    -0.006 C 
ATOM     23  C   UNL     1     -19.866  44.808 -16.685  0.00  0.00    +0.013 C 
ENDBRANCH  17  18
ENDBRANCH  14  17
ENDBRANCH   5  13
TORSDOF 5
ENDMDL
MODEL 3
REMARK VINA RESULT:    -6.214      2.995      6.689
REMARK INTER + INTRA:          -8.382
REMARK INTER:                  -7.993
REMARK INTRA:                  -0.389
REMARK UNBOUND:                -0.715
REMARK  Name = 
REMARK  5 active torsions:
REMARK  status: ('A' for Active; 'I' for Inactive)
REMARK    1  A    between atoms: C_5  and  C_6
REMARK    2  A    between atoms: C_6  and  O_7
REMARK    3  A    between atoms: N_8  and  C_9
REMARK    4  A    between atoms: C_9  and  C_10
REMARK    5  A    between atoms: C_16  and  N_17
REMARK                            x       y       z     vdW  Elec       q    Type
REMARK                         _______ _______ _______ _____ _____    ______ ____
ROOT
ATOM      1  N   UNL     1     -18.128  41.500  -8.293  0.00  0.00    -0.629 NA
ATOM      2  C   UNL     1     -18.155  41.395  -9.578  0.00  0.00    +0.499 C 
ATOM      3  C   UNL     1     -19.117  40.473 -10.292  0.00  0.00    +0.021 C 
ATOM      4  C   UNL     1     -18.430  39.786 -11.473  0.00  0.00    +0.145 C 
ATOM      5  C   UNL     1     -17.566  40.759 -12.302  0.00  0.00    -0.025 C 
ATOM      6  C   UNL     1     -16.585  41.555 -11.426  0.00  0.00    +0.427 C 
ATOM      7  N   UNL     1     -17.309  42.166 -10.329  0.00  0.00    -0.704 N 
ATOM      8  H   UNL     1     -18.818  40.873  -7.863  0.00  0.00    +0.274 HD
ATOM      9  H   UNL     1     -16.692  42.690  -9.710  0.00  0.00    +0.307 HD
ENDROOT
BRANCH   6  10
ATOM     10  N   UNL     1     -15.478  40.694 -11.029  0.00  0.00    -0.774 NA
ATOM     11  H   UNL     1     -15.506  39.843 -11.591  0.00  0.00    +0.298 HD
ATOM     12  H   UNL     1     -15.629  40.379 -10.073  0.00  0.00    +0.299 HD
ENDBRANCH   6  10
BRANCH   5  13
ATOM     13  C   UNL     1     -18.514  41.600 -13.128  0.00  0.00    +0.451 C 
ATOM     14  N   UNL     1     -18.112  42.754 -13.556  0.00  0.00    -0.500 NA
BRANCH  13  15
ATOM     15  O   UNL     1     -19.671  41.037 -13.524  0.00  0.00    -0.604 OA
ATOM     16  H   UNL     1     -19.634  40.063 -13.558  0.00  0.00    +0.325 HD
ENDBRANCH  13  15
BRANCH  14  17
ATOM     17  C   UNL     1     -18.778  43.299 -14.579  0.00  0.00    +0.238 C 
BRANCH  17  18
ATOM     18  C   UNL     1     -19.727  43.829 -15.499  0.00  0.00    -0.057 C 
ATOM     19  C   UNL     1     -20.925  43.134 -15.665  0.00  0.00    +0.011 C 
ATOM     20  C   UNL     1     -21.890  43.608 -16.544  0.00  0.00    -0.009 C 
ATOM     21  C   UNL     1     -21.654  44.780 -17.257  0.00  0.00    -0.002 C 
ATOM     22  C   UNL     1     -20.452  45.468 -17.094  0.00  0.00    -0.006 C 
ATOM     23  C   UNL     1     -19.481  44.993 -16.214  0.00  0.00    +0.013 C 
ENDBRANCH  17  18
ENDBRANCH  14  17
ENDBRANCH   5  13
TORSDOF 5
ENDMDL
MODEL 4
REMARK VINA RESULT:    -6.003      3.565      6.051
REMARK INTER + INTRA:          -8.122
REMARK INTER:                  -7.621
REMARK INTRA:                  -0.502
REMARK UNBOUND:                -0.715
REMARK  Name = 
REMARK  5 active torsions:
REMARK  status: ('A' for Active; 'I' for Inactive)
REMARK    1  A    between atoms: C_5  and  C_6
REMARK    2  A    between atoms: C_6  and  O_7
REMARK    3  A    between atoms: N_8  and  C_9
REMARK    4  A    between atoms: C_9  and  C_10
REMARK    5  A    between atoms: C_16  and  N_17
REMARK                            x       y       z     vdW  Elec       q    Type
REMARK                         _______ _______ _______ _____ _____    ______ ____
ROOT
ATOM      1  N   UNL     1     -19.009  39.695  -9.457  0.00  0.00    -0.629 NA
ATOM      2  C   UNL     1     -18.573  40.440 -10.416  0.00  0.00    +0.499 C 
ATOM      3  C   UNL     1     -19.379  40.697 -11.668  0.00  0.00    +0.021 C 
ATOM      4  C   UNL     1     -18.477  40.689 -12.903  0.00  0.00    +0.145 C 
ATOM      5  C   UNL     1     -17.165  41.471 -12.680  0.00  0.00    -0.025 C 
ATOM      6  C   UNL     1     -16.431  41.022 -11.406  0.00  0.00    +0.427 C 
ATOM      7  N   UNL     1     -17.354  41.048 -10.287  0.00  0.00    -0.704 N 
ATOM      8  H   UNL     1     -19.934  39.314  -9.686  0.00  0.00    +0.274 HD
ATOM      9  H   UNL     1     -16.913  40.738  -9.422  0.00  0.00    +0.307 HD
ENDROOT
BRANCH   6  10
ATOM     10  N   UNL     1     -15.786  39.736 -11.642  0.00  0.00    -0.774 NA
ATOM     11  H   UNL     1     -15.337  39.758 -12.557  0.00  0.00    +0.298 HD
ATOM     12  H   UNL     1     -16.502  39.016 -11.721  0.00  0.00    +0.299 HD
ENDBRANCH   6  10
BRANCH   5  13
ATOM     13  C   UNL     1     -17.510  42.942 -12.736  0.00  0.00    +0.451 C 
ATOM     14  N   UNL     1     -17.578  43.608 -11.628  0.00  0.00    -0.500 NA
BRANCH  13  15
ATOM     15  O   UNL     1     -17.563  43.529 -13.946  0.00  0.00    -0.604 OA
ATOM     16  H   UNL     1     -16.694  43.587 -14.385  0.00  0.00    +0.325 HD
ENDBRANCH  13  15
BRANCH  14  17
ATOM     17  C   UNL     1     -17.493  44.940 -11.703  0.00  0.00    +0.238 C 
BRANCH  17  18
ATOM     18  C   UNL     1     -17.196  46.327 -11.570  0.00  0.00    -0.057 C 
ATOM     19  C   UNL     1     -15.863  46.717 -11.690  0.00  0.00    +0.011 C 
ATOM     20  C   UNL     1     -15.516  48.057 -11.576  0.00  0.00    -0.009 C 
ATOM     21  C   UNL     1     -16.506  49.006 -11.340  0.00  0.00    -0.002 C 
ATOM     22  C   UNL     1     -17.838  48.611 -11.212  0.00  0.00    -0.006 C 
ATOM     23  C   UNL     1     -18.189  47.266 -11.325  0.00  0.00    +0.013 C 
ENDBRANCH  17  18
ENDBRANCH  14  17
ENDBRANCH   5  13
TORSDOF 5
ENDMDL
MODEL 5
REMARK VINA RESULT:    -5.878      4.150      6.420
REMARK INTER + INTRA:          -7.968
REMARK INTER:                  -7.436
REMARK INTRA:                  -0.532
REMARK UNBOUND:                -0.715
REMARK  Name = 
REMARK  5 active torsions:
REMARK  status: ('A' for Active; 'I' for Inactive)
REMARK    1  A    between atoms: C_5  and  C_6
REMARK    2  A    between atoms: C_6  and  O_7
REMARK    3  A    between atoms: N_8  and  C_9
REMARK    4  A    between atoms: C_9  and  C_10
REMARK    5  A    between atoms: C_16  and  N_17
REMARK                            x       y       z     vdW  Elec       q    Type
REMARK                         _______ _______ _______ _____ _____    ______ ____
ROOT
ATOM      1  N   UNL     1     -22.647  46.612 -17.598  0.00  0.00    -0.629 NA
ATOM      2  C   UNL     1     -21.761  45.780 -17.167  0.00  0.00    +0.499 C 
ATOM      3  C   UNL     1     -20.325  46.182 -16.927  0.00  0.00    +0.021 C 
ATOM      4  C   UNL     1     -19.371  45.076 -17.380  0.00  0.00    +0.145 C 
ATOM      5  C   UNL     1     -19.842  43.673 -16.939  0.00  0.00    -0.025 C 
ATOM      6  C   UNL     1     -21.301  43.400 -17.339  0.00  0.00    +0.427 C 
ATOM      7  N   UNL     1     -22.137  44.494 -16.884  0.00  0.00    -0.704 N 
ATOM      8  H   UNL     1     -22.229  47.536 -17.759  0.00  0.00    +0.274 HD
ATOM      9  H   UNL     1     -23.112  44.362 -17.145  0.00  0.00    +0.307 HD
ENDROOT
BRANCH   6  10
ATOM     10  N   UNL     1     -21.371  43.125 -18.769  0.00  0.00    -0.774 NA
ATOM     11  H   UNL     1     -21.418  44.011 -19.272  0.00  0.00    +0.298 HD
ATOM     12  H   UNL     1     -22.254  42.662 -18.975  0.00  0.00    +0.299 HD
ENDBRANCH   6  10
BRANCH   5  13
ATOM     13  C   UNL     1     -19.549  43.551 -15.461  0.00  0.00    +0.451 C 
ATOM     14  N   UNL     1     -20.238  42.710 -14.757  0.00  0.00    -0.500 NA
BRANCH  13  15
ATOM     15  O   UNL     1     -18.471  44.197 -14.978  0.00  0.00    -0.604 OA
ATOM     16  H   UNL     1     -18.450  44.237 -14.004  0.00  0.00    +0.325 HD
ENDBRANCH  13  15
BRANCH  14  17
ATOM     17  C   UNL     1     -19.730  42.328 -13.581  0.00  0.00    +0.238 C 
BRANCH  17  18
ATOM     18  C   UNL     1     -19.046  41.717 -12.491  0.00  0.00    -0.057 C 
ATOM     19  C   UNL     1     -19.289  40.365 -12.253  0.00  0.00    +0.011 C 
ATOM     20  C   UNL     1     -18.646  39.715 -11.207  0.00  0.00    -0.009 C 
ATOM     21  C   UNL     1     -17.759  40.421 -10.401  0.00  0.00    -0.002 C 
ATOM     22  C   UNL     1     -17.524  41.775 -10.637  0.00  0.00    -0.006 C 
ATOM     23  C   UNL     1     -18.170  42.431 -11.685  0.00  0.00    +0.013 C 
ENDBRANCH  17  18
ENDBRANCH  14  17
ENDBRANCH   5  13
TORSDOF 5
ENDMDL
