MODEL 1
REMARK VINA RESULT:    -7.027      0.000      0.000
REMARK INTER + INTRA:          -8.557
REMARK INTER:                  -8.259
REMARK INTRA:                  -0.298
REMARK UNBOUND:                -0.298
REMARK  Name = 
REMARK  3 active torsions:
REMARK  status: ('A' for Active; 'I' for Inactive)
REMARK    1  A    between atoms: C_2  and  C_4
REMARK    2  A    between atoms: N_8  and  C_9
REMARK    3  A    between atoms: C_9  and  C_10
REMARK                            x       y       z     vdW  Elec       q    Type
REMARK                         _______ _______ _______ _____ _____    ______ ____
ROOT
ATOM      1  C   UNL     1     -18.826  43.205 -13.956  0.00  0.00    -0.087 A 
ATOM      2  C   UNL     1     -17.719  43.916 -13.514  0.00  0.00    +0.170 A 
ATOM      3  C   UNL     1     -17.260  43.710 -12.205  0.00  0.00    +0.041 A 
ATOM      4  C   UNL     1     -17.923  42.808 -11.372  0.00  0.00    +0.428 A 
ATOM      5  N   UNL     1     -17.445  42.635 -10.043  0.00  0.00    -0.578 N 
ATOM      6  N   UNL     1     -18.981  42.076 -11.815  0.00  0.00    -0.393 NA
ATOM      7  C   UNL     1     -19.410  42.302 -13.080  0.00  0.00    +0.321 A 
ATOM      8  H   UNL     1     -17.280  43.551  -9.629  0.00  0.00    +0.312 HD
ENDROOT
BRANCH   1  10
ATOM      9  N   UNL     1     -18.968  44.346 -16.101  0.00  0.00    -0.815 N 
ATOM     10  C   UNL     1     -19.469  43.389 -15.271  0.00  0.00    +0.615 C 
ATOM     11  O   UNL     1     -20.409  42.676 -15.603  0.00  0.00    -0.469 OA
ATOM     12  H   UNL     1     -19.390  44.414 -17.022  0.00  0.00    +0.386 HD
ATOM     13  H   UNL     1     -18.077  44.800 -15.966  0.00  0.00    +0.356 HD
ENDBRANCH   1  10
BRANCH   5  14
ATOM     14  C   UNL     1     -18.257  41.733  -9.234  0.00  0.00    +0.258 C 
BRANCH  14  15
ATOM     15  C   UNL     1     -18.994  41.115  -8.183  0.00  0.00    -0.007 C 
ATOM     16  C   UNL     1     -20.010  40.148  -8.558  0.00  0.00    +0.043 C 
ATOM     17  C   UNL     1     -21.521  40.287  -8.269  0.00  0.00    +0.239 C 
ATOM     18  N   UNL     1     -22.270  41.309  -7.501  0.00  0.00    -0.777 N 
ATOM     19  C   UNL     1     -21.137  42.091  -6.960  0.00  0.00    +0.239 C 
ATOM     20  C   UNL     1     -19.617  41.993  -7.210  0.00  0.00    +0.036 C 
ATOM     21  H   UNL     1     -22.839  40.894  -6.758  0.00  0.00    +0.346 HD
ATOM     22  H   UNL     1     -22.832  41.888  -8.135  0.00  0.00    +0.337 HD
ENDBRANCH  14  15
ENDBRANCH   5  14
TORSDOF 3
ENDMDL
MODEL 2
REMARK VINA RESULT:    -6.945      3.238      6.740
REMARK INTER + INTRA:          -8.461
REMARK INTER:                  -8.153
REMARK INTRA:                  -0.309
REMARK UNBOUND:                -0.298
REMARK  Name = 
REMARK  3 active torsions:
REMARK  status: ('A' for Active; 'I' for Inactive)
REMARK    1  A    between atoms: C_2  and  C_4
REMARK    2  A    between atoms: N_8  and  C_9
REMARK    3  A    between atoms: C_9  and  C_10
REMARK                            x       y       z     vdW  Elec       q    Type
REMARK                         _______ _______ _______ _____ _____    ______ ____
ROOT
ATOM      1  C   UNL     1     -20.872  41.627  -7.257  0.00  0.00    -0.087 A 
ATOM      2  C   UNL     1     -21.596  40.571  -7.793  0.00  0.00    +0.170 A 
ATOM      3  C   UNL     1     -21.078  39.891  -8.904  0.00  0.00    +0.041 A 
ATOM      4  C   UNL     1     -19.858  40.287  -9.454  0.00  0.00    +0.428 A 
ATOM      5  N   UNL     1     -19.369  39.590 -10.593  0.00  0.00    -0.578 N 
ATOM      6  N   UNL     1     -19.124  41.294  -8.905  0.00  0.00    -0.393 NA
ATOM      7  C   UNL     1     -19.652  41.940  -7.838  0.00  0.00    +0.321 A 
ATOM      8  H   UNL     1     -20.124  39.487 -11.268  0.00  0.00    +0.312 HD
ENDROOT
BRANCH   1  10
ATOM      9  N   UNL     1     -22.147  43.540  -6.457  0.00  0.00    -0.815 N 
ATOM     10  C   UNL     1     -21.338  42.486  -6.152  0.00  0.00    +0.615 C 
ATOM     11  O   UNL     1     -21.020  42.232  -4.996  0.00  0.00    -0.469 OA
ATOM     12  H   UNL     1     -22.501  44.082  -5.674  0.00  0.00    +0.386 HD
ATOM     13  H   UNL     1     -22.605  43.660  -7.347  0.00  0.00    +0.356 HD
ENDBRANCH   1  10
BRANCH   5  14
ATOM     14  C   UNL     1     -18.130  40.136 -11.135  0.00  0.00    +0.258 C 
BRANCH  14  15
ATOM     15  C   UNL     1     -17.148  40.788 -11.937  0.00  0.00    -0.007 C 
ATOM     16  C   UNL     1     -16.214  41.670 -11.264  0.00  0.00    +0.043 C 
ATOM     17  C   UNL     1     -16.075  43.187 -11.524  0.00  0.00    +0.239 C 
ATOM     18  N   UNL     1     -16.731  44.061 -12.524  0.00  0.00    -0.777 N 
ATOM     19  C   UNL     1     -17.457  43.038 -13.308  0.00  0.00    +0.239 C 
ATOM     20  C   UNL     1     -17.624  41.519 -13.097  0.00  0.00    +0.036 C 
ATOM     21  H   UNL     1     -16.053  44.572 -13.095  0.00  0.00    +0.346 HD
ATOM     22  H   UNL     1     -17.395  44.693 -12.062  0.00  0.00    +0.337 HD
ENDBRANCH  14  15
ENDBRANCH   5  14
TORSDOF 3
ENDMDL
MODEL 3
REMARK VINA RESULT:    -6.907      2.820      7.191
REMARK INTER + INTRA:          -8.417
REMARK INTER:                  -8.152
REMARK INTRA:                  -0.265
REMARK UNBOUND:                -0.298
REMARK  Name = 
REMARK  3 active torsions:
REMARK  status: ('A' for Active; 'I' for Inactive)
REMARK    1  A    between atoms: C_2  and  C_4
REMARK    2  A    between atoms: N_8  and  C_9
REMARK    3  A    between atoms: C_9  and  C_10
REMARK                            x       y       z     vdW  Elec       q    Type
REMARK                         _______ _______ _______ _____ _____    ______ ____
ROOT
ATOM      1  C   UNL     1     -18.667  41.346 -11.271  0.00  0.00    -0.087 A 
ATOM      2  C   UNL     1     -17.850  42.466 -11.345  0.00  0.00    +0.170 A 
ATOM      3  C   UNL     1     -17.903  43.268 -12.493  0.00  0.00    +0.041 A 
ATOM      4  C   UNL     1     -18.764  42.928 -13.538  0.00  0.00    +0.428 A 
ATOM      5  N   UNL     1     -18.781  43.751 -14.697  0.00  0.00    -0.578 N 
ATOM      6  N   UNL     1     -19.599  41.857 -13.451  0.00  0.00    -0.393 NA
ATOM      7  C   UNL     1     -19.520  41.093 -12.336  0.00  0.00    +0.321 A 
ATOM      8  H   UNL     1     -17.822  43.941 -14.984  0.00  0.00    +0.312 HD
ENDROOT
BRANCH   1  10
ATOM      9  N   UNL     1     -17.743  40.547  -9.166  0.00  0.00    -0.815 N 
ATOM     10  C   UNL     1     -18.648  40.366 -10.168  0.00  0.00    +0.615 C 
ATOM     11  O   UNL     1     -19.447  39.437 -10.155  0.00  0.00    -0.469 OA
ATOM     12  H   UNL     1     -17.788  39.894  -8.390  0.00  0.00    +0.386 HD
ATOM     13  H   UNL     1     -17.223  41.400  -9.022  0.00  0.00    +0.356 HD
ENDBRANCH   1  10
BRANCH   5  14
ATOM     14  C   UNL     1     -19.654  43.262 -15.759  0.00  0.00    +0.258 C 
BRANCH  14  15
ATOM     15  C   UNL     1     -20.736  43.048 -16.661  0.00  0.00    -0.007 C 
ATOM     16  C   UNL     1     -20.572  43.515 -18.024  0.00  0.00    +0.043 C 
ATOM     17  C   UNL     1     -21.445  44.590 -18.710  0.00  0.00    +0.239 C 
ATOM     18  N   UNL     1     -22.654  45.302 -18.235  0.00  0.00    -0.777 N 
ATOM     19  C   UNL     1     -22.880  44.584 -16.962  0.00  0.00    +0.239 C 
ATOM     20  C   UNL     1     -22.048  43.504 -16.237  0.00  0.00    +0.036 C 
ATOM     21  H   UNL     1     -23.443  45.198 -18.879  0.00  0.00    +0.346 HD
ATOM     22  H   UNL     1     -22.437  46.288 -18.054  0.00  0.00    +0.337 HD
ENDBRANCH  14  15
ENDBRANCH   5  14
TORSDOF 3
ENDMDL
MODEL 4
REMARK VINA RESULT:    -5.978      2.820      4.395
REMARK INTER + INTRA:          -7.324
REMARK INTER:                  -7.077
REMARK INTRA:                  -0.248
REMARK UNBOUND:                -0.298
REMARK  Name = 
REMARK  3 active torsions:
REMARK  status: ('A' for Active; 'I' for Inactive)
REMARK    1  A    between atoms: C_2  and  C_4
REMARK    2  A    between atoms: N_8  and  C_9
REMARK    3  A    between atoms: C_9  and  C_10
REMARK                            x       y       z     vdW  Elec       q    Type
REMARK                         _______ _______ _______ _____ _____    ______ ____
ROOT
ATOM      1  C   UNL     1     -21.272  44.604 -16.891  0.00  0.00    -0.087 A 
ATOM      2  C   UNL     1     -20.128  45.384 -16.791  0.00  0.00    +0.170 A 
ATOM      3  C   UNL     1     -19.096  44.966 -15.939  0.00  0.00    +0.041 A 
ATOM      4  C   UNL     1     -19.238  43.788 -15.204  0.00  0.00    +0.428 A 
ATOM      5  N   UNL     1     -18.182  43.401 -14.333  0.00  0.00    -0.578 N 
ATOM      6  N   UNL     1     -20.338  42.997 -15.333  0.00  0.00    -0.393 NA
ATOM      7  C   UNL     1     -21.324  43.429 -16.155  0.00  0.00    +0.321 A 
ATOM      8  H   UNL     1     -17.891  44.209 -13.785  0.00  0.00    +0.312 HD
ENDROOT
BRANCH   1  10
ATOM      9  N   UNL     1     -22.283  45.545 -18.896  0.00  0.00    -0.815 N 
ATOM     10  C   UNL     1     -22.468  44.967 -17.675  0.00  0.00    +0.615 C 
ATOM     11  O   UNL     1     -23.587  44.727 -17.239  0.00  0.00    -0.469 OA
ATOM     12  H   UNL     1     -23.119  45.732 -19.440  0.00  0.00    +0.386 HD
ATOM     13  H   UNL     1     -21.400  45.562 -19.383  0.00  0.00    +0.356 HD
ENDBRANCH   1  10
BRANCH   5  14
ATOM     14  C   UNL     1     -18.466  42.200 -13.555  0.00  0.00    +0.258 C 
BRANCH  14  15
ATOM     15  C   UNL     1     -18.405  40.925 -12.922  0.00  0.00    -0.007 C 
ATOM     16  C   UNL     1     -19.493  40.568 -12.031  0.00  0.00    +0.043 C 
ATOM     17  C   UNL     1     -19.349  40.279 -10.520  0.00  0.00    +0.239 C 
ATOM     18  N   UNL     1     -18.144  40.191  -9.662  0.00  0.00    -0.777 N 
ATOM     19  C   UNL     1     -17.094  40.316 -10.697  0.00  0.00    +0.239 C 
ATOM     20  C   UNL     1     -17.182  40.598 -12.211  0.00  0.00    +0.036 C 
ATOM     21  H   UNL     1     -18.088  39.298  -9.165  0.00  0.00    +0.346 HD
ATOM     22  H   UNL     1     -18.108  40.989  -9.019  0.00  0.00    +0.337 HD
ENDBRANCH  14  15
ENDBRANCH   5  14
TORSDOF 3
ENDMDL
MODEL 5
REMARK VINA RESULT:    -5.431      3.502      5.509
REMARK INTER + INTRA:          -6.682
REMARK INTER:                  -6.508
REMARK INTRA:                  -0.174
REMARK UNBOUND:                -0.298
REMARK  Name = 
REMARK  3 active torsions:
REMARK  status: ('A' for Active; 'I' for Inactive)
REMARK    1  A    between atoms: C_2  and  C_4
REMARK    2  A    between atoms: N_8  and  C_9
REMARK    3  A    between atoms: C_9  and  C_10
REMARK                            x       y       z     vdW  Elec       q    Type
REMARK                         _______ _______ _______ _____ _____    ______ ____
ROOT
ATOM      1  C   UNL     1     -20.411  44.798 -18.408  0.00  0.00    -0.087 A 
ATOM      2  C   UNL     1     -21.568  44.095 -18.100  0.00  0.00    +0.170 A 
ATOM      3  C   UNL     1     -21.643  43.418 -16.875  0.00  0.00    +0.041 A 
ATOM      4  C   UNL     1     -20.559  43.452 -15.996  0.00  0.00    +0.428 A 
ATOM      5  N   UNL     1     -20.658  42.739 -14.770  0.00  0.00    -0.578 N 
ATOM      6  N   UNL     1     -19.441  44.176 -16.274  0.00  0.00    -0.393 NA
ATOM      7  C   UNL     1     -19.391  44.813 -17.468  0.00  0.00    +0.321 A 
ATOM      8  H   UNL     1     -21.021  41.806 -14.958  0.00  0.00    +0.312 HD
ENDROOT
BRANCH   1  10
ATOM      9  N   UNL     1     -21.110  45.377 -20.667  0.00  0.00    -0.815 N 
ATOM     10  C   UNL     1     -20.161  45.477 -19.694  0.00  0.00    +0.615 C 
ATOM     11  O   UNL     1     -19.137  46.130 -19.858  0.00  0.00    -0.469 OA
ATOM     12  H   UNL     1     -20.941  45.900 -21.520  0.00  0.00    +0.386 HD
ATOM     13  H   UNL     1     -22.048  45.042 -20.508  0.00  0.00    +0.356 HD
ENDBRANCH   1  10
BRANCH   5  14
ATOM     14  C   UNL     1     -19.443  42.775 -13.964  0.00  0.00    +0.258 C 
BRANCH  14  15
ATOM     15  C   UNL     1     -18.098  42.699 -13.498  0.00  0.00    -0.007 C 
ATOM     16  C   UNL     1     -17.587  41.390 -13.140  0.00  0.00    +0.043 C 
ATOM     17  C   UNL     1     -17.107  40.976 -11.731  0.00  0.00    +0.239 C 
ATOM     18  N   UNL     1     -16.950  41.769 -10.490  0.00  0.00    -0.777 N 
ATOM     19  C   UNL     1     -17.250  43.117 -11.019  0.00  0.00    +0.239 C 
ATOM     20  C   UNL     1     -17.726  43.586 -12.410  0.00  0.00    +0.036 C 
ATOM     21  H   UNL     1     -16.002  41.708 -10.108  0.00  0.00    +0.346 HD
ATOM     22  H   UNL     1     -17.658  41.492  -9.800  0.00  0.00    +0.337 HD
ENDBRANCH  14  15
ENDBRANCH   5  14
TORSDOF 3
ENDMDL
