MODEL 1
REMARK VINA RESULT:    -7.405      0.000      0.000
REMARK INTER + INTRA:          -9.802
REMARK INTER:                 -10.002
REMARK INTRA:                   0.200
REMARK UNBOUND:                 0.200
REMARK  Name = 
REMARK  7 active torsions:
REMARK  status: ('A' for Active; 'I' for Inactive)
REMARK    1  A    between atoms: N_1  and  C_2
REMARK    2  A    between atoms: C_2  and  C_4
REMARK    3  A    between atoms: N_8  and  C_9
REMARK    4  A    between atoms: C_13  and  O_14
REMARK    5  A    between atoms: C_13  and  C_15
REMARK    6  A    between atoms: C_15  and  S_16
REMARK    7  A    between atoms: S_16  and  C_17
REMARK                            x       y       z     vdW  Elec       q    Type
REMARK                         _______ _______ _______ _____ _____    ______ ____
ROOT
ATOM      1  C   UNL     1     -17.230  45.661 -13.164  0.00  0.00    +0.215 C 
ATOM      2  C   UNL     1     -16.084  44.804 -13.376  0.00  0.00    -0.028 C 
ATOM      3  C   UNL     1     -15.956  43.351 -12.891  0.00  0.00    +0.194 C 
ATOM      4  N   UNL     1     -16.944  42.609 -12.134  0.00  0.00    -0.537 N 
ATOM      5  C   UNL     1     -17.227  41.384 -12.374  0.00  0.00    +0.524 C 
ATOM      6  C   UNL     1     -17.941  43.557 -11.680  0.00  0.00    +0.160 C 
ATOM      7  C   UNL     1     -18.075  45.012 -12.174  0.00  0.00    -0.027 C 
ENDROOT
BRANCH   1  12
ATOM      8  C   UNL     1     -20.065  43.976 -17.085  0.00  0.00    -0.133 C 
ATOM      9  C   UNL     1     -19.657  45.358 -17.068  0.00  0.00    +0.102 C 
ATOM     10  C   UNL     1     -19.002  45.906 -16.222  0.00  0.00    -0.051 C 
ATOM     11  C   UNL     1     -18.464  45.329 -14.992  0.00  0.00    +0.426 C 
ATOM     12  N   UNL     1     -17.818  46.184 -14.276  0.00  0.00    -0.445 NA
ATOM     13  N   UNL     1     -18.750  43.961 -14.816  0.00  0.00    -0.620 N 
ATOM     14  C   UNL     1     -19.539  43.485 -15.988  0.00  0.00    +0.240 C 
ATOM     15  H   UNL     1     -19.220  43.777 -13.936  0.00  0.00    +0.304 HD
BRANCH   8  16
ATOM     16  C   UNL     1     -21.206  43.332 -17.763  0.00  0.00    +0.560 C 
ATOM     17  O   UNL     1     -22.146  43.998 -18.181  0.00  0.00    -0.495 OA
BRANCH  16  18
ATOM     18  N   UNL     1     -21.097  42.016 -17.857  0.00  0.00    -0.558 NA
ATOM     19  H   UNL     1     -21.391  41.775 -18.810  0.00  0.00    +0.315 HD
ENDBRANCH  16  18
ENDBRANCH   8  16
ENDBRANCH   1  12
BRANCH   5  20
ATOM     20  O   UNL     1     -16.489  40.693 -13.263  0.00  0.00    -0.545 OA
ATOM     21  H   UNL     1     -16.925  40.090 -13.888  0.00  0.00    +0.334 HD
ENDBRANCH   5  20
BRANCH   5  22
ATOM     22  C   UNL     1     -18.429  40.694 -11.770  0.00  0.00    +0.401 C 
BRANCH  22  23
ATOM     23  S   UNL     1     -18.155  40.414  -9.997  0.00  0.00    -1.222 S 
BRANCH  23  24
ATOM     24  C   UNL     1     -19.660  41.211  -9.346  0.00  0.00    +0.434 C 
ATOM     25  C   UNL     1     -19.419  41.761  -7.916  0.00  0.00    +0.190 C 
ATOM     26  C   UNL     1     -20.823  41.240  -7.554  0.00  0.00    +0.119 C 
ATOM     27  C   UNL     1     -20.667  40.224  -8.708  0.00  0.00    +0.142 C 
ENDBRANCH  23  24
ENDBRANCH  22  23
ENDBRANCH   5  22
TORSDOF 7
ENDMDL
MODEL 2
REMARK VINA RESULT:    -6.988      3.607      8.068
REMARK INTER + INTRA:          -9.239
REMARK INTER:                 -10.203
REMARK INTRA:                   0.965
REMARK UNBOUND:                 0.200
REMARK  Name = 
REMARK  7 active torsions:
REMARK  status: ('A' for Active; 'I' for Inactive)
REMARK    1  A    between atoms: N_1  and  C_2
REMARK    2  A    between atoms: C_2  and  C_4
REMARK    3  A    between atoms: N_8  and  C_9
REMARK    4  A    between atoms: C_13  and  O_14
REMARK    5  A    between atoms: C_13  and  C_15
REMARK    6  A    between atoms: C_15  and  S_16
REMARK    7  A    between atoms: S_16  and  C_17
REMARK                            x       y       z     vdW  Elec       q    Type
REMARK                         _______ _______ _______ _____ _____    ______ ____
ROOT
ATOM      1  C   UNL     1     -18.127  40.589 -11.133  0.00  0.00    +0.215 C 
ATOM      2  C   UNL     1     -17.787  41.938 -10.737  0.00  0.00    -0.028 C 
ATOM      3  C   UNL     1     -17.711  43.151 -11.678  0.00  0.00    +0.194 C 
ATOM      4  N   UNL     1     -17.948  43.143 -13.108  0.00  0.00    -0.537 N 
ATOM      5  C   UNL     1     -18.609  44.062 -13.707  0.00  0.00    +0.524 C 
ATOM      6  C   UNL     1     -17.993  41.759 -13.530  0.00  0.00    +0.160 C 
ATOM      7  C   UNL     1     -18.079  40.543 -12.585  0.00  0.00    -0.027 C 
ENDROOT
BRANCH   1  12
ATOM      8  C   UNL     1     -21.077  41.559  -7.057  0.00  0.00    -0.133 C 
ATOM      9  C   UNL     1     -21.286  40.335  -7.788  0.00  0.00    +0.102 C 
ATOM     10  C   UNL     1     -20.688  39.967  -8.765  0.00  0.00    -0.051 C 
ATOM     11  C   UNL     1     -19.613  40.661  -9.471  0.00  0.00    +0.426 C 
ATOM     12  N   UNL     1     -19.188  40.013 -10.501  0.00  0.00    -0.445 NA
ATOM     13  N   UNL     1     -19.246  41.897  -8.903  0.00  0.00    -0.620 N 
ATOM     14  C   UNL     1     -20.088  42.136  -7.697  0.00  0.00    +0.240 C 
ATOM     15  H   UNL     1     -19.304  42.658  -9.571  0.00  0.00    +0.304 HD
BRANCH   8  16
ATOM     16  C   UNL     1     -22.002  42.318  -6.194  0.00  0.00    +0.560 C 
ATOM     17  O   UNL     1     -23.212  42.288  -6.391  0.00  0.00    -0.495 OA
BRANCH  16  18
ATOM     18  N   UNL     1     -21.397  43.003  -5.236  0.00  0.00    -0.558 NA
ATOM     19  H   UNL     1     -20.789  42.333  -4.753  0.00  0.00    +0.315 HD
ENDBRANCH  16  18
ENDBRANCH   8  16
ENDBRANCH   1  12
BRANCH   5  20
ATOM     20  O   UNL     1     -18.983  45.163 -13.029  0.00  0.00    -0.545 OA
ATOM     21  H   UNL     1     -18.327  45.656 -12.509  0.00  0.00    +0.334 HD
ENDBRANCH   5  20
BRANCH   5  22
ATOM     22  C   UNL     1     -19.078  43.923 -15.137  0.00  0.00    +0.401 C 
BRANCH  22  23
ATOM     23  S   UNL     1     -18.975  45.527 -15.982  0.00  0.00    -1.222 S 
BRANCH  23  24
ATOM     24  C   UNL     1     -20.233  45.254 -17.272  0.00  0.00    +0.434 C 
ATOM     25  C   UNL     1     -21.421  46.235 -17.101  0.00  0.00    +0.190 C 
ATOM     26  C   UNL     1     -22.354  45.056 -17.439  0.00  0.00    +0.119 C 
ATOM     27  C   UNL     1     -21.231  44.117 -16.944  0.00  0.00    +0.142 C 
ENDBRANCH  23  24
ENDBRANCH  22  23
ENDBRANCH   5  22
TORSDOF 7
ENDMDL
MODEL 3
REMARK VINA RESULT:    -6.799      4.357      8.497
REMARK INTER + INTRA:          -8.984
REMARK INTER:                  -8.616
REMARK INTRA:                  -0.368
REMARK UNBOUND:                 0.200
REMARK  Name = 
REMARK  7 active torsions:
REMARK  status: ('A' for Active; 'I' for Inactive)
REMARK    1  A    between atoms: N_1  and  C_2
REMARK    2  A    between atoms: C_2  and  C_4
REMARK    3  A    between atoms: N_8  and  C_9
REMARK    4  A    between atoms: C_13  and  O_14
REMARK    5  A    between atoms: C_13  and  C_15
REMARK    6  A    between atoms: C_15  and  S_16
REMARK    7  A    between atoms: S_16  and  C_17
REMARK                            x       y       z     vdW  Elec       q    Type
REMARK                         _______ _______ _______ _____ _____    ______ ____
ROOT
ATOM      1  C   UNL     1     -20.117  43.015 -15.867  0.00  0.00    +0.215 C 
ATOM      2  C   UNL     1     -19.852  43.321 -17.256  0.00  0.00    -0.028 C 
ATOM      3  C   UNL     1     -20.813  44.051 -18.206  0.00  0.00    +0.194 C 
ATOM      4  N   UNL     1     -22.140  44.536 -17.879  0.00  0.00    -0.537 N 
ATOM      5  C   UNL     1     -22.581  45.672 -18.272  0.00  0.00    +0.524 C 
ATOM      6  C   UNL     1     -22.502  43.969 -16.597  0.00  0.00    +0.160 C 
ATOM      7  C   UNL     1     -21.534  43.245 -15.639  0.00  0.00    -0.027 C 
ENDROOT
BRANCH   1  12
ATOM      8  C   UNL     1     -18.343  41.662 -11.255  0.00  0.00    -0.133 C 
ATOM      9  C   UNL     1     -17.902  42.908 -11.828  0.00  0.00    +0.102 C 
ATOM     10  C   UNL     1     -18.216  43.361 -12.897  0.00  0.00    -0.051 C 
ATOM     11  C   UNL     1     -19.106  42.770 -13.894  0.00  0.00    +0.426 C 
ATOM     12  N   UNL     1     -19.227  43.495 -14.953  0.00  0.00    -0.445 NA
ATOM     13  N   UNL     1     -19.658  41.529 -13.519  0.00  0.00    -0.620 N 
ATOM     14  C   UNL     1     -19.161  41.177 -12.158  0.00  0.00    +0.240 C 
ATOM     15  H   UNL     1     -19.465  40.802 -14.199  0.00  0.00    +0.304 HD
BRANCH   8  16
ATOM     16  C   UNL     1     -17.700  40.805 -10.240  0.00  0.00    +0.560 C 
ATOM     17  O   UNL     1     -18.283  40.517  -9.201  0.00  0.00    -0.495 OA
BRANCH  16  18
ATOM     18  N   UNL     1     -16.480  40.410 -10.570  0.00  0.00    -0.558 NA
ATOM     19  H   UNL     1     -16.456  40.400 -11.596  0.00  0.00    +0.315 HD
ENDBRANCH  16  18
ENDBRANCH   8  16
ENDBRANCH   1  12
BRANCH   5  20
ATOM     20  O   UNL     1     -21.860  46.399 -19.146  0.00  0.00    -0.545 OA
ATOM     21  H   UNL     1     -22.248  46.653 -20.000  0.00  0.00    +0.334 HD
ENDBRANCH   5  20
BRANCH   5  22
ATOM     22  C   UNL     1     -23.846  46.287 -17.721  0.00  0.00    +0.401 C 
BRANCH  22  23
ATOM     23  S   UNL     1     -24.234  47.817 -18.619  0.00  0.00    -1.222 S 
BRANCH  23  24
ATOM     24  C   UNL     1     -25.975  48.012 -18.114  0.00  0.00    +0.434 C 
ATOM     25  C   UNL     1     -26.073  48.646 -16.703  0.00  0.00    +0.190 C 
ATOM     26  C   UNL     1     -27.210  47.649 -16.410  0.00  0.00    +0.119 C 
ATOM     27  C   UNL     1     -26.595  46.737 -17.496  0.00  0.00    +0.142 C 
ENDBRANCH  23  24
ENDBRANCH  22  23
ENDBRANCH   5  22
TORSDOF 7
ENDMDL
MODEL 4
REMARK VINA RESULT:    -6.513      3.769      8.183
REMARK INTER + INTRA:          -8.598
REMARK INTER:                  -8.437
REMARK INTRA:                  -0.161
REMARK UNBOUND:                 0.200
REMARK  Name = 
REMARK  7 active torsions:
REMARK  status: ('A' for Active; 'I' for Inactive)
REMARK    1  A    between atoms: N_1  and  C_2
REMARK    2  A    between atoms: C_2  and  C_4
REMARK    3  A    between atoms: N_8  and  C_9
REMARK    4  A    between atoms: C_13  and  O_14
REMARK    5  A    between atoms: C_13  and  C_15
REMARK    6  A    between atoms: C_15  and  S_16
REMARK    7  A    between atoms: S_16  and  C_17
REMARK                            x       y       z     vdW  Elec       q    Type
REMARK                         _______ _______ _______ _____ _____    ______ ____
ROOT
ATOM      1  C   UNL     1     -19.241  44.673 -15.153  0.00  0.00    +0.215 C 
ATOM      2  C   UNL     1     -19.678  43.585 -16.000  0.00  0.00    -0.028 C 
ATOM      3  C   UNL     1     -19.719  43.614 -17.536  0.00  0.00    +0.194 C 
ATOM      4  N   UNL     1     -19.346  44.729 -18.384  0.00  0.00    -0.537 N 
ATOM      5  C   UNL     1     -18.673  44.586 -19.464  0.00  0.00    +0.524 C 
ATOM      6  C   UNL     1     -19.199  45.889 -17.531  0.00  0.00    +0.160 C 
ATOM      7  C   UNL     1     -19.148  45.859 -15.989  0.00  0.00    -0.027 C 
ENDROOT
BRANCH   1  12
ATOM      8  C   UNL     1     -18.360  41.534 -11.201  0.00  0.00    -0.133 C 
ATOM      9  C   UNL     1     -17.349  42.494 -11.562  0.00  0.00    +0.102 C 
ATOM     10  C   UNL     1     -17.398  43.290 -12.462  0.00  0.00    -0.051 C 
ATOM     11  C   UNL     1     -18.477  43.483 -13.428  0.00  0.00    +0.426 C 
ATOM     12  N   UNL     1     -18.222  44.407 -14.290  0.00  0.00    -0.445 NA
ATOM     13  N   UNL     1     -19.584  42.631 -13.243  0.00  0.00    -0.620 N 
ATOM     14  C   UNL     1     -19.322  41.758 -12.065  0.00  0.00    +0.240 C 
ATOM     15  H   UNL     1     -19.800  42.097 -14.078  0.00  0.00    +0.304 HD
BRANCH   8  16
ATOM     16  C   UNL     1     -18.237  40.252 -10.480  0.00  0.00    +0.560 C 
ATOM     17  O   UNL     1     -18.613  39.204 -10.993  0.00  0.00    -0.495 OA
BRANCH  16  18
ATOM     18  N   UNL     1     -17.704  40.369  -9.274  0.00  0.00    -0.558 NA
ATOM     19  H   UNL     1     -16.761  39.970  -9.343  0.00  0.00    +0.315 HD
ENDBRANCH  16  18
ENDBRANCH   8  16
ENDBRANCH   1  12
BRANCH   5  20
ATOM     20  O   UNL     1     -18.415  43.349 -19.928  0.00  0.00    -0.545 OA
ATOM     21  H   UNL     1     -19.145  42.722 -20.066  0.00  0.00    +0.334 HD
ENDBRANCH   5  20
BRANCH   5  22
ATOM     22  C   UNL     1     -18.063  45.755 -20.202  0.00  0.00    +0.401 C 
BRANCH  22  23
ATOM     23  S   UNL     1     -16.351  45.370 -20.667  0.00  0.00    -1.222 S 
BRANCH  23  24
ATOM     24  C   UNL     1     -15.498  46.686 -19.737  0.00  0.00    +0.434 C 
ATOM     25  C   UNL     1     -13.986  46.375 -19.602  0.00  0.00    +0.190 C 
ATOM     26  C   UNL     1     -14.083  46.881 -18.149  0.00  0.00    +0.119 C 
ATOM     27  C   UNL     1     -15.586  46.527 -18.201  0.00  0.00    +0.142 C 
ENDBRANCH  23  24
ENDBRANCH  22  23
ENDBRANCH   5  22
TORSDOF 7
ENDMDL
MODEL 5
REMARK VINA RESULT:    -6.412      4.430      8.592
REMARK INTER + INTRA:          -8.461
REMARK INTER:                  -7.936
REMARK INTRA:                  -0.525
REMARK UNBOUND:                 0.200
REMARK  Name = 
REMARK  7 active torsions:
REMARK  status: ('A' for Active; 'I' for Inactive)
REMARK    1  A    between atoms: N_1  and  C_2
REMARK    2  A    between atoms: C_2  and  C_4
REMARK    3  A    between atoms: N_8  and  C_9
REMARK    4  A    between atoms: C_13  and  O_14
REMARK    5  A    between atoms: C_13  and  C_15
REMARK    6  A    between atoms: C_15  and  S_16
REMARK    7  A    between atoms: S_16  and  C_17
REMARK                            x       y       z     vdW  Elec       q    Type
REMARK                         _______ _______ _______ _____ _____    ______ ____
ROOT
ATOM      1  C   UNL     1     -17.261  44.586 -12.941  0.00  0.00    +0.215 C 
ATOM      2  C   UNL     1     -17.940  45.819 -13.275  0.00  0.00    -0.028 C 
ATOM      3  C   UNL     1     -17.492  46.817 -14.354  0.00  0.00    +0.194 C 
ATOM      4  N   UNL     1     -16.319  46.701 -15.197  0.00  0.00    -0.537 N 
ATOM      5  C   UNL     1     -16.329  46.987 -16.445  0.00  0.00    +0.524 C 
ATOM      6  C   UNL     1     -15.503  45.635 -14.656  0.00  0.00    +0.160 C 
ATOM      7  C   UNL     1     -15.956  44.626 -13.581  0.00  0.00    -0.027 C 
ENDROOT
BRANCH   1  12
ATOM      8  C   UNL     1     -18.934  40.915  -9.782  0.00  0.00    -0.133 C 
ATOM      9  C   UNL     1     -19.189  40.784 -11.194  0.00  0.00    +0.102 C 
ATOM     10  C   UNL     1     -18.873  41.556 -12.059  0.00  0.00    -0.051 C 
ATOM     11  C   UNL     1     -18.166  42.827 -11.910  0.00  0.00    +0.426 C 
ATOM     12  N   UNL     1     -17.992  43.440 -13.031  0.00  0.00    -0.445 NA
ATOM     13  N   UNL     1     -17.813  43.146 -10.584  0.00  0.00    -0.620 N 
ATOM     14  C   UNL     1     -18.273  42.045  -9.691  0.00  0.00    +0.240 C 
ATOM     15  H   UNL     1     -18.174  44.049 -10.298  0.00  0.00    +0.304 HD
BRANCH   8  16
ATOM     16  C   UNL     1     -19.646  40.329  -8.630  0.00  0.00    +0.560 C 
ATOM     17  O   UNL     1     -19.189  40.420  -7.497  0.00  0.00    -0.495 OA
BRANCH  16  18
ATOM     18  N   UNL     1     -20.777  39.722  -8.956  0.00  0.00    -0.558 NA
ATOM     19  H   UNL     1     -21.432  39.919  -8.192  0.00  0.00    +0.315 HD
ENDBRANCH  16  18
ENDBRANCH   8  16
ENDBRANCH   1  12
BRANCH   5  20
ATOM     20  O   UNL     1     -17.421  47.558 -16.988  0.00  0.00    -0.545 OA
ATOM     21  H   UNL     1     -18.076  47.990 -16.415  0.00  0.00    +0.334 HD
ENDBRANCH   5  20
BRANCH   5  22
ATOM     22  C   UNL     1     -15.193  46.620 -17.372  0.00  0.00    +0.401 C 
BRANCH  22  23
ATOM     23  S   UNL     1     -14.846  47.998 -18.503  0.00  0.00    -1.222 S 
BRANCH  23  24
ATOM     24  C   UNL     1     -14.119  47.057 -19.885  0.00  0.00    +0.434 C 
ATOM     25  C   UNL     1     -14.683  45.614 -19.928  0.00  0.00    +0.190 C 
ATOM     26  C   UNL     1     -13.253  45.139 -20.251  0.00  0.00    +0.119 C 
ATOM     27  C   UNL     1     -12.745  46.424 -19.559  0.00  0.00    +0.142 C 
ENDBRANCH  23  24
ENDBRANCH  22  23
ENDBRANCH   5  22
TORSDOF 7
ENDMDL
