MODEL 1
REMARK VINA RESULT:    -7.474      0.000      0.000
REMARK INTER + INTRA:          -9.412
REMARK INTER:                  -9.222
REMARK INTRA:                  -0.191
REMARK UNBOUND:                -0.191
REMARK  Name = 
REMARK  4 active torsions:
REMARK  status: ('A' for Active; 'I' for Inactive)
REMARK    1  A    between atoms: C_5  and  C_6
REMARK    2  A    between atoms: N_8  and  C_9
REMARK    3  A    between atoms: C_9  and  C_10
REMARK    4  A    between atoms: N_20  and  C_21
REMARK                            x       y       z     vdW  Elec       q    Type
REMARK                         _______ _______ _______ _____ _____    ______ ____
ROOT
ATOM      1  N   UNL     1     -19.481  41.983 -14.189  0.00  0.00    -0.617 NA
ATOM      2  C   UNL     1     -18.476  42.452 -13.531  0.00  0.00    +0.471 C 
ATOM      3  C   UNL     1     -17.398  41.561 -12.942  0.00  0.00    +0.061 C 
ATOM      4  C   UNL     1     -16.696  42.121 -11.708  0.00  0.00    +0.137 C 
ATOM      5  C   UNL     1     -16.440  43.630 -11.805  0.00  0.00    -0.036 C 
ATOM      6  C   UNL     1     -17.773  44.284 -12.160  0.00  0.00    +0.257 C 
ATOM      7  N   UNL     1     -18.283  43.818 -13.430  0.00  0.00    -0.554 N 
ATOM      8  C   UNL     1     -18.627  44.772 -14.400  0.00  0.00    +0.701 C 
ATOM      9  O   UNL     1     -18.491  45.982 -14.249  0.00  0.00    -0.558 OA
ATOM     10  N   UNL     1     -19.020  44.232 -15.598  0.00  0.00    -0.662 N 
ATOM     11  H   UNL     1     -19.476  40.956 -14.180  0.00  0.00    +0.286 HD
ATOM     12  H   UNL     1     -19.394  43.281 -15.504  0.00  0.00    +0.365 HD
ENDROOT
BRANCH  10  13
ATOM     13  C   UNL     1     -19.300  45.020 -16.788  0.00  0.00    +0.292 C 
ATOM     14  C   UNL     1     -20.686  45.672 -16.743  0.00  0.00    +0.097 C 
ATOM     15  C   UNL     1     -21.700  44.552 -16.944  0.00  0.00    +0.469 C 
ATOM     16  S   UNL     1     -20.915  43.402 -18.067  0.00  0.00    -0.893 S 
ATOM     17  O   UNL     1     -20.837  42.102 -17.432  0.00  0.00    -0.179 OA
ATOM     18  O   UNL     1     -21.480  43.579 -19.388  0.00  0.00    -0.183 OA
ATOM     19  C   UNL     1     -19.297  44.150 -18.042  0.00  0.00    +0.425 C 
ENDBRANCH  10  13
BRANCH   5  20
ATOM     20  C   UNL     1     -15.309  43.983 -12.776  0.00  0.00    +0.517 C 
ATOM     21  O   UNL     1     -15.508  44.546 -13.851  0.00  0.00    -0.516 OA
ATOM     22  N   UNL     1     -14.033  43.603 -12.456  0.00  0.00    -0.641 N 
ATOM     23  H   UNL     1     -13.327  43.948 -13.094  0.00  0.00    +0.308 HD
BRANCH  22  24
ATOM     24  C   UNL     1     -13.594  43.120 -11.171  0.00  0.00    +0.225 C 
BRANCH  24  25
ATOM     25  C   UNL     1     -12.238  42.496 -11.171  0.00  0.00    +0.044 A 
ATOM     26  C   UNL     1     -12.125  41.117 -10.950  0.00  0.00    +0.014 A 
ATOM     27  C   UNL     1     -10.890  40.487 -11.080  0.00  0.00    +0.050 A 
ATOM     28  C   UNL     1      -9.769  41.233 -11.436  0.00  0.00    +0.037 A 
ATOM     29  C   UNL     1      -9.876  42.605 -11.664  0.00  0.00    +0.046 A 
ATOM     30  C   UNL     1     -11.109  43.237 -11.536  0.00  0.00    +0.034 A 
ENDBRANCH  24  25
ENDBRANCH  22  24
ENDBRANCH   5  20
TORSDOF 4
ENDMDL
MODEL 2
REMARK VINA RESULT:    -7.179      3.736      5.703
REMARK INTER + INTRA:          -9.048
REMARK INTER:                  -8.335
REMARK INTRA:                  -0.713
REMARK UNBOUND:                -0.191
REMARK  Name = 
REMARK  4 active torsions:
REMARK  status: ('A' for Active; 'I' for Inactive)
REMARK    1  A    between atoms: C_5  and  C_6
REMARK    2  A    between atoms: N_8  and  C_9
REMARK    3  A    between atoms: C_9  and  C_10
REMARK    4  A    between atoms: N_20  and  C_21
REMARK                            x       y       z     vdW  Elec       q    Type
REMARK                         _______ _______ _______ _____ _____    ______ ____
ROOT
ATOM      1  N   UNL     1     -18.299  43.456 -14.314  0.00  0.00    -0.617 NA
ATOM      2  C   UNL     1     -17.789  44.563 -13.891  0.00  0.00    +0.471 C 
ATOM      3  C   UNL     1     -18.430  45.912 -14.157  0.00  0.00    +0.061 C 
ATOM      4  C   UNL     1     -17.463  47.092 -14.202  0.00  0.00    +0.137 C 
ATOM      5  C   UNL     1     -16.356  46.992 -13.146  0.00  0.00    -0.036 C 
ATOM      6  C   UNL     1     -15.720  45.612 -13.299  0.00  0.00    +0.257 C 
ATOM      7  N   UNL     1     -16.674  44.549 -13.072  0.00  0.00    -0.554 N 
ATOM      8  C   UNL     1     -16.356  43.558 -12.132  0.00  0.00    +0.701 C 
ATOM      9  O   UNL     1     -15.327  43.554 -11.463  0.00  0.00    -0.558 OA
ATOM     10  N   UNL     1     -17.356  42.643 -11.925  0.00  0.00    -0.662 N 
ATOM     11  H   UNL     1     -19.125  43.636 -14.898  0.00  0.00    +0.286 HD
ATOM     12  H   UNL     1     -17.989  42.555 -12.729  0.00  0.00    +0.365 HD
ENDROOT
BRANCH  10  13
ATOM     13  C   UNL     1     -17.306  41.604 -10.909  0.00  0.00    +0.292 C 
ATOM     14  C   UNL     1     -16.429  40.419 -11.330  0.00  0.00    +0.097 C 
ATOM     15  C   UNL     1     -17.199  39.670 -12.411  0.00  0.00    +0.469 C 
ATOM     16  S   UNL     1     -18.923  39.829 -11.957  0.00  0.00    -0.893 S 
ATOM     17  O   UNL     1     -19.639  40.465 -13.043  0.00  0.00    -0.179 OA
ATOM     18  O   UNL     1     -19.367  38.582 -11.370  0.00  0.00    -0.183 OA
ATOM     19  C   UNL     1     -18.690  41.016 -10.648  0.00  0.00    +0.425 C 
ENDBRANCH  10  13
BRANCH   5  20
ATOM     20  C   UNL     1     -16.854  47.280 -11.727  0.00  0.00    +0.517 C 
ATOM     21  O   UNL     1     -17.932  46.867 -11.304  0.00  0.00    -0.516 OA
ATOM     22  N   UNL     1     -16.091  48.080 -10.919  0.00  0.00    -0.641 N 
ATOM     23  H   UNL     1     -16.433  48.153  -9.969  0.00  0.00    +0.308 HD
BRANCH  22  24
ATOM     24  C   UNL     1     -14.731  48.483 -11.172  0.00  0.00    +0.225 C 
BRANCH  24  25
ATOM     25  C   UNL     1     -13.711  47.795 -10.328  0.00  0.00    +0.044 A 
ATOM     26  C   UNL     1     -13.496  48.244  -9.018  0.00  0.00    +0.014 A 
ATOM     27  C   UNL     1     -12.652  47.538  -8.166  0.00  0.00    +0.050 A 
ATOM     28  C   UNL     1     -12.027  46.379  -8.619  0.00  0.00    +0.037 A 
ATOM     29  C   UNL     1     -12.241  45.922  -9.919  0.00  0.00    +0.046 A 
ATOM     30  C   UNL     1     -13.084  46.626 -10.774  0.00  0.00    +0.034 A 
ENDBRANCH  24  25
ENDBRANCH  22  24
ENDBRANCH   5  20
TORSDOF 4
ENDMDL
MODEL 3
REMARK VINA RESULT:    -6.917      4.303      5.915
REMARK INTER + INTRA:          -8.725
REMARK INTER:                  -8.173
REMARK INTRA:                  -0.552
REMARK UNBOUND:                -0.191
REMARK  Name = 
REMARK  4 active torsions:
REMARK  status: ('A' for Active; 'I' for Inactive)
REMARK    1  A    between atoms: C_5  and  C_6
REMARK    2  A    between atoms: N_8  and  C_9
REMARK    3  A    between atoms: C_9  and  C_10
REMARK    4  A    between atoms: N_20  and  C_21
REMARK                            x       y       z     vdW  Elec       q    Type
REMARK                         _______ _______ _______ _____ _____    ______ ____
ROOT
ATOM      1  N   UNL     1     -18.129  48.180 -13.027  0.00  0.00    -0.617 NA
ATOM      2  C   UNL     1     -17.966  46.904 -12.928  0.00  0.00    +0.471 C 
ATOM      3  C   UNL     1     -18.277  46.137 -11.656  0.00  0.00    +0.061 C 
ATOM      4  C   UNL     1     -17.466  44.860 -11.454  0.00  0.00    +0.137 C 
ATOM      5  C   UNL     1     -17.252  44.081 -12.756  0.00  0.00    -0.036 C 
ATOM      6  C   UNL     1     -16.687  45.067 -13.776  0.00  0.00    +0.257 C 
ATOM      7  N   UNL     1     -17.598  46.159 -14.034  0.00  0.00    -0.554 N 
ATOM      8  C   UNL     1     -17.951  46.432 -15.364  0.00  0.00    +0.701 C 
ATOM      9  O   UNL     1     -17.557  45.779 -16.325  0.00  0.00    -0.558 OA
ATOM     10  N   UNL     1     -18.883  47.429 -15.501  0.00  0.00    -0.662 N 
ATOM     11  H   UNL     1     -18.411  48.582 -12.125  0.00  0.00    +0.286 HD
ATOM     12  H   UNL     1     -18.884  48.086 -14.712  0.00  0.00    +0.365 HD
ENDROOT
BRANCH  10  13
ATOM     13  C   UNL     1     -19.494  47.798 -16.769  0.00  0.00    +0.292 C 
ATOM     14  C   UNL     1     -18.762  48.958 -17.453  0.00  0.00    +0.097 C 
ATOM     15  C   UNL     1     -19.087  50.211 -16.648  0.00  0.00    +0.469 C 
ATOM     16  S   UNL     1     -20.765  49.980 -16.072  0.00  0.00    -0.893 S 
ATOM     17  O   UNL     1     -20.780  50.043 -14.625  0.00  0.00    -0.179 OA
ATOM     18  O   UNL     1     -21.653  50.783 -16.885  0.00  0.00    -0.183 OA
ATOM     19  C   UNL     1     -20.930  48.276 -16.573  0.00  0.00    +0.425 C 
ENDBRANCH  10  13
BRANCH   5  20
ATOM     20  C   UNL     1     -18.515  43.362 -13.238  0.00  0.00    +0.517 C 
ATOM     21  O   UNL     1     -19.243  43.816 -14.120  0.00  0.00    -0.516 OA
ATOM     22  N   UNL     1     -18.878  42.196 -12.618  0.00  0.00    -0.641 N 
ATOM     23  H   UNL     1     -19.668  41.729 -13.046  0.00  0.00    +0.308 HD
BRANCH  22  24
ATOM     24  C   UNL     1     -18.055  41.428 -11.718  0.00  0.00    +0.225 C 
BRANCH  24  25
ATOM     25  C   UNL     1     -18.662  41.183 -10.376  0.00  0.00    +0.044 A 
ATOM     26  C   UNL     1     -18.331  42.035  -9.314  0.00  0.00    +0.014 A 
ATOM     27  C   UNL     1     -18.983  41.913  -8.091  0.00  0.00    +0.050 A 
ATOM     28  C   UNL     1     -19.972  40.946  -7.929  0.00  0.00    +0.037 A 
ATOM     29  C   UNL     1     -20.312  40.100  -8.984  0.00  0.00    +0.046 A 
ATOM     30  C   UNL     1     -19.661  40.218 -10.209  0.00  0.00    +0.034 A 
ENDBRANCH  24  25
ENDBRANCH  22  24
ENDBRANCH   5  20
TORSDOF 4
ENDMDL
MODEL 4
REMARK VINA RESULT:    -6.820     19.297     21.082
REMARK INTER + INTRA:          -8.605
REMARK INTER:                  -8.073
REMARK INTRA:                  -0.532
REMARK UNBOUND:                -0.191
REMARK  Name = 
REMARK  4 active torsions:
REMARK  status: ('A' for Active; 'I' for Inactive)
REMARK    1  A    between atoms: C_5  and  C_6
REMARK    2  A    between atoms: N_8  and  C_9
REMARK    3  A    between atoms: C_9  and  C_10
REMARK    4  A    between atoms: N_20  and  C_21
REMARK                            x       y       z     vdW  Elec       q    Type
REMARK                         _______ _______ _______ _____ _____    ______ ____
ROOT
ATOM      1  N   UNL     1     -28.208  41.906  -0.058  0.00  0.00    -0.617 NA
ATOM      2  C   UNL     1     -28.604  40.951   0.713  0.00  0.00    +0.471 C 
ATOM      3  C   UNL     1     -27.787  39.693   0.941  0.00  0.00    +0.061 C 
ATOM      4  C   UNL     1     -28.598  38.448   1.291  0.00  0.00    +0.137 C 
ATOM      5  C   UNL     1     -29.773  38.748   2.228  0.00  0.00    -0.036 C 
ATOM      6  C   UNL     1     -30.562  39.893   1.596  0.00  0.00    +0.257 C 
ATOM      7  N   UNL     1     -29.762  41.089   1.458  0.00  0.00    -0.554 N 
ATOM      8  C   UNL     1     -30.258  42.288   1.991  0.00  0.00    +0.701 C 
ATOM      9  O   UNL     1     -31.320  42.379   2.599  0.00  0.00    -0.558 OA
ATOM     10  N   UNL     1     -29.393  43.347   1.886  0.00  0.00    -0.662 N 
ATOM     11  H   UNL     1     -27.332  41.653  -0.530  0.00  0.00    +0.286 HD
ATOM     12  H   UNL     1     -28.727  43.242   1.111  0.00  0.00    +0.365 HD
ENDROOT
BRANCH  10  13
ATOM     13  C   UNL     1     -29.634  44.653   2.478  0.00  0.00    +0.292 C 
ATOM     14  C   UNL     1     -30.166  45.667   1.459  0.00  0.00    +0.097 C 
ATOM     15  C   UNL     1     -28.996  46.021   0.548  0.00  0.00    +0.469 C 
ATOM     16  S   UNL     1     -27.549  45.972   1.599  0.00  0.00    -0.893 S 
ATOM     17  O   UNL     1     -26.608  45.011   1.061  0.00  0.00    -0.179 OA
ATOM     18  O   UNL     1     -27.161  47.329   1.922  0.00  0.00    -0.183 OA
ATOM     19  C   UNL     1     -28.346  45.260   3.026  0.00  0.00    +0.425 C 
ENDBRANCH  10  13
BRANCH   5  20
ATOM     20  C   UNL     1     -29.334  39.032   3.667  0.00  0.00    +0.517 C 
ATOM     21  O   UNL     1     -29.278  40.169   4.134  0.00  0.00    -0.516 OA
ATOM     22  N   UNL     1     -28.931  37.979   4.445  0.00  0.00    -0.641 N 
ATOM     23  H   UNL     1     -28.743  38.226   5.408  0.00  0.00    +0.308 HD
BRANCH  22  24
ATOM     24  C   UNL     1     -29.114  36.583   4.135  0.00  0.00    +0.225 C 
BRANCH  24  25
ATOM     25  C   UNL     1     -27.861  35.773   4.153  0.00  0.00    +0.044 A 
ATOM     26  C   UNL     1     -27.243  35.450   2.938  0.00  0.00    +0.014 A 
ATOM     27  C   UNL     1     -26.005  34.814   2.930  0.00  0.00    +0.050 A 
ATOM     28  C   UNL     1     -25.380  34.505   4.136  0.00  0.00    +0.037 A 
ATOM     29  C   UNL     1     -25.987  34.829   5.350  0.00  0.00    +0.046 A 
ATOM     30  C   UNL     1     -27.225  35.466   5.360  0.00  0.00    +0.034 A 
ENDBRANCH  24  25
ENDBRANCH  22  24
ENDBRANCH   5  20
TORSDOF 4
ENDMDL
MODEL 5
REMARK VINA RESULT:    -6.477     22.172     24.019
REMARK INTER + INTRA:          -8.182
REMARK INTER:                  -7.858
REMARK INTRA:                  -0.325
REMARK UNBOUND:                -0.191
REMARK  Name = 
REMARK  4 active torsions:
REMARK  status: ('A' for Active; 'I' for Inactive)
REMARK    1  A    between atoms: C_5  and  C_6
REMARK    2  A    between atoms: N_8  and  C_9
REMARK    3  A    between atoms: C_9  and  C_10
REMARK    4  A    between atoms: N_20  and  C_21
REMARK                            x       y       z     vdW  Elec       q    Type
REMARK                         _______ _______ _______ _____ _____    ______ ____
ROOT
ATOM      1  N   UNL     1     -30.878  43.072   6.954  0.00  0.00    -0.617 NA
ATOM      2  C   UNL     1     -30.360  43.510   5.858  0.00  0.00    +0.471 C 
ATOM      3  C   UNL     1     -29.561  42.624   4.920  0.00  0.00    +0.061 C 
ATOM      4  C   UNL     1     -28.510  43.348   4.083  0.00  0.00    +0.137 C 
ATOM      5  C   UNL     1     -28.988  44.716   3.583  0.00  0.00    -0.036 C 
ATOM      6  C   UNL     1     -29.500  45.479   4.802  0.00  0.00    +0.257 C 
ATOM      7  N   UNL     1     -30.610  44.804   5.435  0.00  0.00    -0.554 N 
ATOM      8  C   UNL     1     -31.792  45.527   5.656  0.00  0.00    +0.701 C 
ATOM      9  O   UNL     1     -31.954  46.694   5.314  0.00  0.00    -0.558 OA
ATOM     10  N   UNL     1     -32.814  44.780   6.183  0.00  0.00    -0.662 N 
ATOM     11  H   UNL     1     -30.607  42.095   7.120  0.00  0.00    +0.286 HD
ATOM     12  H   UNL     1     -32.480  43.962   6.707  0.00  0.00    +0.365 HD
ENDROOT
BRANCH  10  13
ATOM     13  C   UNL     1     -34.166  45.279   6.378  0.00  0.00    +0.292 C 
ATOM     14  C   UNL     1     -34.545  45.373   7.860  0.00  0.00    +0.097 C 
ATOM     15  C   UNL     1     -34.737  43.943   8.351  0.00  0.00    +0.469 C 
ATOM     16  S   UNL     1     -35.420  43.054   6.958  0.00  0.00    -0.893 S 
ATOM     17  O   UNL     1     -34.544  41.949   6.627  0.00  0.00    -0.179 OA
ATOM     18  O   UNL     1     -36.840  42.870   7.172  0.00  0.00    -0.183 OA
ATOM     19  C   UNL     1     -35.197  44.346   5.749  0.00  0.00    +0.425 C 
ENDBRANCH  10  13
BRANCH   5  20
ATOM     20  C   UNL     1     -30.014  44.614   2.451  0.00  0.00    +0.517 C 
ATOM     21  O   UNL     1     -31.006  45.338   2.385  0.00  0.00    -0.516 OA
ATOM     22  N   UNL     1     -29.848  43.635   1.507  0.00  0.00    -0.641 N 
ATOM     23  H   UNL     1     -30.509  43.683   0.742  0.00  0.00    +0.308 HD
BRANCH  22  24
ATOM     24  C   UNL     1     -28.662  42.838   1.318  0.00  0.00    +0.225 C 
BRANCH  24  25
ATOM     25  C   UNL     1     -28.903  41.366   1.272  0.00  0.00    +0.044 A 
ATOM     26  C   UNL     1     -27.805  40.496   1.300  0.00  0.00    +0.014 A 
ATOM     27  C   UNL     1     -28.003  39.122   1.395  0.00  0.00    +0.050 A 
ATOM     28  C   UNL     1     -29.298  38.615   1.470  0.00  0.00    +0.037 A 
ATOM     29  C   UNL     1     -30.396  39.476   1.450  0.00  0.00    +0.046 A 
ATOM     30  C   UNL     1     -30.201  40.850   1.354  0.00  0.00    +0.034 A 
ENDBRANCH  24  25
ENDBRANCH  22  24
ENDBRANCH   5  20
TORSDOF 4
ENDMDL
