MODEL 1
REMARK VINA RESULT:    -7.402      0.000      0.000
REMARK INTER + INTRA:         -10.485
REMARK INTER:                  -9.782
REMARK INTRA:                  -0.703
REMARK UNBOUND:                -0.703
REMARK  Name = 
REMARK  6 active torsions:
REMARK  status: ('A' for Active; 'I' for Inactive)
REMARK    1  A    between atoms: C_2  and  C_3
REMARK    2  A    between atoms: C_2  and  O_7
REMARK    3  A    between atoms: O_7  and  C_8
REMARK    4  A    between atoms: C_8  and  O_9
REMARK    5  A    between atoms: N_10  and  C_11
REMARK    6  A    between atoms: C_11  and  C_12
REMARK                            x       y       z     vdW  Elec       q    Type
REMARK                         _______ _______ _______ _____ _____    ______ ____
ROOT
ATOM      1  C   UNL     1     -18.468  39.985 -10.802  0.00  0.00    +0.699 C 
ATOM      2  N   UNL     1     -18.925  40.515  -9.731  0.00  0.00    -0.397 NA
ENDROOT
BRANCH   1   3
ATOM      3  O   UNL     1     -19.043  38.921 -11.401  0.00  0.00    -0.607 OA
ATOM      4  H   UNL     1     -20.017  38.933 -11.341  0.00  0.00    +0.384 HD
ENDBRANCH   1   3
BRANCH   1   5
ATOM      5  O   UNL     1     -17.353  40.512 -11.360  0.00  0.00    -0.548 OA
BRANCH   5   7
ATOM      6  O   UNL     1     -16.975  39.683 -13.458  0.00  0.00    -0.520 OA
ATOM      7  C   UNL     1     -17.219  40.606 -12.691  0.00  0.00    +0.614 C 
BRANCH   7   8
ATOM      8  C   UNL     1     -17.397  41.980 -13.179  0.00  0.00    -0.028 C 
ATOM      9  C   UNL     1     -18.558  42.534 -13.533  0.00  0.00    +0.464 C 
ATOM     10  F   UNL     1     -19.722  41.857 -13.473  0.00  0.00    -0.272 F 
ATOM     11  F   UNL     1     -18.564  43.813 -13.964  0.00  0.00    -0.290 F 
ENDBRANCH   7   8
ENDBRANCH   5   7
ENDBRANCH   1   5
BRANCH   2  12
ATOM     12  C   UNL     1     -20.123  39.905  -9.163  0.00  0.00    +0.323 C 
BRANCH  12  13
ATOM     13  C   UNL     1     -20.703  40.779  -8.083  0.00  0.00    +0.028 C 
ATOM     14  C   UNL     1     -19.867  41.530  -7.252  0.00  0.00    +0.014 C 
ATOM     15  C   UNL     1     -20.404  42.341  -6.254  0.00  0.00    +0.032 C 
ATOM     16  C   UNL     1     -21.784  42.406  -6.080  0.00  0.00    +0.030 C 
ATOM     17  C   UNL     1     -22.627  41.664  -6.902  0.00  0.00    +0.031 C 
ATOM     18  C   UNL     1     -22.087  40.855  -7.900  0.00  0.00    +0.045 C 
ENDBRANCH  12  13
ENDBRANCH   2  12
TORSDOF 6
ENDMDL
MODEL 2
REMARK VINA RESULT:    -7.255      1.315      1.806
REMARK INTER + INTRA:         -10.291
REMARK INTER:                  -9.589
REMARK INTRA:                  -0.702
REMARK UNBOUND:                -0.703
REMARK  Name = 
REMARK  6 active torsions:
REMARK  status: ('A' for Active; 'I' for Inactive)
REMARK    1  A    between atoms: C_2  and  C_3
REMARK    2  A    between atoms: C_2  and  O_7
REMARK    3  A    between atoms: O_7  and  C_8
REMARK    4  A    between atoms: C_8  and  O_9
REMARK    5  A    between atoms: N_10  and  C_11
REMARK    6  A    between atoms: C_11  and  C_12
REMARK                            x       y       z     vdW  Elec       q    Type
REMARK                         _______ _______ _______ _____ _____    ______ ____
ROOT
ATOM      1  C   UNL     1     -19.367  40.119 -11.306  0.00  0.00    +0.699 C 
ATOM      2  N   UNL     1     -19.729  40.769 -10.264  0.00  0.00    -0.397 NA
ENDROOT
BRANCH   1   3
ATOM      3  O   UNL     1     -19.310  38.772 -11.351  0.00  0.00    -0.607 OA
ATOM      4  H   UNL     1     -19.574  38.353 -10.509  0.00  0.00    +0.384 HD
ENDBRANCH   1   3
BRANCH   1   5
ATOM      5  O   UNL     1     -19.022  40.815 -12.414  0.00  0.00    -0.548 OA
BRANCH   5   7
ATOM      6  O   UNL     1     -17.101  39.803 -13.133  0.00  0.00    -0.520 OA
ATOM      7  C   UNL     1     -17.766  40.801 -12.882  0.00  0.00    +0.614 C 
BRANCH   7   8
ATOM      8  C   UNL     1     -17.223  42.152 -13.080  0.00  0.00    -0.028 C 
ATOM      9  C   UNL     1     -16.999  43.047 -12.116  0.00  0.00    +0.464 C 
ATOM     10  F   UNL     1     -17.260  42.784 -10.820  0.00  0.00    -0.272 F 
ATOM     11  F   UNL     1     -16.494  44.253 -12.453  0.00  0.00    -0.290 F 
ENDBRANCH   7   8
ENDBRANCH   5   7
ENDBRANCH   1   5
BRANCH   2  12
ATOM     12  C   UNL     1     -20.082  39.974  -9.092  0.00  0.00    +0.323 C 
BRANCH  12  13
ATOM     13  C   UNL     1     -20.715  40.839  -8.035  0.00  0.00    +0.028 C 
ATOM     14  C   UNL     1     -22.104  40.870  -7.880  0.00  0.00    +0.014 C 
ATOM     15  C   UNL     1     -22.689  41.668  -6.899  0.00  0.00    +0.032 C 
ATOM     16  C   UNL     1     -21.887  42.445  -6.065  0.00  0.00    +0.030 C 
ATOM     17  C   UNL     1     -20.503  42.421  -6.210  0.00  0.00    +0.031 C 
ATOM     18  C   UNL     1     -19.921  41.620  -7.190  0.00  0.00    +0.045 C 
ENDBRANCH  12  13
ENDBRANCH   2  12
TORSDOF 6
ENDMDL
MODEL 3
REMARK VINA RESULT:    -6.592      2.901      6.112
REMARK INTER + INTRA:          -9.415
REMARK INTER:                  -9.040
REMARK INTRA:                  -0.376
REMARK UNBOUND:                -0.703
REMARK  Name = 
REMARK  6 active torsions:
REMARK  status: ('A' for Active; 'I' for Inactive)
REMARK    1  A    between atoms: C_2  and  C_3
REMARK    2  A    between atoms: C_2  and  O_7
REMARK    3  A    between atoms: O_7  and  C_8
REMARK    4  A    between atoms: C_8  and  O_9
REMARK    5  A    between atoms: N_10  and  C_11
REMARK    6  A    between atoms: C_11  and  C_12
REMARK                            x       y       z     vdW  Elec       q    Type
REMARK                         _______ _______ _______ _____ _____    ______ ____
ROOT
ATOM      1  C   UNL     1     -18.749  40.325  -9.237  0.00  0.00    +0.699 C 
ATOM      2  N   UNL     1     -19.335  40.039 -10.337  0.00  0.00    -0.397 NA
ENDROOT
BRANCH   1   3
ATOM      3  O   UNL     1     -17.409  40.442  -9.125  0.00  0.00    -0.607 OA
ATOM      4  H   UNL     1     -17.069  41.277  -9.498  0.00  0.00    +0.384 HD
ENDBRANCH   1   3
BRANCH   1   5
ATOM      5  O   UNL     1     -19.506  40.517  -8.132  0.00  0.00    -0.548 OA
BRANCH   5   7
ATOM      6  O   UNL     1     -18.852  42.628  -7.542  0.00  0.00    -0.520 OA
ATOM      7  C   UNL     1     -19.694  41.743  -7.622  0.00  0.00    +0.614 C 
BRANCH   7   8
ATOM      8  C   UNL     1     -21.068  41.948  -7.142  0.00  0.00    -0.028 C 
ATOM      9  C   UNL     1     -22.123  41.198  -7.465  0.00  0.00    +0.464 C 
ATOM     10  F   UNL     1     -22.023  40.141  -8.296  0.00  0.00    -0.272 F 
ATOM     11  F   UNL     1     -23.327  41.510  -6.942  0.00  0.00    -0.290 F 
ENDBRANCH   7   8
ENDBRANCH   5   7
ENDBRANCH   1   5
BRANCH   2  12
ATOM     12  C   UNL     1     -18.474  39.833 -11.499  0.00  0.00    +0.323 C 
BRANCH  12  13
ATOM     13  C   UNL     1     -18.349  41.102 -12.299  0.00  0.00    +0.028 C 
ATOM     14  C   UNL     1     -19.468  41.667 -12.916  0.00  0.00    +0.014 C 
ATOM     15  C   UNL     1     -19.351  42.843 -13.653  0.00  0.00    +0.032 C 
ATOM     16  C   UNL     1     -18.111  43.465 -13.779  0.00  0.00    +0.030 C 
ATOM     17  C   UNL     1     -16.990  42.912 -13.167  0.00  0.00    +0.031 C 
ATOM     18  C   UNL     1     -17.110  41.736 -12.429  0.00  0.00    +0.045 C 
ENDBRANCH  12  13
ENDBRANCH   2  12
TORSDOF 6
ENDMDL
MODEL 4
REMARK VINA RESULT:    -6.196      3.071      6.034
REMARK INTER + INTRA:          -8.892
REMARK INTER:                  -8.302
REMARK INTRA:                  -0.589
REMARK UNBOUND:                -0.703
REMARK  Name = 
REMARK  6 active torsions:
REMARK  status: ('A' for Active; 'I' for Inactive)
REMARK    1  A    between atoms: C_2  and  C_3
REMARK    2  A    between atoms: C_2  and  O_7
REMARK    3  A    between atoms: O_7  and  C_8
REMARK    4  A    between atoms: C_8  and  O_9
REMARK    5  A    between atoms: N_10  and  C_11
REMARK    6  A    between atoms: C_11  and  C_12
REMARK                            x       y       z     vdW  Elec       q    Type
REMARK                         _______ _______ _______ _____ _____    ______ ____
ROOT
ATOM      1  C   UNL     1     -18.328  40.533 -10.518  0.00  0.00    +0.699 C 
ATOM      2  N   UNL     1     -18.671  41.113 -11.605  0.00  0.00    -0.397 NA
ENDROOT
BRANCH   1   3
ATOM      3  O   UNL     1     -17.051  40.474 -10.086  0.00  0.00    -0.607 OA
ATOM      4  H   UNL     1     -16.421  40.249 -10.797  0.00  0.00    +0.384 HD
ENDBRANCH   1   3
BRANCH   1   5
ATOM      5  O   UNL     1     -19.289  39.949  -9.766  0.00  0.00    -0.548 OA
BRANCH   5   7
ATOM      6  O   UNL     1     -18.914  41.015  -7.776  0.00  0.00    -0.520 OA
ATOM      7  C   UNL     1     -19.653  40.461  -8.581  0.00  0.00    +0.614 C 
BRANCH   7   8
ATOM      8  C   UNL     1     -21.089  40.295  -8.313  0.00  0.00    -0.028 C 
ATOM      9  C   UNL     1     -21.886  41.211  -7.762  0.00  0.00    +0.464 C 
ATOM     10  F   UNL     1     -21.432  42.423  -7.383  0.00  0.00    -0.272 F 
ATOM     11  F   UNL     1     -23.190  40.913  -7.577  0.00  0.00    -0.290 F 
ENDBRANCH   7   8
ENDBRANCH   5   7
ENDBRANCH   1   5
BRANCH   2  12
ATOM     12  C   UNL     1     -17.597  41.721 -12.385  0.00  0.00    +0.323 C 
BRANCH  12  13
ATOM     13  C   UNL     1     -17.782  43.213 -12.472  0.00  0.00    +0.028 C 
ATOM     14  C   UNL     1     -18.275  43.802 -13.639  0.00  0.00    +0.014 C 
ATOM     15  C   UNL     1     -18.450  45.182 -13.716  0.00  0.00    +0.032 C 
ATOM     16  C   UNL     1     -18.130  45.985 -12.625  0.00  0.00    +0.030 C 
ATOM     17  C   UNL     1     -17.638  45.410 -11.457  0.00  0.00    +0.031 C 
ATOM     18  C   UNL     1     -17.466  44.029 -11.381  0.00  0.00    +0.045 C 
ENDBRANCH  12  13
ENDBRANCH   2  12
TORSDOF 6
ENDMDL
MODEL 5
REMARK VINA RESULT:    -6.120      3.894      5.041
REMARK INTER + INTRA:          -8.791
REMARK INTER:                  -8.372
REMARK INTRA:                  -0.419
REMARK UNBOUND:                -0.703
REMARK  Name = 
REMARK  6 active torsions:
REMARK  status: ('A' for Active; 'I' for Inactive)
REMARK    1  A    between atoms: C_2  and  C_3
REMARK    2  A    between atoms: C_2  and  O_7
REMARK    3  A    between atoms: O_7  and  C_8
REMARK    4  A    between atoms: C_8  and  O_9
REMARK    5  A    between atoms: N_10  and  C_11
REMARK    6  A    between atoms: C_11  and  C_12
REMARK                            x       y       z     vdW  Elec       q    Type
REMARK                         _______ _______ _______ _____ _____    ______ ____
ROOT
ATOM      1  C   UNL     1     -19.570  42.889 -14.595  0.00  0.00    +0.699 C 
ATOM      2  N   UNL     1     -19.483  41.899 -13.789  0.00  0.00    -0.397 NA
ENDROOT
BRANCH   1   3
ATOM      3  O   UNL     1     -18.572  43.779 -14.778  0.00  0.00    -0.607 OA
ATOM      4  H   UNL     1     -18.533  44.121 -15.692  0.00  0.00    +0.384 HD
ENDBRANCH   1   3
BRANCH   1   5
ATOM      5  O   UNL     1     -20.716  43.054 -15.295  0.00  0.00    -0.548 OA
BRANCH   5   7
ATOM      6  O   UNL     1     -20.479  42.016 -17.319  0.00  0.00    -0.520 OA
ATOM      7  C   UNL     1     -20.727  43.001 -16.635  0.00  0.00    +0.614 C 
BRANCH   7   8
ATOM      8  C   UNL     1     -21.078  44.289 -17.247  0.00  0.00    -0.028 C 
ATOM      9  C   UNL     1     -22.258  44.903 -17.139  0.00  0.00    +0.464 C 
ATOM     10  F   UNL     1     -23.277  44.378 -16.431  0.00  0.00    -0.272 F 
ATOM     11  F   UNL     1     -22.433  46.089 -17.760  0.00  0.00    -0.290 F 
ENDBRANCH   7   8
ENDBRANCH   5   7
ENDBRANCH   1   5
BRANCH   2  12
ATOM     12  C   UNL     1     -18.230  41.769 -13.051  0.00  0.00    +0.323 C 
BRANCH  12  13
ATOM     13  C   UNL     1     -18.498  41.551 -11.585  0.00  0.00    +0.028 C 
ATOM     14  C   UNL     1     -17.872  42.347 -10.623  0.00  0.00    +0.014 C 
ATOM     15  C   UNL     1     -18.123  42.148  -9.267  0.00  0.00    +0.032 C 
ATOM     16  C   UNL     1     -19.003  41.147  -8.863  0.00  0.00    +0.030 C 
ATOM     17  C   UNL     1     -19.633  40.348  -9.812  0.00  0.00    +0.031 C 
ATOM     18  C   UNL     1     -19.382  40.551 -11.168  0.00  0.00    +0.045 C 
ENDBRANCH  12  13
ENDBRANCH   2  12
TORSDOF 6
ENDMDL
