MODEL 1
REMARK VINA RESULT:    -8.953      0.000      0.000
REMARK INTER + INTRA:         -11.318
REMARK INTER:                 -11.308
REMARK INTRA:                  -0.010
REMARK UNBOUND:                -0.010
REMARK  Name = 
REMARK  5 active torsions:
REMARK  status: ('A' for Active; 'I' for Inactive)
REMARK    1  A    between atoms: N_1  and  C_2
REMARK    2  A    between atoms: C_5  and  C_6
REMARK    3  A    between atoms: N_8  and  C_9
REMARK    4  A    between atoms: C_9  and  C_10
REMARK    5  A    between atoms: N_20  and  C_21
REMARK                            x       y       z     vdW  Elec       q    Type
REMARK                         _______ _______ _______ _____ _____    ______ ____
ROOT
ATOM      1  C   UNL     1     -17.563  44.674 -11.878  0.00  0.00    +0.482 C 
ATOM      2  C   UNL     1     -17.402  43.805 -10.867  0.00  0.00    -0.059 C 
ATOM      3  C   UNL     1     -17.602  42.329 -10.924  0.00  0.00    +0.145 C 
ATOM      4  C   UNL     1     -18.055  41.803 -12.279  0.00  0.00    -0.002 C 
ATOM      5  C   UNL     1     -17.768  42.763 -13.444  0.00  0.00    +0.270 C 
ATOM      6  N   UNL     1     -17.912  44.214 -13.162  0.00  0.00    -0.573 N 
ATOM      7  C   UNL     1     -18.431  45.129 -14.094  0.00  0.00    +0.666 C 
ATOM      8  O   UNL     1     -18.724  46.294 -13.809  0.00  0.00    -0.569 OA
ATOM      9  N   UNL     1     -18.703  44.655 -15.367  0.00  0.00    -0.677 N 
ATOM     10  H   UNL     1     -18.054  43.942 -15.688  0.00  0.00    +0.332 HD
ENDROOT
BRANCH   9  11
ATOM     11  C   UNL     1     -19.118  45.651 -16.367  0.00  0.00    +0.294 C 
ATOM     12  C   UNL     1     -20.635  45.732 -16.597  0.00  0.00    +0.062 C 
ATOM     13  C   UNL     1     -21.050  44.729 -17.670  0.00  0.00    +0.460 C 
ATOM     14  S   UNL     1     -19.558  44.092 -18.389  0.00  0.00    -0.908 S 
ATOM     15  O   UNL     1     -19.240  42.838 -17.728  0.00  0.00    -0.191 OA
ATOM     16  O   UNL     1     -19.613  44.223 -19.825  0.00  0.00    -0.176 OA
ATOM     17  C   UNL     1     -18.483  45.345 -17.721  0.00  0.00    +0.438 C 
ENDBRANCH   9  11
BRANCH   4  18
ATOM     18  C   UNL     1     -19.465  41.179 -12.225  0.00  0.00    +0.489 C 
ATOM     19  O   UNL     1     -20.178  41.187 -13.233  0.00  0.00    -0.514 OA
ATOM     20  N   UNL     1     -19.952  40.547 -11.119  0.00  0.00    -0.637 N 
ATOM     21  H   UNL     1     -20.916  40.251 -11.201  0.00  0.00    +0.300 HD
BRANCH  20  22
ATOM     22  C   UNL     1     -19.311  40.515  -9.838  0.00  0.00    +0.276 C 
BRANCH  22  23
ATOM     23  C   UNL     1     -20.061  40.948  -8.626  0.00  0.00    +0.041 A 
ATOM     24  C   UNL     1     -19.369  41.757  -7.700  0.00  0.00    +0.030 A 
ATOM     25  C   UNL     1     -20.002  42.253  -6.572  0.00  0.00    +0.056 A 
ATOM     26  C   UNL     1     -21.342  41.955  -6.360  0.00  0.00    +0.041 A 
ATOM     27  C   UNL     1     -22.045  41.177  -7.284  0.00  0.00    +0.050 A 
ATOM     28  C   UNL     1     -21.409  40.681  -8.418  0.00  0.00    +0.033 A 
ENDBRANCH  22  23
ENDBRANCH  20  22
ENDBRANCH   4  18
BRANCH   1  29
ATOM     29  N   UNL     1     -17.464  46.018 -11.582  0.00  0.00    -0.819 N 
ATOM     30  H   UNL     1     -18.273  46.396 -11.100  0.00  0.00    +0.303 HD
ATOM     31  H   UNL     1     -17.251  46.557 -12.430  0.00  0.00    +0.356 HD
ENDBRANCH   1  29
TORSDOF 5
ENDMDL
MODEL 2
REMARK VINA RESULT:    -7.624      1.741      2.171
REMARK INTER + INTRA:          -9.640
REMARK INTER:                 -10.232
REMARK INTRA:                   0.592
REMARK UNBOUND:                -0.010
REMARK  Name = 
REMARK  5 active torsions:
REMARK  status: ('A' for Active; 'I' for Inactive)
REMARK    1  A    between atoms: N_1  and  C_2
REMARK    2  A    between atoms: C_5  and  C_6
REMARK    3  A    between atoms: N_8  and  C_9
REMARK    4  A    between atoms: C_9  and  C_10
REMARK    5  A    between atoms: N_20  and  C_21
REMARK                            x       y       z     vdW  Elec       q    Type
REMARK                         _______ _______ _______ _____ _____    ______ ____
ROOT
ATOM      1  C   UNL     1     -17.732  45.180 -11.987  0.00  0.00    +0.482 C 
ATOM      2  C   UNL     1     -17.614  44.339 -10.945  0.00  0.00    -0.059 C 
ATOM      3  C   UNL     1     -17.663  42.851 -10.996  0.00  0.00    +0.145 C 
ATOM      4  C   UNL     1     -17.894  42.271 -12.386  0.00  0.00    -0.002 C 
ATOM      5  C   UNL     1     -17.559  43.245 -13.527  0.00  0.00    +0.270 C 
ATOM      6  N   UNL     1     -17.875  44.678 -13.294  0.00  0.00    -0.573 N 
ATOM      7  C   UNL     1     -18.361  45.529 -14.300  0.00  0.00    +0.666 C 
ATOM      8  O   UNL     1     -18.796  46.663 -14.076  0.00  0.00    -0.569 OA
ATOM      9  N   UNL     1     -18.427  45.021 -15.587  0.00  0.00    -0.677 N 
ATOM     10  H   UNL     1     -17.679  44.372 -15.812  0.00  0.00    +0.332 HD
ENDROOT
BRANCH   9  11
ATOM     11  C   UNL     1     -18.810  45.963 -16.650  0.00  0.00    +0.294 C 
ATOM     12  C   UNL     1     -18.674  45.409 -18.076  0.00  0.00    +0.062 C 
ATOM     13  C   UNL     1     -17.260  45.659 -18.595  0.00  0.00    +0.460 C 
ATOM     14  S   UNL     1     -16.462  46.731 -17.429  0.00  0.00    -0.908 S 
ATOM     15  O   UNL     1     -15.686  45.906 -16.517  0.00  0.00    -0.191 OA
ATOM     16  O   UNL     1     -15.901  47.869 -18.115  0.00  0.00    -0.176 OA
ATOM     17  C   UNL     1     -17.949  47.222 -16.582  0.00  0.00    +0.438 C 
ENDBRANCH   9  11
BRANCH   4  18
ATOM     18  C   UNL     1     -19.233  41.514 -12.491  0.00  0.00    +0.489 C 
ATOM     19  O   UNL     1     -19.923  41.625 -13.509  0.00  0.00    -0.514 OA
ATOM     20  N   UNL     1     -19.676  40.657 -11.526  0.00  0.00    -0.637 N 
ATOM     21  H   UNL     1     -20.602  40.287 -11.694  0.00  0.00    +0.300 HD
BRANCH  20  22
ATOM     22  C   UNL     1     -19.062  40.469 -10.246  0.00  0.00    +0.276 C 
BRANCH  22  23
ATOM     23  C   UNL     1     -19.710  41.027  -9.026  0.00  0.00    +0.041 A 
ATOM     24  C   UNL     1     -21.031  40.612  -8.757  0.00  0.00    +0.030 A 
ATOM     25  C   UNL     1     -21.694  41.034  -7.616  0.00  0.00    +0.056 A 
ATOM     26  C   UNL     1     -21.038  41.870  -6.722  0.00  0.00    +0.041 A 
ATOM     27  C   UNL     1     -19.721  42.267  -6.964  0.00  0.00    +0.050 A 
ATOM     28  C   UNL     1     -19.055  41.841  -8.110  0.00  0.00    +0.033 A 
ENDBRANCH  22  23
ENDBRANCH  20  22
ENDBRANCH   4  18
BRANCH   1  29
ATOM     29  N   UNL     1     -17.798  46.530 -11.708  0.00  0.00    -0.819 N 
ATOM     30  H   UNL     1     -16.916  46.936 -11.415  0.00  0.00    +0.303 HD
ATOM     31  H   UNL     1     -18.539  46.719 -11.023  0.00  0.00    +0.356 HD
ENDBRANCH   1  29
TORSDOF 5
ENDMDL
MODEL 3
REMARK VINA RESULT:    -7.261      2.874      3.515
REMARK INTER + INTRA:          -9.182
REMARK INTER:                  -8.658
REMARK INTRA:                  -0.524
REMARK UNBOUND:                -0.010
REMARK  Name = 
REMARK  5 active torsions:
REMARK  status: ('A' for Active; 'I' for Inactive)
REMARK    1  A    between atoms: N_1  and  C_2
REMARK    2  A    between atoms: C_5  and  C_6
REMARK    3  A    between atoms: N_8  and  C_9
REMARK    4  A    between atoms: C_9  and  C_10
REMARK    5  A    between atoms: N_20  and  C_21
REMARK                            x       y       z     vdW  Elec       q    Type
REMARK                         _______ _______ _______ _____ _____    ______ ____
ROOT
ATOM      1  C   UNL     1     -17.729  46.848 -13.051  0.00  0.00    +0.482 C 
ATOM      2  C   UNL     1     -17.887  46.208 -11.882  0.00  0.00    -0.059 C 
ATOM      3  C   UNL     1     -17.620  44.765 -11.617  0.00  0.00    +0.145 C 
ATOM      4  C   UNL     1     -17.142  43.976 -12.828  0.00  0.00    -0.002 C 
ATOM      5  C   UNL     1     -16.566  44.853 -13.951  0.00  0.00    +0.270 C 
ATOM      6  N   UNL     1     -17.223  46.167 -14.174  0.00  0.00    -0.573 N 
ATOM      7  C   UNL     1     -17.409  46.725 -15.449  0.00  0.00    +0.666 C 
ATOM      8  O   UNL     1     -18.110  47.720 -15.659  0.00  0.00    -0.569 OA
ATOM      9  N   UNL     1     -16.841  46.060 -16.524  0.00  0.00    -0.677 N 
ATOM     10  H   UNL     1     -15.955  45.612 -16.309  0.00  0.00    +0.332 HD
ENDROOT
BRANCH   9  11
ATOM     11  C   UNL     1     -16.930  46.725 -17.833  0.00  0.00    +0.294 C 
ATOM     12  C   UNL     1     -16.464  45.867 -19.019  0.00  0.00    +0.062 C 
ATOM     13  C   UNL     1     -14.961  46.038 -19.223  0.00  0.00    +0.460 C 
ATOM     14  S   UNL     1     -14.444  47.370 -18.173  0.00  0.00    -0.908 S 
ATOM     15  O   UNL     1     -13.934  46.797 -16.938  0.00  0.00    -0.191 OA
ATOM     16  O   UNL     1     -13.705  48.341 -18.943  0.00  0.00    -0.176 OA
ATOM     17  C   UNL     1     -16.080  47.994 -17.846  0.00  0.00    +0.438 C 
ENDBRANCH   9  11
BRANCH   4  18
ATOM     18  C   UNL     1     -18.145  42.882 -13.248  0.00  0.00    +0.489 C 
ATOM     19  O   UNL     1     -18.815  43.025 -14.275  0.00  0.00    -0.514 OA
ATOM     20  N   UNL     1     -18.286  41.708 -12.568  0.00  0.00    -0.637 N 
ATOM     21  H   UNL     1     -19.030  41.116 -12.913  0.00  0.00    +0.300 HD
BRANCH  20  22
ATOM     22  C   UNL     1     -17.664  41.402 -11.315  0.00  0.00    +0.276 C 
BRANCH  22  23
ATOM     23  C   UNL     1     -18.507  41.184 -10.105  0.00  0.00    +0.041 A 
ATOM     24  C   UNL     1     -18.338  42.090  -9.037  0.00  0.00    +0.030 A 
ATOM     25  C   UNL     1     -19.117  41.999  -7.895  0.00  0.00    +0.056 A 
ATOM     26  C   UNL     1     -20.085  41.007  -7.811  0.00  0.00    +0.041 A 
ATOM     27  C   UNL     1     -20.280  40.121  -8.874  0.00  0.00    +0.050 A 
ATOM     28  C   UNL     1     -19.498  40.213 -10.021  0.00  0.00    +0.033 A 
ENDBRANCH  22  23
ENDBRANCH  20  22
ENDBRANCH   4  18
BRANCH   1  29
ATOM     29  N   UNL     1     -18.166  48.155 -13.123  0.00  0.00    -0.819 N 
ATOM     30  H   UNL     1     -18.239  48.516 -14.069  0.00  0.00    +0.303 HD
ATOM     31  H   UNL     1     -17.580  48.762 -12.538  0.00  0.00    +0.356 HD
ENDBRANCH   1  29
TORSDOF 5
ENDMDL
MODEL 4
REMARK VINA RESULT:    -7.168     16.757     19.713
REMARK INTER + INTRA:          -9.064
REMARK INTER:                  -7.890
REMARK INTRA:                  -1.174
REMARK UNBOUND:                -0.010
REMARK  Name = 
REMARK  5 active torsions:
REMARK  status: ('A' for Active; 'I' for Inactive)
REMARK    1  A    between atoms: N_1  and  C_2
REMARK    2  A    between atoms: C_5  and  C_6
REMARK    3  A    between atoms: N_8  and  C_9
REMARK    4  A    between atoms: C_9  and  C_10
REMARK    5  A    between atoms: N_20  and  C_21
REMARK                            x       y       z     vdW  Elec       q    Type
REMARK                         _______ _______ _______ _____ _____    ______ ____
ROOT
ATOM      1  C   UNL     1     -28.948  46.930   1.667  0.00  0.00    +0.482 C 
ATOM      2  C   UNL     1     -28.049  46.729   0.690  0.00  0.00    -0.059 C 
ATOM      3  C   UNL     1     -27.502  45.416   0.243  0.00  0.00    +0.145 C 
ATOM      4  C   UNL     1     -28.028  44.214   1.017  0.00  0.00    -0.002 C 
ATOM      5  C   UNL     1     -29.344  44.485   1.762  0.00  0.00    +0.270 C 
ATOM      6  N   UNL     1     -29.508  45.837   2.355  0.00  0.00    -0.573 N 
ATOM      7  C   UNL     1     -30.142  46.062   3.588  0.00  0.00    +0.666 C 
ATOM      8  O   UNL     1     -30.122  47.150   4.172  0.00  0.00    -0.569 OA
ATOM      9  N   UNL     1     -30.738  44.974   4.205  0.00  0.00    -0.677 N 
ATOM     10  H   UNL     1     -31.147  44.307   3.558  0.00  0.00    +0.332 HD
ENDROOT
BRANCH   9  11
ATOM     11  C   UNL     1     -31.510  45.250   5.427  0.00  0.00    +0.294 C 
ATOM     12  C   UNL     1     -31.493  44.117   6.464  0.00  0.00    +0.062 C 
ATOM     13  C   UNL     1     -32.622  43.132   6.174  0.00  0.00    +0.460 C 
ATOM     14  S   UNL     1     -33.643  43.868   4.924  0.00  0.00    -0.908 S 
ATOM     15  O   UNL     1     -33.224  43.344   3.634  0.00  0.00    -0.191 OA
ATOM     16  O   UNL     1     -35.020  43.866   5.353  0.00  0.00    -0.176 OA
ATOM     17  C   UNL     1     -32.975  45.511   5.084  0.00  0.00    +0.438 C 
ENDBRANCH   9  11
BRANCH   4  18
ATOM     18  C   UNL     1     -26.917  43.495   1.809  0.00  0.00    +0.489 C 
ATOM     19  O   UNL     1     -26.267  44.115   2.655  0.00  0.00    -0.514 OA
ATOM     20  N   UNL     1     -26.653  42.164   1.669  0.00  0.00    -0.637 N 
ATOM     21  H   UNL     1     -25.851  41.843   2.197  0.00  0.00    +0.300 HD
BRANCH  20  22
ATOM     22  C   UNL     1     -27.237  41.307   0.682  0.00  0.00    +0.276 C 
BRANCH  22  23
ATOM     23  C   UNL     1     -28.391  40.437   1.047  0.00  0.00    +0.041 A 
ATOM     24  C   UNL     1     -28.094  39.124   1.468  0.00  0.00    +0.030 A 
ATOM     25  C   UNL     1     -29.098  38.263   1.881  0.00  0.00    +0.056 A 
ATOM     26  C   UNL     1     -30.413  38.709   1.888  0.00  0.00    +0.041 A 
ATOM     27  C   UNL     1     -30.716  40.016   1.499  0.00  0.00    +0.050 A 
ATOM     28  C   UNL     1     -29.707  40.881   1.086  0.00  0.00    +0.033 A 
ENDBRANCH  22  23
ENDBRANCH  20  22
ENDBRANCH   4  18
BRANCH   1  29
ATOM     29  N   UNL     1     -29.220  48.236   2.020  0.00  0.00    -0.819 N 
ATOM     30  H   UNL     1     -28.534  48.905   1.689  0.00  0.00    +0.303 HD
ATOM     31  H   UNL     1     -29.354  48.312   3.035  0.00  0.00    +0.356 HD
ENDBRANCH   1  29
TORSDOF 5
ENDMDL
MODEL 5
REMARK VINA RESULT:    -7.024      3.267      7.124
REMARK INTER + INTRA:          -8.882
REMARK INTER:                  -7.691
REMARK INTRA:                  -1.191
REMARK UNBOUND:                -0.010
REMARK  Name = 
REMARK  5 active torsions:
REMARK  status: ('A' for Active; 'I' for Inactive)
REMARK    1  A    between atoms: N_1  and  C_2
REMARK    2  A    between atoms: C_5  and  C_6
REMARK    3  A    between atoms: N_8  and  C_9
REMARK    4  A    between atoms: C_9  and  C_10
REMARK    5  A    between atoms: N_20  and  C_21
REMARK                            x       y       z     vdW  Elec       q    Type
REMARK                         _______ _______ _______ _____ _____    ______ ____
ROOT
ATOM      1  C   UNL     1     -19.543  45.171 -15.795  0.00  0.00    +0.482 C 
ATOM      2  C   UNL     1     -19.316  46.481 -15.990  0.00  0.00    -0.059 C 
ATOM      3  C   UNL     1     -18.286  47.314 -15.306  0.00  0.00    +0.145 C 
ATOM      4  C   UNL     1     -17.447  46.568 -14.277  0.00  0.00    -0.002 C 
ATOM      5  C   UNL     1     -17.460  45.041 -14.457  0.00  0.00    +0.270 C 
ATOM      6  N   UNL     1     -18.740  44.435 -14.904  0.00  0.00    -0.573 N 
ATOM      7  C   UNL     1     -19.206  43.194 -14.436  0.00  0.00    +0.666 C 
ATOM      8  O   UNL     1     -20.344  42.769 -14.659  0.00  0.00    -0.569 OA
ATOM      9  N   UNL     1     -18.362  42.468 -13.612  0.00  0.00    -0.677 N 
ATOM     10  H   UNL     1     -17.377  42.567 -13.841  0.00  0.00    +0.332 HD
ENDROOT
BRANCH   9  11
ATOM     11  C   UNL     1     -18.807  41.116 -13.240  0.00  0.00    +0.294 C 
ATOM     12  C   UNL     1     -19.478  41.021 -11.861  0.00  0.00    +0.062 C 
ATOM     13  C   UNL     1     -18.421  40.787 -10.785  0.00  0.00    +0.460 C 
ATOM     14  S   UNL     1     -16.895  40.449 -11.623  0.00  0.00    -0.908 S 
ATOM     15  O   UNL     1     -16.142  41.690 -11.706  0.00  0.00    -0.191 OA
ATOM     16  O   UNL     1     -16.322  39.224 -11.121  0.00  0.00    -0.176 OA
ATOM     17  C   UNL     1     -17.624  40.150 -13.221  0.00  0.00    +0.438 C 
ENDBRANCH   9  11
BRANCH   4  18
ATOM     18  C   UNL     1     -17.664  47.100 -12.846  0.00  0.00    +0.489 C 
ATOM     19  O   UNL     1     -18.805  47.148 -12.375  0.00  0.00    -0.514 OA
ATOM     20  N   UNL     1     -16.635  47.465 -12.029  0.00  0.00    -0.637 N 
ATOM     21  H   UNL     1     -16.928  47.863 -11.146  0.00  0.00    +0.300 HD
BRANCH  20  22
ATOM     22  C   UNL     1     -15.262  47.561 -12.425  0.00  0.00    +0.276 C 
BRANCH  22  23
ATOM     23  C   UNL     1     -14.304  46.488 -12.038  0.00  0.00    +0.041 A 
ATOM     24  C   UNL     1     -13.042  46.899 -11.560  0.00  0.00    +0.030 A 
ATOM     25  C   UNL     1     -12.107  45.974 -11.124  0.00  0.00    +0.056 A 
ATOM     26  C   UNL     1     -12.428  44.623 -11.149  0.00  0.00    +0.041 A 
ATOM     27  C   UNL     1     -13.685  44.206 -11.595  0.00  0.00    +0.050 A 
ATOM     28  C   UNL     1     -14.623  45.136 -12.031  0.00  0.00    +0.033 A 
ENDBRANCH  22  23
ENDBRANCH  20  22
ENDBRANCH   4  18
BRANCH   1  29
ATOM     29  N   UNL     1     -20.637  44.617 -16.427  0.00  0.00    -0.819 N 
ATOM     30  H   UNL     1     -21.009  43.794 -15.963  0.00  0.00    +0.303 HD
ATOM     31  H   UNL     1     -20.422  44.422 -17.411  0.00  0.00    +0.356 HD
ENDBRANCH   1  29
TORSDOF 5
ENDMDL
