MODEL 1
REMARK VINA RESULT:    -6.676      0.000      0.000
REMARK INTER + INTRA:          -8.461
REMARK INTER:                  -8.237
REMARK INTRA:                  -0.224
REMARK UNBOUND:                -0.224
REMARK  Name = 
REMARK  4 active torsions:
REMARK  status: ('A' for Active; 'I' for Inactive)
REMARK    1  A    between atoms: C_5  and  C_6
REMARK    2  A    between atoms: N_8  and  C_9
REMARK    3  A    between atoms: C_9  and  C_10
REMARK    4  A    between atoms: C_10  and  C_11
REMARK                            x       y       z     vdW  Elec       q    Type
REMARK                         _______ _______ _______ _____ _____    ______ ____
ROOT
ATOM      1  C   UNL     1     -18.477  42.251 -13.111  0.00  0.00    +0.615 C 
ATOM      2  O   UNL     1     -17.351  42.514 -13.523  0.00  0.00    -0.446 OA
ATOM      3  N   UNL     1     -19.622  42.435 -13.855  0.00  0.00    -0.669 N 
ATOM      4  H   UNL     1     -20.507  42.201 -13.419  0.00  0.00    +0.331 HD
ENDROOT
BRANCH   1   9
ATOM      5  N   UNL     1     -19.355  40.173  -7.894  0.00  0.00    -0.485 NA
ATOM      6  C   UNL     1     -19.263  40.505  -9.125  0.00  0.00    +0.507 C 
ATOM      7  C   UNL     1     -18.258  41.514  -9.454  0.00  0.00    -0.046 C 
ATOM      8  C   UNL     1     -18.045  42.003 -10.533  0.00  0.00    +0.124 C 
ATOM      9  C   UNL     1     -18.724  41.709 -11.765  0.00  0.00    -0.155 C 
ATOM     10  C   UNL     1     -19.608  40.792 -11.457  0.00  0.00    +0.327 C 
ATOM     11  N   UNL     1     -19.986  40.073 -10.231  0.00  0.00    -0.605 N 
ATOM     12  H   UNL     1     -18.674  40.679  -7.318  0.00  0.00    +0.326 HD
ATOM     13  H   UNL     1     -20.788  39.471 -10.103  0.00  0.00    +0.361 HD
ENDBRANCH   1   9
BRANCH   3  14
ATOM     14  C   UNL     1     -19.754  42.918 -15.104  0.00  0.00    +0.333 C 
BRANCH  14  15
ATOM     15  C   UNL     1     -20.011  43.466 -16.500  0.00  0.00    +0.025 C 
BRANCH  15  16
ATOM     16  C   UNL     1     -20.152  43.811 -17.868  0.00  0.00    -0.027 C 
ATOM     17  C   UNL     1     -19.026  44.220 -18.569  0.00  0.00    +0.103 C 
ATOM     18  C   UNL     1     -19.127  44.522 -19.919  0.00  0.00    +0.025 C 
ATOM     19  C   UNL     1     -20.366  44.407 -20.545  0.00  0.00    +0.316 C 
ATOM     20  N   UNL     1     -21.430  44.011 -19.829  0.00  0.00    -0.618 N 
ATOM     21  C   UNL     1     -21.374  43.708 -18.522  0.00  0.00    +0.314 C 
ATOM     22  H   UNL     1     -22.327  43.932 -20.309  0.00  0.00    +0.344 HD
ENDBRANCH  15  16
ENDBRANCH  14  15
ENDBRANCH   3  14
TORSDOF 4
ENDMDL
MODEL 2
REMARK VINA RESULT:    -5.912      2.905      3.584
REMARK INTER + INTRA:          -7.519
REMARK INTER:                  -7.303
REMARK INTRA:                  -0.215
REMARK UNBOUND:                -0.224
REMARK  Name = 
REMARK  4 active torsions:
REMARK  status: ('A' for Active; 'I' for Inactive)
REMARK    1  A    between atoms: C_5  and  C_6
REMARK    2  A    between atoms: N_8  and  C_9
REMARK    3  A    between atoms: C_9  and  C_10
REMARK    4  A    between atoms: C_10  and  C_11
REMARK                            x       y       z     vdW  Elec       q    Type
REMARK                         _______ _______ _______ _____ _____    ______ ____
ROOT
ATOM      1  C   UNL     1     -18.999  43.179 -13.911  0.00  0.00    +0.615 C 
ATOM      2  O   UNL     1     -19.193  44.258 -13.360  0.00  0.00    -0.446 OA
ATOM      3  N   UNL     1     -19.554  42.832 -15.124  0.00  0.00    -0.669 N 
ATOM      4  H   UNL     1     -19.344  41.910 -15.489  0.00  0.00    +0.331 HD
ENDROOT
BRANCH   1   9
ATOM      5  N   UNL     1     -15.771  39.090 -11.639  0.00  0.00    -0.485 NA
ATOM      6  C   UNL     1     -16.377  40.126 -12.078  0.00  0.00    +0.507 C 
ATOM      7  C   UNL     1     -17.713  39.912 -12.632  0.00  0.00    -0.046 C 
ATOM      8  C   UNL     1     -18.428  40.734 -13.143  0.00  0.00    +0.124 C 
ATOM      9  C   UNL     1     -18.146  42.131 -13.327  0.00  0.00    -0.155 C 
ATOM     10  C   UNL     1     -16.955  42.310 -12.811  0.00  0.00    +0.327 C 
ATOM     11  N   UNL     1     -15.967  41.452 -12.138  0.00  0.00    -0.605 N 
ATOM     12  H   UNL     1     -16.347  38.249 -11.738  0.00  0.00    +0.326 HD
ATOM     13  H   UNL     1     -15.015  41.695 -11.899  0.00  0.00    +0.361 HD
ENDBRANCH   1   9
BRANCH   3  14
ATOM     14  C   UNL     1     -20.381  43.544 -15.912  0.00  0.00    +0.333 C 
BRANCH  14  15
ATOM     15  C   UNL     1     -21.400  44.307 -16.746  0.00  0.00    +0.025 C 
BRANCH  15  16
ATOM     16  C   UNL     1     -22.405  45.104 -17.349  0.00  0.00    -0.027 C 
ATOM     17  C   UNL     1     -23.719  44.944 -16.931  0.00  0.00    +0.103 C 
ATOM     18  C   UNL     1     -24.716  45.742 -17.472  0.00  0.00    +0.025 C 
ATOM     19  C   UNL     1     -24.373  46.694 -18.430  0.00  0.00    +0.316 C 
ATOM     20  N   UNL     1     -23.090  46.814 -18.807  0.00  0.00    -0.618 N 
ATOM     21  C   UNL     1     -22.096  46.062 -18.307  0.00  0.00    +0.314 C 
ATOM     22  H   UNL     1     -22.862  47.518 -19.509  0.00  0.00    +0.344 HD
ENDBRANCH  15  16
ENDBRANCH  14  15
ENDBRANCH   3  14
TORSDOF 4
ENDMDL
MODEL 3
REMARK VINA RESULT:    -5.464      5.891      8.260
REMARK INTER + INTRA:          -6.966
REMARK INTER:                  -6.755
REMARK INTRA:                  -0.211
REMARK UNBOUND:                -0.224
REMARK  Name = 
REMARK  4 active torsions:
REMARK  status: ('A' for Active; 'I' for Inactive)
REMARK    1  A    between atoms: C_5  and  C_6
REMARK    2  A    between atoms: N_8  and  C_9
REMARK    3  A    between atoms: C_9  and  C_10
REMARK    4  A    between atoms: C_10  and  C_11
REMARK                            x       y       z     vdW  Elec       q    Type
REMARK                         _______ _______ _______ _____ _____    ______ ____
ROOT
ATOM      1  C   UNL     1     -15.962  42.628 -11.918  0.00  0.00    +0.615 C 
ATOM      2  O   UNL     1     -16.203  43.748 -12.356  0.00  0.00    -0.446 OA
ATOM      3  N   UNL     1     -14.733  42.252 -11.421  0.00  0.00    -0.669 N 
ATOM      4  H   UNL     1     -14.630  41.297 -11.096  0.00  0.00    +0.331 HD
ENDROOT
BRANCH   1   9
ATOM      5  N   UNL     1     -19.824  38.463 -11.703  0.00  0.00    -0.485 NA
ATOM      6  C   UNL     1     -18.955  39.372 -11.932  0.00  0.00    +0.507 C 
ATOM      7  C   UNL     1     -18.275  39.929 -10.763  0.00  0.00    -0.046 C 
ATOM      8  C   UNL     1     -17.468  40.822 -10.749  0.00  0.00    +0.124 C 
ATOM      9  C   UNL     1     -16.971  41.556 -11.880  0.00  0.00    -0.155 C 
ATOM     10  C   UNL     1     -17.576  41.034 -12.919  0.00  0.00    +0.327 C 
ATOM     11  N   UNL     1     -18.547  39.949 -13.128  0.00  0.00    -0.605 N 
ATOM     12  H   UNL     1     -19.896  38.256 -10.702  0.00  0.00    +0.326 HD
ATOM     13  H   UNL     1     -19.038  39.730 -13.984  0.00  0.00    +0.361 HD
ENDBRANCH   1   9
BRANCH   3  14
ATOM     14  C   UNL     1     -13.603  42.975 -11.321  0.00  0.00    +0.333 C 
BRANCH  14  15
ATOM     15  C   UNL     1     -12.301  43.764 -11.312  0.00  0.00    +0.025 C 
BRANCH  15  16
ATOM     16  C   UNL     1     -11.121  44.526 -11.502  0.00  0.00    -0.027 C 
ATOM     17  C   UNL     1      -9.898  43.870 -11.489  0.00  0.00    +0.103 C 
ATOM     18  C   UNL     1      -8.731  44.584 -11.716  0.00  0.00    +0.025 C 
ATOM     19  C   UNL     1      -8.814  45.955 -11.955  0.00  0.00    +0.316 C 
ATOM     20  N   UNL     1     -10.017  46.550 -11.956  0.00  0.00    -0.618 N 
ATOM     21  C   UNL     1     -11.170  45.894 -11.742  0.00  0.00    +0.314 C 
ATOM     22  H   UNL     1     -10.054  47.553 -12.134  0.00  0.00    +0.344 HD
ENDBRANCH  15  16
ENDBRANCH  14  15
ENDBRANCH   3  14
TORSDOF 4
ENDMDL
MODEL 4
REMARK VINA RESULT:    -5.388      5.478      7.932
REMARK INTER + INTRA:          -6.872
REMARK INTER:                  -6.671
REMARK INTRA:                  -0.201
REMARK UNBOUND:                -0.224
REMARK  Name = 
REMARK  4 active torsions:
REMARK  status: ('A' for Active; 'I' for Inactive)
REMARK    1  A    between atoms: C_5  and  C_6
REMARK    2  A    between atoms: N_8  and  C_9
REMARK    3  A    between atoms: C_9  and  C_10
REMARK    4  A    between atoms: C_10  and  C_11
REMARK                            x       y       z     vdW  Elec       q    Type
REMARK                         _______ _______ _______ _____ _____    ______ ____
ROOT
ATOM      1  C   UNL     1     -16.643  42.769 -11.429  0.00  0.00    +0.615 C 
ATOM      2  O   UNL     1     -16.843  43.605 -12.304  0.00  0.00    -0.446 OA
ATOM      3  N   UNL     1     -15.396  42.483 -10.917  0.00  0.00    -0.669 N 
ATOM      4  H   UNL     1     -15.334  41.765 -10.205  0.00  0.00    +0.331 HD
ENDROOT
BRANCH   1   9
ATOM      5  N   UNL     1     -20.789  39.699  -9.042  0.00  0.00    -0.485 NA
ATOM      6  C   UNL     1     -19.887  40.290  -9.728  0.00  0.00    +0.507 C 
ATOM      7  C   UNL     1     -18.979  41.168  -8.991  0.00  0.00    -0.046 C 
ATOM      8  C   UNL     1     -18.102  41.854  -9.447  0.00  0.00    +0.124 C 
ATOM      9  C   UNL     1     -17.727  41.974 -10.829  0.00  0.00    -0.155 C 
ATOM     10  C   UNL     1     -18.537  41.170 -11.473  0.00  0.00    +0.327 C 
ATOM     11  N   UNL     1     -19.626  40.256 -11.093  0.00  0.00    -0.605 N 
ATOM     12  H   UNL     1     -20.718  39.935  -8.048  0.00  0.00    +0.326 HD
ATOM     13  H   UNL     1     -20.266  39.782 -11.715  0.00  0.00    +0.361 HD
ENDBRANCH   1   9
BRANCH   3  14
ATOM     14  C   UNL     1     -14.204  43.012 -11.247  0.00  0.00    +0.333 C 
BRANCH  14  15
ATOM     15  C   UNL     1     -12.818  43.579 -11.521  0.00  0.00    +0.025 C 
BRANCH  15  16
ATOM     16  C   UNL     1     -11.460  43.968 -11.644  0.00  0.00    -0.027 C 
ATOM     17  C   UNL     1     -10.480  42.988 -11.583  0.00  0.00    +0.103 C 
ATOM     18  C   UNL     1      -9.147  43.335 -11.744  0.00  0.00    +0.025 C 
ATOM     19  C   UNL     1      -8.820  44.671 -11.966  0.00  0.00    +0.316 C 
ATOM     20  N   UNL     1      -9.799  45.588 -12.015  0.00  0.00    -0.618 N 
ATOM     21  C   UNL     1     -11.101  45.293 -11.865  0.00  0.00    +0.314 C 
ATOM     22  H   UNL     1      -9.536  46.559 -12.179  0.00  0.00    +0.344 HD
ENDBRANCH  15  16
ENDBRANCH  14  15
ENDBRANCH   3  14
TORSDOF 4
ENDMDL
MODEL 5
REMARK VINA RESULT:    -5.198      2.306      2.783
REMARK INTER + INTRA:          -6.637
REMARK INTER:                  -6.425
REMARK INTRA:                  -0.212
REMARK UNBOUND:                -0.224
REMARK  Name = 
REMARK  4 active torsions:
REMARK  status: ('A' for Active; 'I' for Inactive)
REMARK    1  A    between atoms: C_5  and  C_6
REMARK    2  A    between atoms: N_8  and  C_9
REMARK    3  A    between atoms: C_9  and  C_10
REMARK    4  A    between atoms: C_10  and  C_11
REMARK                            x       y       z     vdW  Elec       q    Type
REMARK                         _______ _______ _______ _____ _____    ______ ____
ROOT
ATOM      1  C   UNL     1     -18.843  43.677 -14.445  0.00  0.00    +0.615 C 
ATOM      2  O   UNL     1     -18.483  44.776 -14.037  0.00  0.00    -0.446 OA
ATOM      3  N   UNL     1     -19.367  43.464 -15.701  0.00  0.00    -0.669 N 
ATOM      4  H   UNL     1     -19.649  42.520 -15.939  0.00  0.00    +0.331 HD
ENDROOT
BRANCH   1   9
ATOM      5  N   UNL     1     -18.424  38.954 -11.311  0.00  0.00    -0.485 NA
ATOM      6  C   UNL     1     -18.694  39.973 -12.033  0.00  0.00    +0.507 C 
ATOM      7  C   UNL     1     -17.552  40.736 -12.534  0.00  0.00    -0.046 C 
ATOM      8  C   UNL     1     -17.583  41.751 -13.180  0.00  0.00    +0.124 C 
ATOM      9  C   UNL     1     -18.753  42.457 -13.625  0.00  0.00    -0.155 C 
ATOM     10  C   UNL     1     -19.766  41.753 -13.183  0.00  0.00    +0.327 C 
ATOM     11  N   UNL     1     -19.918  40.505 -12.419  0.00  0.00    -0.605 N 
ATOM     12  H   UNL     1     -17.413  38.825 -11.207  0.00  0.00    +0.326 HD
ATOM     13  H   UNL     1     -20.774  40.133 -12.029  0.00  0.00    +0.361 HD
ENDBRANCH   1   9
BRANCH   3  14
ATOM     14  C   UNL     1     -19.594  44.353 -16.686  0.00  0.00    +0.333 C 
BRANCH  14  15
ATOM     15  C   UNL     1     -19.958  45.330 -17.795  0.00  0.00    +0.025 C 
BRANCH  15  16
ATOM     16  C   UNL     1     -20.480  46.247 -18.742  0.00  0.00    -0.027 C 
ATOM     17  C   UNL     1     -19.592  46.988 -19.508  0.00  0.00    +0.103 C 
ATOM     18  C   UNL     1     -20.075  47.860 -20.472  0.00  0.00    +0.025 C 
ATOM     19  C   UNL     1     -21.453  47.971 -20.651  0.00  0.00    +0.316 C 
ATOM     20  N   UNL     1     -22.276  47.237 -19.887  0.00  0.00    -0.618 N 
ATOM     21  C   UNL     1     -21.849  46.382 -18.944  0.00  0.00    +0.314 C 
ATOM     22  H   UNL     1     -23.280  47.334 -20.037  0.00  0.00    +0.344 HD
ENDBRANCH  15  16
ENDBRANCH  14  15
ENDBRANCH   3  14
TORSDOF 4
ENDMDL
