MODEL 1
REMARK VINA RESULT:    -8.948      0.000      0.000
REMARK INTER + INTRA:         -12.143
REMARK INTER:                 -11.302
REMARK INTRA:                  -0.840
REMARK UNBOUND:                -0.840
REMARK  Name = 
REMARK  5 active torsions:
REMARK  status: ('A' for Active; 'I' for Inactive)
REMARK    1  A    between atoms: C_4  and  C_5
REMARK    2  A    between atoms: C_5  and  N_6
REMARK    3  A    between atoms: C_7  and  O_8
REMARK    4  A    between atoms: C_7  and  C_9
REMARK    5  A    between atoms: N_13  and  C_14
REMARK                            x       y       z     vdW  Elec       q    Type
REMARK                         _______ _______ _______ _____ _____    ______ ____
ROOT
ATOM      1  C   UNL     1     -17.560  41.193 -12.006  0.00  0.00    +0.005 C 
ATOM      2  C   UNL     1     -16.804  42.247 -12.810  0.00  0.00    +0.135 C 
ATOM      3  C   UNL     1     -17.709  43.298 -13.457  0.00  0.00    +0.045 C 
ATOM      4  C   UNL     1     -18.966  42.737 -14.031  0.00  0.00    +0.553 C 
ATOM      5  N   UNL     1     -19.551  43.460 -14.974  0.00  0.00    -0.734 N 
ATOM      6  N   UNL     1     -19.411  41.558 -13.627  0.00  0.00    -0.647 N 
ATOM      7  C   UNL     1     -18.649  40.562 -12.858  0.00  0.00    +0.275 C 
ATOM      8  H   UNL     1     -19.217  44.404 -15.138  0.00  0.00    +0.299 HD
ATOM      9  H   UNL     1     -20.402  41.377 -13.774  0.00  0.00    +0.298 HD
ENDROOT
BRANCH   5  10
ATOM     10  C   UNL     1     -20.437  42.952 -15.911  0.00  0.00    +0.259 C 
ATOM     11  C   UNL     1     -20.055  43.039 -17.308  0.00  0.00    -0.073 C 
ATOM     12  C   UNL     1     -20.822  43.864 -18.368  0.00  0.00    +0.148 C 
ATOM     13  N   UNL     1     -22.085  44.639 -18.307  0.00  0.00    -0.550 NA
ATOM     14  C   UNL     1     -22.500  44.213 -16.946  0.00  0.00    +0.152 C 
ATOM     15  C   UNL     1     -21.798  43.420 -15.814  0.00  0.00    -0.077 C 
ATOM     16  H   UNL     1     -22.749  44.324 -19.015  0.00  0.00    +0.277 HD
ENDBRANCH   5  10
BRANCH   1  18
ATOM     17  N   UNL     1     -19.352  41.169 -10.393  0.00  0.00    -0.498 NA
ATOM     18  C   UNL     1     -18.265  41.722 -10.785  0.00  0.00    +0.455 C 
BRANCH  18  19
ATOM     19  O   UNL     1     -17.598  42.682 -10.132  0.00  0.00    -0.618 OA
ATOM     20  H   UNL     1     -17.259  42.347  -9.283  0.00  0.00    +0.307 HD
ENDBRANCH  18  19
BRANCH  17  21
ATOM     21  C   UNL     1     -19.785  41.231  -9.134  0.00  0.00    +0.197 C 
BRANCH  21  25
ATOM     22  N   UNL     1     -21.962  43.723  -6.071  0.00  0.00    -0.557 NA
ATOM     23  C   UNL     1     -22.068  42.618  -6.717  0.00  0.00    +0.433 C 
ATOM     24  C   UNL     1     -20.822  42.032  -7.217  0.00  0.00    -0.080 C 
ATOM     25  C   UNL     1     -20.528  40.974  -7.946  0.00  0.00    -0.016 C 
ATOM     26  C   UNL     1     -21.797  40.273  -8.049  0.00  0.00    -0.050 C 
ATOM     27  C   UNL     1     -22.854  40.708  -7.686  0.00  0.00    +0.159 C 
ATOM     28  N   UNL     1     -23.226  41.968  -6.983  0.00  0.00    -0.386 NA
ATOM     29  H   UNL     1     -20.978  43.982  -5.986  0.00  0.00    +0.285 HD
ENDBRANCH  21  25
ENDBRANCH  17  21
ENDBRANCH   1  18
TORSDOF 5
ENDMDL
MODEL 2
REMARK VINA RESULT:    -8.480      4.088      6.581
REMARK INTER + INTRA:         -11.552
REMARK INTER:                 -10.587
REMARK INTRA:                  -0.964
REMARK UNBOUND:                -0.840
REMARK  Name = 
REMARK  5 active torsions:
REMARK  status: ('A' for Active; 'I' for Inactive)
REMARK    1  A    between atoms: C_4  and  C_5
REMARK    2  A    between atoms: C_5  and  N_6
REMARK    3  A    between atoms: C_7  and  O_8
REMARK    4  A    between atoms: C_7  and  C_9
REMARK    5  A    between atoms: N_13  and  C_14
REMARK                            x       y       z     vdW  Elec       q    Type
REMARK                         _______ _______ _______ _____ _____    ______ ____
ROOT
ATOM      1  C   UNL     1     -17.913  41.349 -11.748  0.00  0.00    +0.005 C 
ATOM      2  C   UNL     1     -17.038  40.319 -12.457  0.00  0.00    +0.135 C 
ATOM      3  C   UNL     1     -15.724  40.020 -11.732  0.00  0.00    +0.045 C 
ATOM      4  C   UNL     1     -15.067  41.229 -11.156  0.00  0.00    +0.553 C 
ATOM      5  N   UNL     1     -13.764  41.137 -10.936  0.00  0.00    -0.734 N 
ATOM      6  N   UNL     1     -15.773  42.326 -10.937  0.00  0.00    -0.647 N 
ATOM      7  C   UNL     1     -17.115  42.613 -11.468  0.00  0.00    +0.275 C 
ATOM      8  H   UNL     1     -13.322  40.226 -11.014  0.00  0.00    +0.299 HD
ATOM      9  H   UNL     1     -15.392  42.978 -10.254  0.00  0.00    +0.298 HD
ENDROOT
BRANCH   5  10
ATOM     10  C   UNL     1     -12.911  42.225 -10.828  0.00  0.00    +0.259 C 
ATOM     11  C   UNL     1     -11.945  42.424 -11.891  0.00  0.00    -0.073 C 
ATOM     12  C   UNL     1     -10.412  42.355 -11.696  0.00  0.00    +0.148 C 
ATOM     13  N   UNL     1      -9.567  42.187 -10.488  0.00  0.00    -0.550 NA
ATOM     14  C   UNL     1     -10.654  42.303  -9.482  0.00  0.00    +0.152 C 
ATOM     15  C   UNL     1     -12.199  42.349  -9.579  0.00  0.00    -0.077 C 
ATOM     16  H   UNL     1      -8.892  42.947 -10.398  0.00  0.00    +0.277 HD
ENDBRANCH   5  10
BRANCH   1  18
ATOM     17  N   UNL     1     -18.421  41.721  -9.421  0.00  0.00    -0.498 NA
ATOM     18  C   UNL     1     -18.443  40.907 -10.410  0.00  0.00    +0.455 C 
BRANCH  18  19
ATOM     19  O   UNL     1     -19.019  39.698 -10.413  0.00  0.00    -0.618 OA
ATOM     20  H   UNL     1     -19.196  39.401  -9.504  0.00  0.00    +0.307 HD
ENDBRANCH  18  19
BRANCH  17  21
ATOM     21  C   UNL     1     -19.248  41.622  -8.380  0.00  0.00    +0.197 C 
BRANCH  21  25
ATOM     22  N   UNL     1     -21.858  43.335  -5.126  0.00  0.00    -0.557 NA
ATOM     23  C   UNL     1     -21.884  42.470  -6.075  0.00  0.00    +0.433 C 
ATOM     24  C   UNL     1     -20.589  41.940  -6.512  0.00  0.00    -0.080 C 
ATOM     25  C   UNL     1     -20.205  41.109  -7.459  0.00  0.00    -0.016 C 
ATOM     26  C   UNL     1     -21.459  40.580  -7.970  0.00  0.00    -0.050 C 
ATOM     27  C   UNL     1     -22.547  40.986  -7.675  0.00  0.00    +0.159 C 
ATOM     28  N   UNL     1     -22.996  42.025  -6.707  0.00  0.00    -0.386 NA
ATOM     29  H   UNL     1     -20.897  43.472  -4.808  0.00  0.00    +0.285 HD
ENDBRANCH  21  25
ENDBRANCH  17  21
ENDBRANCH   1  18
TORSDOF 5
ENDMDL
MODEL 3
REMARK VINA RESULT:    -8.232      2.885      3.631
REMARK INTER + INTRA:         -11.239
REMARK INTER:                 -11.227
REMARK INTRA:                  -0.011
REMARK UNBOUND:                -0.840
REMARK  Name = 
REMARK  5 active torsions:
REMARK  status: ('A' for Active; 'I' for Inactive)
REMARK    1  A    between atoms: C_4  and  C_5
REMARK    2  A    between atoms: C_5  and  N_6
REMARK    3  A    between atoms: C_7  and  O_8
REMARK    4  A    between atoms: C_7  and  C_9
REMARK    5  A    between atoms: N_13  and  C_14
REMARK                            x       y       z     vdW  Elec       q    Type
REMARK                         _______ _______ _______ _____ _____    ______ ____
ROOT
ATOM      1  C   UNL     1     -18.556  40.153 -12.357  0.00  0.00    +0.005 C 
ATOM      2  C   UNL     1     -17.040  39.986 -12.390  0.00  0.00    +0.135 C 
ATOM      3  C   UNL     1     -16.281  41.071 -11.622  0.00  0.00    +0.045 C 
ATOM      4  C   UNL     1     -16.846  42.440 -11.801  0.00  0.00    +0.553 C 
ATOM      5  N   UNL     1     -16.018  43.448 -11.569  0.00  0.00    -0.734 N 
ATOM      6  N   UNL     1     -18.093  42.593 -12.215  0.00  0.00    -0.647 N 
ATOM      7  C   UNL     1     -18.941  41.551 -12.814  0.00  0.00    +0.275 C 
ATOM      8  H   UNL     1     -15.121  43.249 -11.138  0.00  0.00    +0.299 HD
ATOM      9  H   UNL     1     -18.531  43.486 -12.000  0.00  0.00    +0.298 HD
ENDROOT
BRANCH   5  10
ATOM     10  C   UNL     1     -16.186  44.728 -12.075  0.00  0.00    +0.259 C 
ATOM     11  C   UNL     1     -17.251  45.535 -11.510  0.00  0.00    -0.073 C 
ATOM     12  C   UNL     1     -18.476  46.038 -12.308  0.00  0.00    +0.148 C 
ATOM     13  N   UNL     1     -18.838  45.946 -13.744  0.00  0.00    -0.550 NA
ATOM     14  C   UNL     1     -17.550  45.384 -14.225  0.00  0.00    +0.152 C 
ATOM     15  C   UNL     1     -16.291  44.832 -13.510  0.00  0.00    -0.077 C 
ATOM     16  H   UNL     1     -19.015  46.868 -14.142  0.00  0.00    +0.277 HD
ENDBRANCH   5  10
BRANCH   1  18
ATOM     17  N   UNL     1     -19.064  40.939 -10.134  0.00  0.00    -0.498 NA
ATOM     18  C   UNL     1     -19.175  39.994 -10.993  0.00  0.00    +0.455 C 
BRANCH  18  19
ATOM     19  O   UNL     1     -19.913  38.886 -10.844  0.00  0.00    -0.618 OA
ATOM     20  H   UNL     1     -20.797  39.107 -10.503  0.00  0.00    +0.307 HD
ENDBRANCH  18  19
BRANCH  17  21
ATOM     21  C   UNL     1     -19.922  41.110  -9.129  0.00  0.00    +0.197 C 
BRANCH  21  25
ATOM     22  N   UNL     1     -21.974  43.757  -6.109  0.00  0.00    -0.557 NA
ATOM     23  C   UNL     1     -22.114  42.629  -6.707  0.00  0.00    +0.433 C 
ATOM     24  C   UNL     1     -20.891  42.004  -7.218  0.00  0.00    -0.080 C 
ATOM     25  C   UNL     1     -20.633  40.913  -7.911  0.00  0.00    -0.016 C 
ATOM     26  C   UNL     1     -21.915  40.228  -7.950  0.00  0.00    -0.050 C 
ATOM     27  C   UNL     1     -22.954  40.694  -7.575  0.00  0.00    +0.159 C 
ATOM     28  N   UNL     1     -23.288  41.986  -6.913  0.00  0.00    -0.386 NA
ATOM     29  H   UNL     1     -20.984  44.004  -6.063  0.00  0.00    +0.285 HD
ENDBRANCH  21  25
ENDBRANCH  17  21
ENDBRANCH   1  18
TORSDOF 5
ENDMDL
MODEL 4
REMARK VINA RESULT:    -7.417      3.228      7.538
REMARK INTER + INTRA:         -10.209
REMARK INTER:                 -10.061
REMARK INTRA:                  -0.147
REMARK UNBOUND:                -0.840
REMARK  Name = 
REMARK  5 active torsions:
REMARK  status: ('A' for Active; 'I' for Inactive)
REMARK    1  A    between atoms: C_4  and  C_5
REMARK    2  A    between atoms: C_5  and  N_6
REMARK    3  A    between atoms: C_7  and  O_8
REMARK    4  A    between atoms: C_7  and  C_9
REMARK    5  A    between atoms: N_13  and  C_14
REMARK                            x       y       z     vdW  Elec       q    Type
REMARK                         _______ _______ _______ _____ _____    ______ ____
ROOT
ATOM      1  C   UNL     1     -16.817  40.668 -12.176  0.00  0.00    +0.005 C 
ATOM      2  C   UNL     1     -17.924  39.718 -12.623  0.00  0.00    +0.135 C 
ATOM      3  C   UNL     1     -19.304  40.068 -12.061  0.00  0.00    +0.045 C 
ATOM      4  C   UNL     1     -19.279  40.503 -10.635  0.00  0.00    +0.553 C 
ATOM      5  N   UNL     1     -20.415  40.377  -9.965  0.00  0.00    -0.734 N 
ATOM      6  N   UNL     1     -18.153  40.939 -10.094  0.00  0.00    -0.647 N 
ATOM      7  C   UNL     1     -16.803  40.782 -10.660  0.00  0.00    +0.275 C 
ATOM      8  H   UNL     1     -21.260  40.152 -10.482  0.00  0.00    +0.299 HD
ATOM      9  H   UNL     1     -18.248  41.525  -9.268  0.00  0.00    +0.298 HD
ENDROOT
BRANCH   5  10
ATOM     10  C   UNL     1     -20.504  40.304  -8.584  0.00  0.00    +0.259 C 
ATOM     11  C   UNL     1     -21.803  40.544  -7.984  0.00  0.00    -0.073 C 
ATOM     12  C   UNL     1     -22.118  41.724  -7.036  0.00  0.00    +0.148 C 
ATOM     13  N   UNL     1     -21.263  42.781  -6.442  0.00  0.00    -0.550 NA
ATOM     14  C   UNL     1     -19.955  42.237  -6.887  0.00  0.00    +0.152 C 
ATOM     15  C   UNL     1     -19.545  41.091  -7.846  0.00  0.00    -0.077 C 
ATOM     16  H   UNL     1     -21.337  42.791  -5.425  0.00  0.00    +0.277 HD
ENDBRANCH   5  10
BRANCH   1  18
ATOM     17  N   UNL     1     -16.556  43.055 -11.954  0.00  0.00    -0.498 NA
ATOM     18  C   UNL     1     -16.958  42.079 -12.682  0.00  0.00    +0.455 C 
BRANCH  18  19
ATOM     19  O   UNL     1     -17.399  42.175 -13.942  0.00  0.00    -0.618 OA
ATOM     20  H   UNL     1     -18.188  41.619 -14.072  0.00  0.00    +0.307 HD
ENDBRANCH  18  19
BRANCH  17  21
ATOM     21  C   UNL     1     -16.205  44.238 -12.457  0.00  0.00    +0.197 C 
BRANCH  21  25
ATOM     22  N   UNL     1     -18.956  46.920 -14.817  0.00  0.00    -0.557 NA
ATOM     23  C   UNL     1     -18.236  46.916 -13.755  0.00  0.00    +0.433 C 
ATOM     24  C   UNL     1     -17.131  45.954 -13.718  0.00  0.00    -0.080 C 
ATOM     25  C   UNL     1     -16.232  45.616 -12.816  0.00  0.00    -0.016 C 
ATOM     26  C   UNL     1     -16.415  46.610 -11.770  0.00  0.00    -0.050 C 
ATOM     27  C   UNL     1     -17.311  47.405 -11.728  0.00  0.00    +0.159 C 
ATOM     28  N   UNL     1     -18.422  47.709 -12.673  0.00  0.00    -0.386 NA
ATOM     29  H   UNL     1     -18.586  46.247 -15.490  0.00  0.00    +0.285 HD
ENDBRANCH  21  25
ENDBRANCH  17  21
ENDBRANCH   1  18
TORSDOF 5
ENDMDL
MODEL 5
REMARK VINA RESULT:    -6.841      3.137      7.628
REMARK INTER + INTRA:          -9.481
REMARK INTER:                  -9.065
REMARK INTRA:                  -0.415
REMARK UNBOUND:                -0.840
REMARK  Name = 
REMARK  5 active torsions:
REMARK  status: ('A' for Active; 'I' for Inactive)
REMARK    1  A    between atoms: C_4  and  C_5
REMARK    2  A    between atoms: C_5  and  N_6
REMARK    3  A    between atoms: C_7  and  O_8
REMARK    4  A    between atoms: C_7  and  C_9
REMARK    5  A    between atoms: N_13  and  C_14
REMARK                            x       y       z     vdW  Elec       q    Type
REMARK                         _______ _______ _______ _____ _____    ______ ____
ROOT
ATOM      1  C   UNL     1     -16.863  45.633 -12.317  0.00  0.00    +0.005 C 
ATOM      2  C   UNL     1     -15.431  45.209 -12.002  0.00  0.00    +0.135 C 
ATOM      3  C   UNL     1     -15.098  43.782 -12.445  0.00  0.00    +0.045 C 
ATOM      4  C   UNL     1     -16.196  42.804 -12.198  0.00  0.00    +0.553 C 
ATOM      5  N   UNL     1     -15.838  41.531 -12.118  0.00  0.00    -0.734 N 
ATOM      6  N   UNL     1     -17.436  43.230 -12.026  0.00  0.00    -0.647 N 
ATOM      7  C   UNL     1     -17.847  44.618 -11.759  0.00  0.00    +0.275 C 
ATOM      8  H   UNL     1     -14.891  41.277 -12.383  0.00  0.00    +0.299 HD
ATOM      9  H   UNL     1     -18.174  42.550 -12.201  0.00  0.00    +0.298 HD
ENDROOT
BRANCH   5  10
ATOM     10  C   UNL     1     -16.583  40.548 -11.486  0.00  0.00    +0.259 C 
ATOM     11  C   UNL     1     -17.501  39.777 -12.303  0.00  0.00    -0.073 C 
ATOM     12  C   UNL     1     -19.037  39.782 -12.125  0.00  0.00    +0.148 C 
ATOM     13  N   UNL     1     -19.922  40.420 -11.120  0.00  0.00    -0.550 NA
ATOM     14  C   UNL     1     -18.854  40.900 -10.208  0.00  0.00    +0.152 C 
ATOM     15  C   UNL     1     -17.309  40.963 -10.310  0.00  0.00    -0.077 C 
ATOM     16  H   UNL     1     -20.522  39.733 -10.664  0.00  0.00    +0.277 HD
ENDBRANCH   5  10
BRANCH   1  18
ATOM     17  N   UNL     1     -18.054  44.947 -14.298  0.00  0.00    -0.498 NA
ATOM     18  C   UNL     1     -17.180  45.732 -13.786  0.00  0.00    +0.455 C 
BRANCH  18  19
ATOM     19  O   UNL     1     -16.579  46.749 -14.416  0.00  0.00    -0.618 OA
ATOM     20  H   UNL     1     -16.526  46.577 -15.372  0.00  0.00    +0.307 HD
ENDBRANCH  18  19
BRANCH  17  21
ATOM     21  C   UNL     1     -18.730  45.241 -15.409  0.00  0.00    +0.197 C 
BRANCH  21  25
ATOM     22  N   UNL     1     -20.774  41.967 -17.739  0.00  0.00    -0.557 NA
ATOM     23  C   UNL     1     -20.865  43.224 -17.495  0.00  0.00    +0.433 C 
ATOM     24  C   UNL     1     -19.634  43.898 -17.073  0.00  0.00    -0.080 C 
ATOM     25  C   UNL     1     -19.338  45.123 -16.691  0.00  0.00    -0.016 C 
ATOM     26  C   UNL     1     -20.561  45.863 -16.958  0.00  0.00    -0.050 C 
ATOM     27  C   UNL     1     -21.606  45.370 -17.278  0.00  0.00    +0.159 C 
ATOM     28  N   UNL     1     -21.996  43.964 -17.580  0.00  0.00    -0.386 NA
ATOM     29  H   UNL     1     -19.807  41.660 -17.628  0.00  0.00    +0.285 HD
ENDBRANCH  21  25
ENDBRANCH  17  21
ENDBRANCH   1  18
TORSDOF 5
ENDMDL
