MODEL 1
REMARK VINA RESULT:    -8.497      0.000      0.000
REMARK INTER + INTRA:          -9.007
REMARK INTER:                  -8.993
REMARK INTRA:                  -0.014
REMARK UNBOUND:                -0.014
REMARK  Name = 
REMARK  1 active torsions:
REMARK  status: ('A' for Active; 'I' for Inactive)
REMARK    1  A    between atoms: C_5  and  C_6
REMARK                            x       y       z     vdW  Elec       q    Type
REMARK                         _______ _______ _______ _____ _____    ______ ____
ROOT
ATOM      1  C   UNL     1     -19.833  40.075  -9.185  0.00  0.00    +0.547 C 
ATOM      2  O   UNL     1     -20.282  38.947  -9.387  0.00  0.00    -0.458 OA
ATOM      3  N   UNL     1     -18.722  40.571  -9.861  0.00  0.00    -0.498 N 
ATOM      4  C   UNL     1     -18.122  41.805  -9.827  0.00  0.00    +0.209 C 
ATOM      5  C   UNL     1     -17.168  42.583 -10.753  0.00  0.00    +0.019 C 
ATOM      6  C   UNL     1     -16.892  41.673 -11.967  0.00  0.00    +0.047 C 
ATOM      7  C   UNL     1     -17.416  40.312 -12.232  0.00  0.00    +0.307 C 
ATOM      8  F   UNL     1     -18.225  40.318 -13.314  0.00  0.00    -0.270 F 
ATOM      9  F   UNL     1     -16.423  39.423 -12.428  0.00  0.00    -0.270 F 
ATOM     10  C   UNL     1     -18.198  40.011 -11.012  0.00  0.00    +0.241 C 
ENDROOT
BRANCH   1  15
ATOM     11  N   UNL     1     -22.581  43.017  -5.193  0.00  0.00    -0.544 NA
ATOM     12  C   UNL     1     -22.116  42.269  -6.121  0.00  0.00    +0.490 C 
ATOM     13  C   UNL     1     -20.662  42.230  -6.255  0.00  0.00    -0.083 C 
ATOM     14  C   UNL     1     -20.018  41.723  -7.141  0.00  0.00    +0.107 C 
ATOM     15  C   UNL     1     -20.531  40.998  -8.271  0.00  0.00    -0.145 C 
ATOM     16  C   UNL     1     -21.833  41.011  -8.100  0.00  0.00    +0.281 C 
ATOM     17  N   UNL     1     -22.785  41.520  -7.087  0.00  0.00    -0.617 N 
ATOM     18  H   UNL     1     -21.821  43.445  -4.652  0.00  0.00    +0.306 HD
ATOM     19  H   UNL     1     -23.728  41.816  -7.305  0.00  0.00    +0.332 HD
ENDBRANCH   1  15
TORSDOF 1
ENDMDL
MODEL 2
REMARK VINA RESULT:    -6.444      3.687      4.926
REMARK INTER + INTRA:          -6.835
REMARK INTER:                  -6.598
REMARK INTRA:                  -0.237
REMARK UNBOUND:                -0.014
REMARK  Name = 
REMARK  1 active torsions:
REMARK  status: ('A' for Active; 'I' for Inactive)
REMARK    1  A    between atoms: C_5  and  C_6
REMARK                            x       y       z     vdW  Elec       q    Type
REMARK                         _______ _______ _______ _____ _____    ______ ____
ROOT
ATOM      1  C   UNL     1     -16.691  42.765 -11.291  0.00  0.00    +0.547 C 
ATOM      2  O   UNL     1     -15.719  42.062 -11.566  0.00  0.00    -0.458 OA
ATOM      3  N   UNL     1     -16.751  44.117 -11.617  0.00  0.00    -0.498 N 
ATOM      4  C   UNL     1     -17.756  45.039 -11.461  0.00  0.00    +0.209 C 
ATOM      5  C   UNL     1     -18.094  46.405 -12.086  0.00  0.00    +0.019 C 
ATOM      6  C   UNL     1     -16.982  46.709 -13.110  0.00  0.00    +0.047 C 
ATOM      7  C   UNL     1     -15.803  45.881 -13.456  0.00  0.00    +0.307 C 
ATOM      8  F   UNL     1     -15.886  45.448 -14.734  0.00  0.00    -0.270 F 
ATOM      9  F   UNL     1     -14.650  46.560 -13.294  0.00  0.00    -0.270 F 
ATOM     10  C   UNL     1     -15.910  44.738 -12.522  0.00  0.00    +0.241 C 
ENDROOT
BRANCH   1  15
ATOM     11  N   UNL     1     -20.898  39.808  -8.904  0.00  0.00    -0.544 NA
ATOM     12  C   UNL     1     -19.976  40.375  -9.587  0.00  0.00    +0.490 C 
ATOM     13  C   UNL     1     -19.044  41.220  -8.845  0.00  0.00    -0.083 C 
ATOM     14  C   UNL     1     -18.204  41.961  -9.294  0.00  0.00    +0.107 C 
ATOM     15  C   UNL     1     -17.892  42.166 -10.681  0.00  0.00    -0.145 C 
ATOM     16  C   UNL     1     -18.712  41.364 -11.320  0.00  0.00    +0.281 C 
ATOM     17  N   UNL     1     -19.749  40.370 -10.962  0.00  0.00    -0.617 N 
ATOM     18  H   UNL     1     -20.794  40.018  -7.906  0.00  0.00    +0.306 HD
ATOM     19  H   UNL     1     -20.551  40.164 -11.545  0.00  0.00    +0.332 HD
ENDBRANCH   1  15
TORSDOF 1
ENDMDL
MODEL 3
REMARK VINA RESULT:    -6.417      1.667      2.076
REMARK INTER + INTRA:          -6.806
REMARK INTER:                  -7.175
REMARK INTRA:                   0.369
REMARK UNBOUND:                -0.014
REMARK  Name = 
REMARK  1 active torsions:
REMARK  status: ('A' for Active; 'I' for Inactive)
REMARK    1  A    between atoms: C_5  and  C_6
REMARK                            x       y       z     vdW  Elec       q    Type
REMARK                         _______ _______ _______ _____ _____    ______ ____
ROOT
ATOM      1  C   UNL     1     -18.488  40.714  -9.721  0.00  0.00    +0.547 C 
ATOM      2  O   UNL     1     -18.386  39.566 -10.151  0.00  0.00    -0.458 OA
ATOM      3  N   UNL     1     -17.834  41.794 -10.309  0.00  0.00    -0.498 N 
ATOM      4  C   UNL     1     -17.874  43.136 -10.026  0.00  0.00    +0.209 C 
ATOM      5  C   UNL     1     -17.522  44.426 -10.790  0.00  0.00    +0.019 C 
ATOM      6  C   UNL     1     -17.021  43.991 -12.182  0.00  0.00    +0.047 C 
ATOM      7  C   UNL     1     -16.886  42.617 -12.720  0.00  0.00    +0.307 C 
ATOM      8  F   UNL     1     -17.742  42.424 -13.748  0.00  0.00    -0.270 F 
ATOM      9  F   UNL     1     -15.630  42.365 -13.139  0.00  0.00    -0.270 F 
ATOM     10  C   UNL     1     -17.269  41.768 -11.571  0.00  0.00    +0.241 C 
ENDROOT
BRANCH   1  15
ATOM     11  N   UNL     1     -22.201  42.492  -5.823  0.00  0.00    -0.544 NA
ATOM     12  C   UNL     1     -21.263  42.229  -6.652  0.00  0.00    +0.490 C 
ATOM     13  C   UNL     1     -21.577  41.267  -7.705  0.00  0.00    -0.083 C 
ATOM     14  C   UNL     1     -20.815  40.761  -8.492  0.00  0.00    +0.107 C 
ATOM     15  C   UNL     1     -19.404  41.011  -8.605  0.00  0.00    -0.145 C 
ATOM     16  C   UNL     1     -19.159  41.909  -7.678  0.00  0.00    +0.281 C 
ATOM     17  N   UNL     1     -19.941  42.668  -6.676  0.00  0.00    -0.617 N 
ATOM     18  H   UNL     1     -23.062  41.996  -6.077  0.00  0.00    +0.306 HD
ATOM     19  H   UNL     1     -19.560  42.984  -5.792  0.00  0.00    +0.332 HD
ENDBRANCH   1  15
TORSDOF 1
ENDMDL
MODEL 4
REMARK VINA RESULT:    -6.258      5.356      7.258
REMARK INTER + INTRA:          -6.638
REMARK INTER:                  -6.446
REMARK INTRA:                  -0.192
REMARK UNBOUND:                -0.014
REMARK  Name = 
REMARK  1 active torsions:
REMARK  status: ('A' for Active; 'I' for Inactive)
REMARK    1  A    between atoms: C_5  and  C_6
REMARK                            x       y       z     vdW  Elec       q    Type
REMARK                         _______ _______ _______ _____ _____    ______ ____
ROOT
ATOM      1  C   UNL     1     -18.761  43.753 -14.246  0.00  0.00    +0.547 C 
ATOM      2  O   UNL     1     -18.048  44.645 -13.787  0.00  0.00    -0.458 OA
ATOM      3  N   UNL     1     -19.524  43.923 -15.397  0.00  0.00    -0.498 N 
ATOM      4  C   UNL     1     -20.315  43.043 -16.094  0.00  0.00    +0.209 C 
ATOM      5  C   UNL     1     -20.887  42.982 -17.523  0.00  0.00    +0.019 C 
ATOM      6  C   UNL     1     -20.393  44.250 -18.250  0.00  0.00    +0.047 C 
ATOM      7  C   UNL     1     -19.539  45.337 -17.720  0.00  0.00    +0.307 C 
ATOM      8  F   UNL     1     -18.349  45.362 -18.362  0.00  0.00    -0.270 F 
ATOM      9  F   UNL     1     -20.131  46.542 -17.840  0.00  0.00    -0.270 F 
ATOM     10  C   UNL     1     -19.347  44.952 -16.304  0.00  0.00    +0.241 C 
ENDROOT
BRANCH   1  15
ATOM     11  N   UNL     1     -18.488  38.944 -11.254  0.00  0.00    -0.544 NA
ATOM     12  C   UNL     1     -18.372  40.029 -11.924  0.00  0.00    +0.490 C 
ATOM     13  C   UNL     1     -19.586  40.823 -12.090  0.00  0.00    -0.083 C 
ATOM     14  C   UNL     1     -19.745  41.787 -12.799  0.00  0.00    +0.107 C 
ATOM     15  C   UNL     1     -18.756  42.411 -13.635  0.00  0.00    -0.145 C 
ATOM     16  C   UNL     1     -17.668  41.705 -13.432  0.00  0.00    +0.281 C 
ATOM     17  N   UNL     1     -17.267  40.554 -12.591  0.00  0.00    -0.617 N 
ATOM     18  H   UNL     1     -19.444  38.837 -10.897  0.00  0.00    +0.306 HD
ATOM     19  H   UNL     1     -16.550  39.890 -12.857  0.00  0.00    +0.332 HD
ENDBRANCH   1  15
TORSDOF 1
ENDMDL
MODEL 5
REMARK VINA RESULT:    -6.212      4.827      6.486
REMARK INTER + INTRA:          -6.588
REMARK INTER:                  -6.353
REMARK INTRA:                  -0.235
REMARK UNBOUND:                -0.014
REMARK  Name = 
REMARK  1 active torsions:
REMARK  status: ('A' for Active; 'I' for Inactive)
REMARK    1  A    between atoms: C_5  and  C_6
REMARK                            x       y       z     vdW  Elec       q    Type
REMARK                         _______ _______ _______ _____ _____    ______ ____
ROOT
ATOM      1  C   UNL     1     -16.665  43.332 -12.636  0.00  0.00    +0.547 C 
ATOM      2  O   UNL     1     -15.530  43.296 -12.163  0.00  0.00    -0.458 OA
ATOM      3  N   UNL     1     -17.120  44.397 -13.409  0.00  0.00    -0.498 N 
ATOM      4  C   UNL     1     -18.307  44.589 -14.072  0.00  0.00    +0.209 C 
ATOM      5  C   UNL     1     -18.784  45.497 -15.221  0.00  0.00    +0.019 C 
ATOM      6  C   UNL     1     -17.566  46.341 -15.650  0.00  0.00    +0.047 C 
ATOM      7  C   UNL     1     -16.193  46.319 -15.094  0.00  0.00    +0.307 C 
ATOM      8  F   UNL     1     -15.315  45.869 -16.019  0.00  0.00    -0.270 F 
ATOM      9  F   UNL     1     -15.804  47.538 -14.672  0.00  0.00    -0.270 F 
ATOM     10  C   UNL     1     -16.299  45.352 -13.978  0.00  0.00    +0.241 C 
ENDROOT
BRANCH   1  15
ATOM     11  N   UNL     1     -19.586  38.582 -11.612  0.00  0.00    -0.544 NA
ATOM     12  C   UNL     1     -18.820  39.552 -11.944  0.00  0.00    +0.490 C 
ATOM     13  C   UNL     1     -18.961  40.784 -11.171  0.00  0.00    -0.083 C 
ATOM     14  C   UNL     1     -18.461  41.858 -11.400  0.00  0.00    +0.107 C 
ATOM     15  C   UNL     1     -17.571  42.179 -12.481  0.00  0.00    -0.145 C 
ATOM     16  C   UNL     1     -17.429  41.046 -13.131  0.00  0.00    +0.281 C 
ATOM     17  N   UNL     1     -17.902  39.651 -12.986  0.00  0.00    -0.617 N 
ATOM     18  H   UNL     1     -20.159  38.831 -10.798  0.00  0.00    +0.306 HD
ATOM     19  H   UNL     1     -18.048  39.026 -13.770  0.00  0.00    +0.332 HD
ENDBRANCH   1  15
TORSDOF 1
ENDMDL
