MODEL 1
REMARK VINA RESULT:    -7.944      0.000      0.000
REMARK INTER + INTRA:          -9.939
REMARK INTER:                  -9.338
REMARK INTRA:                  -0.602
REMARK UNBOUND:                -0.602
REMARK  Name = 
REMARK  4 active torsions:
REMARK  status: ('A' for Active; 'I' for Inactive)
REMARK    1  A    between atoms: C_1  and  C_2
REMARK    2  A    between atoms: C_8  and  O_9
REMARK    3  A    between atoms: O_9  and  C_10
REMARK    4  A    between atoms: C_14  and  C_15
REMARK                            x       y       z     vdW  Elec       q    Type
REMARK                         _______ _______ _______ _____ _____    ______ ____
ROOT
ATOM      1  C   UNL     1     -16.050  40.905 -11.293  0.00  0.00    +0.701 C 
ATOM      2  O   UNL     1     -15.759  39.706 -11.371  0.00  0.00    -0.511 OA
ATOM      3  N   UNL     1     -15.097  41.952 -11.288  0.00  0.00    -0.550 N 
ATOM      4  C   UNL     1     -13.805  41.666 -10.829  0.00  0.00    +0.307 A 
ATOM      5  C   UNL     1     -12.794  42.554 -10.905  0.00  0.00    -0.077 A 
ATOM      6  C   UNL     1     -13.051  43.835 -11.530  0.00  0.00    +0.160 A 
ATOM      7  C   UNL     1     -14.268  44.174 -11.956  0.00  0.00    -0.025 A 
ATOM      8  C   UNL     1     -15.395  43.216 -11.816  0.00  0.00    +0.483 A 
ATOM      9  N   UNL     1     -16.570  43.558 -12.216  0.00  0.00    -0.569 NA
ATOM     10  H   UNL     1     -16.602  44.517 -12.570  0.00  0.00    +0.283 HD
ENDROOT
BRANCH   5  11
ATOM     11  C   UNL     1     -11.452  42.360 -10.241  0.00  0.00    +0.497 C 
ATOM     12  O   UNL     1     -10.931  43.317  -9.662  0.00  0.00    -0.483 OA
ATOM     13  N   UNL     1     -10.848  41.112 -10.311  0.00  0.00    -0.508 N 
ATOM     14  C   UNL     1      -9.707  40.742  -9.639  0.00  0.00    +0.235 C 
ATOM     15  C   UNL     1      -8.656  39.627  -9.769  0.00  0.00    +0.002 C 
ATOM     16  C   UNL     1      -9.079  38.788 -10.991  0.00  0.00    +0.029 C 
ATOM     17  C   UNL     1     -10.244  38.981 -11.881  0.00  0.00    +0.299 C 
ATOM     18  F   UNL     1      -9.847  39.292 -13.135  0.00  0.00    -0.285 F 
ATOM     19  F   UNL     1     -11.027  37.886 -11.924  0.00  0.00    -0.284 F 
ATOM     20  C   UNL     1     -10.959  40.136 -11.278  0.00  0.00    +0.176 C 
ENDBRANCH   5  11
BRANCH   1  21
ATOM     21  O   UNL     1     -17.358  41.363 -11.201  0.00  0.00    -0.510 OA
BRANCH  21  29
ATOM     22  C   UNL     1     -19.404  39.165 -11.508  0.00  0.00    +0.240 C 
ATOM     23  C   UNL     1     -19.313  40.106 -10.346  0.00  0.00    +0.063 A 
ATOM     24  C   UNL     1     -20.330  40.074  -9.377  0.00  0.00    +0.013 A 
ATOM     25  C   UNL     1     -20.321  40.968  -8.310  0.00  0.00    +0.235 A 
ATOM     26  F   UNL     1     -21.333  40.954  -7.433  0.00  0.00    -0.304 F 
ATOM     27  C   UNL     1     -19.297  41.894  -8.155  0.00  0.00    +0.054 A 
ATOM     28  C   UNL     1     -18.268  41.933  -9.095  0.00  0.00    +0.083 A 
ATOM     29  C   UNL     1     -18.278  41.043 -10.177  0.00  0.00    +0.247 A 
ENDBRANCH  21  29
ENDBRANCH   1  21
TORSDOF 3
ENDMDL
MODEL 2
REMARK VINA RESULT:    -7.775      5.537      8.693
REMARK INTER + INTRA:          -9.740
REMARK INTER:                  -8.825
REMARK INTRA:                  -0.915
REMARK UNBOUND:                -0.602
REMARK  Name = 
REMARK  4 active torsions:
REMARK  status: ('A' for Active; 'I' for Inactive)
REMARK    1  A    between atoms: C_1  and  C_2
REMARK    2  A    between atoms: C_8  and  O_9
REMARK    3  A    between atoms: O_9  and  C_10
REMARK    4  A    between atoms: C_14  and  C_15
REMARK                            x       y       z     vdW  Elec       q    Type
REMARK                         _______ _______ _______ _____ _____    ______ ____
ROOT
ATOM      1  C   UNL     1     -17.457  45.010 -11.718  0.00  0.00    +0.701 C 
ATOM      2  O   UNL     1     -18.156  45.655 -10.930  0.00  0.00    -0.511 OA
ATOM      3  N   UNL     1     -17.300  45.335 -13.086  0.00  0.00    -0.550 N 
ATOM      4  C   UNL     1     -18.327  46.049 -13.717  0.00  0.00    +0.307 A 
ATOM      5  C   UNL     1     -18.218  46.519 -14.975  0.00  0.00    -0.077 A 
ATOM      6  C   UNL     1     -16.970  46.313 -15.679  0.00  0.00    +0.160 A 
ATOM      7  C   UNL     1     -15.970  45.613 -15.142  0.00  0.00    -0.025 A 
ATOM      8  C   UNL     1     -16.115  45.045 -13.777  0.00  0.00    +0.483 A 
ATOM      9  N   UNL     1     -15.151  44.357 -13.273  0.00  0.00    -0.569 NA
ATOM     10  H   UNL     1     -14.367  44.245 -13.919  0.00  0.00    +0.283 HD
ENDROOT
BRANCH   5  11
ATOM     11  C   UNL     1     -19.369  47.109 -15.755  0.00  0.00    +0.497 C 
ATOM     12  O   UNL     1     -19.632  48.306 -15.614  0.00  0.00    -0.483 OA
ATOM     13  N   UNL     1     -20.094  46.281 -16.600  0.00  0.00    -0.508 N 
ATOM     14  C   UNL     1     -21.067  46.697 -17.478  0.00  0.00    +0.235 C 
ATOM     15  C   UNL     1     -22.225  46.035 -18.244  0.00  0.00    +0.002 C 
ATOM     16  C   UNL     1     -22.202  44.548 -17.843  0.00  0.00    +0.029 C 
ATOM     17  C   UNL     1     -21.278  43.858 -16.918  0.00  0.00    +0.299 C 
ATOM     18  F   UNL     1     -21.937  43.399 -15.831  0.00  0.00    -0.285 F 
ATOM     19  F   UNL     1     -20.644  42.831 -17.517  0.00  0.00    -0.284 F 
ATOM     20  C   UNL     1     -20.324  44.924 -16.516  0.00  0.00    +0.176 C 
ENDBRANCH   5  11
BRANCH   1  21
ATOM     21  O   UNL     1     -16.739  43.881 -11.344  0.00  0.00    -0.510 OA
BRANCH  21  29
ATOM     22  C   UNL     1     -17.304  41.601 -13.240  0.00  0.00    +0.240 C 
ATOM     23  C   UNL     1     -17.671  41.630 -11.787  0.00  0.00    +0.063 A 
ATOM     24  C   UNL     1     -18.461  40.587 -11.275  0.00  0.00    +0.013 A 
ATOM     25  C   UNL     1     -18.877  40.599  -9.947  0.00  0.00    +0.235 A 
ATOM     26  F   UNL     1     -19.678  39.622  -9.501  0.00  0.00    -0.304 F 
ATOM     27  C   UNL     1     -18.501  41.620  -9.084  0.00  0.00    +0.054 A 
ATOM     28  C   UNL     1     -17.702  42.656  -9.565  0.00  0.00    +0.083 A 
ATOM     29  C   UNL     1     -17.291  42.656 -10.904  0.00  0.00    +0.247 A 
ENDBRANCH  21  29
ENDBRANCH   1  21
TORSDOF 3
ENDMDL
MODEL 3
REMARK VINA RESULT:    -7.774      2.832      3.467
REMARK INTER + INTRA:          -9.740
REMARK INTER:                  -8.868
REMARK INTRA:                  -0.872
REMARK UNBOUND:                -0.602
REMARK  Name = 
REMARK  4 active torsions:
REMARK  status: ('A' for Active; 'I' for Inactive)
REMARK    1  A    between atoms: C_1  and  C_2
REMARK    2  A    between atoms: C_8  and  O_9
REMARK    3  A    between atoms: O_9  and  C_10
REMARK    4  A    between atoms: C_14  and  C_15
REMARK                            x       y       z     vdW  Elec       q    Type
REMARK                         _______ _______ _______ _____ _____    ______ ____
ROOT
ATOM      1  C   UNL     1     -16.131  41.229 -11.293  0.00  0.00    +0.701 C 
ATOM      2  O   UNL     1     -15.798  40.045 -11.415  0.00  0.00    -0.511 OA
ATOM      3  N   UNL     1     -15.221  42.313 -11.315  0.00  0.00    -0.550 N 
ATOM      4  C   UNL     1     -13.896  42.070 -10.933  0.00  0.00    +0.307 A 
ATOM      5  C   UNL     1     -12.926  42.999 -11.043  0.00  0.00    -0.077 A 
ATOM      6  C   UNL     1     -13.267  44.282 -11.623  0.00  0.00    +0.160 A 
ATOM      7  C   UNL     1     -14.518  44.580 -11.975  0.00  0.00    -0.025 A 
ATOM      8  C   UNL     1     -15.597  43.575 -11.797  0.00  0.00    +0.483 A 
ATOM      9  N   UNL     1     -16.804  43.878 -12.125  0.00  0.00    -0.569 NA
ATOM     10  H   UNL     1     -16.893  44.841 -12.455  0.00  0.00    +0.283 HD
ENDROOT
BRANCH   5  11
ATOM     11  C   UNL     1     -11.543  42.846 -10.457  0.00  0.00    +0.497 C 
ATOM     12  O   UNL     1     -10.714  42.161 -11.060  0.00  0.00    -0.483 OA
ATOM     13  N   UNL     1     -11.256  43.477  -9.254  0.00  0.00    -0.508 N 
ATOM     14  C   UNL     1     -10.013  43.551  -8.673  0.00  0.00    +0.235 C 
ATOM     15  C   UNL     1      -9.462  43.850  -7.268  0.00  0.00    +0.002 C 
ATOM     16  C   UNL     1     -10.693  44.097  -6.375  0.00  0.00    +0.029 C 
ATOM     17  C   UNL     1     -12.123  44.064  -6.749  0.00  0.00    +0.299 C 
ATOM     18  F   UNL     1     -12.763  43.055  -6.117  0.00  0.00    -0.285 F 
ATOM     19  F   UNL     1     -12.741  45.227  -6.466  0.00  0.00    -0.284 F 
ATOM     20  C   UNL     1     -12.097  43.806  -8.213  0.00  0.00    +0.176 C 
ENDBRANCH   5  11
BRANCH   1  21
ATOM     21  O   UNL     1     -17.449  41.632 -11.121  0.00  0.00    -0.510 OA
BRANCH  21  29
ATOM     22  C   UNL     1     -19.308  39.274 -11.437  0.00  0.00    +0.240 C 
ATOM     23  C   UNL     1     -19.270  40.195 -10.255  0.00  0.00    +0.063 A 
ATOM     24  C   UNL     1     -20.258  40.055  -9.266  0.00  0.00    +0.013 A 
ATOM     25  C   UNL     1     -20.300  40.923  -8.178  0.00  0.00    +0.235 A 
ATOM     26  F   UNL     1     -21.287  40.803  -7.280  0.00  0.00    -0.304 F 
ATOM     27  C   UNL     1     -19.356  41.929  -8.023  0.00  0.00    +0.054 A 
ATOM     28  C   UNL     1     -18.355  42.075  -8.983  0.00  0.00    +0.083 A 
ATOM     29  C   UNL     1     -18.315  41.212 -10.085  0.00  0.00    +0.247 A 
ENDBRANCH  21  29
ENDBRANCH   1  21
TORSDOF 3
ENDMDL
MODEL 4
REMARK VINA RESULT:    -7.476      5.070      7.030
REMARK INTER + INTRA:          -9.389
REMARK INTER:                  -8.737
REMARK INTRA:                  -0.652
REMARK UNBOUND:                -0.602
REMARK  Name = 
REMARK  4 active torsions:
REMARK  status: ('A' for Active; 'I' for Inactive)
REMARK    1  A    between atoms: C_1  and  C_2
REMARK    2  A    between atoms: C_8  and  O_9
REMARK    3  A    between atoms: O_9  and  C_10
REMARK    4  A    between atoms: C_14  and  C_15
REMARK                            x       y       z     vdW  Elec       q    Type
REMARK                         _______ _______ _______ _____ _____    ______ ____
ROOT
ATOM      1  C   UNL     1     -16.889  42.370 -12.094  0.00  0.00    +0.701 C 
ATOM      2  O   UNL     1     -15.732  42.602 -11.726  0.00  0.00    -0.511 OA
ATOM      3  N   UNL     1     -17.641  43.229 -12.931  0.00  0.00    -0.550 N 
ATOM      4  C   UNL     1     -17.325  44.594 -12.930  0.00  0.00    +0.307 A 
ATOM      5  C   UNL     1     -17.890  45.471 -13.783  0.00  0.00    -0.077 A 
ATOM      6  C   UNL     1     -18.825  44.966 -14.766  0.00  0.00    +0.160 A 
ATOM      7  C   UNL     1     -19.187  43.683 -14.794  0.00  0.00    -0.025 A 
ATOM      8  C   UNL     1     -18.608  42.729 -13.814  0.00  0.00    +0.483 A 
ATOM      9  N   UNL     1     -18.976  41.496 -13.838  0.00  0.00    -0.569 NA
ATOM     10  H   UNL     1     -19.691  41.312 -14.545  0.00  0.00    +0.283 HD
ENDROOT
BRANCH   5  11
ATOM     11  C   UNL     1     -17.731  46.969 -13.677  0.00  0.00    +0.497 C 
ATOM     12  O   UNL     1     -18.559  47.611 -13.026  0.00  0.00    -0.483 OA
ATOM     13  N   UNL     1     -16.660  47.572 -14.322  0.00  0.00    -0.508 N 
ATOM     14  C   UNL     1     -16.301  48.893 -14.201  0.00  0.00    +0.235 C 
ATOM     15  C   UNL     1     -15.442  49.887 -15.001  0.00  0.00    +0.002 C 
ATOM     16  C   UNL     1     -14.919  49.105 -16.222  0.00  0.00    +0.029 C 
ATOM     17  C   UNL     1     -15.166  47.694 -16.587  0.00  0.00    +0.299 C 
ATOM     18  F   UNL     1     -15.870  47.609 -17.738  0.00  0.00    -0.285 F 
ATOM     19  F   UNL     1     -14.018  47.002 -16.718  0.00  0.00    -0.284 F 
ATOM     20  C   UNL     1     -15.984  47.179 -15.457  0.00  0.00    +0.176 C 
ENDBRANCH   5  11
BRANCH   1  21
ATOM     21  O   UNL     1     -17.587  41.227 -11.725  0.00  0.00    -0.510 OA
BRANCH  21  29
ATOM     22  C   UNL     1     -19.580  38.997 -11.318  0.00  0.00    +0.240 C 
ATOM     23  C   UNL     1     -19.259  40.064 -10.316  0.00  0.00    +0.063 A 
ATOM     24  C   UNL     1     -20.030  40.136  -9.144  0.00  0.00    +0.013 A 
ATOM     25  C   UNL     1     -19.808  41.145  -8.210  0.00  0.00    +0.235 A 
ATOM     26  F   UNL     1     -20.596  41.224  -7.129  0.00  0.00    -0.304 F 
ATOM     27  C   UNL     1     -18.806  42.088  -8.394  0.00  0.00    +0.054 A 
ATOM     28  C   UNL     1     -18.016  42.026  -9.541  0.00  0.00    +0.083 A 
ATOM     29  C   UNL     1     -18.242  41.020 -10.489  0.00  0.00    +0.247 A 
ENDBRANCH  21  29
ENDBRANCH   1  21
TORSDOF 3
ENDMDL
MODEL 5
REMARK VINA RESULT:    -7.286      5.193      7.780
REMARK INTER + INTRA:          -9.166
REMARK INTER:                  -8.703
REMARK INTRA:                  -0.463
REMARK UNBOUND:                -0.602
REMARK  Name = 
REMARK  4 active torsions:
REMARK  status: ('A' for Active; 'I' for Inactive)
REMARK    1  A    between atoms: C_1  and  C_2
REMARK    2  A    between atoms: C_8  and  O_9
REMARK    3  A    between atoms: O_9  and  C_10
REMARK    4  A    between atoms: C_14  and  C_15
REMARK                            x       y       z     vdW  Elec       q    Type
REMARK                         _______ _______ _______ _____ _____    ______ ____
ROOT
ATOM      1  C   UNL     1     -16.619  42.840 -11.685  0.00  0.00    +0.701 C 
ATOM      2  O   UNL     1     -15.424  42.658 -11.432  0.00  0.00    -0.511 OA
ATOM      3  N   UNL     1     -17.167  44.086 -12.073  0.00  0.00    -0.550 N 
ATOM      4  C   UNL     1     -16.506  45.252 -11.667  0.00  0.00    +0.307 A 
ATOM      5  C   UNL     1     -16.869  46.479 -12.090  0.00  0.00    -0.077 A 
ATOM      6  C   UNL     1     -17.958  46.582 -13.040  0.00  0.00    +0.160 A 
ATOM      7  C   UNL     1     -18.644  45.510 -13.437  0.00  0.00    -0.025 A 
ATOM      8  C   UNL     1     -18.280  44.165 -12.922  0.00  0.00    +0.483 A 
ATOM      9  N   UNL     1     -18.958  43.139 -13.299  0.00  0.00    -0.569 NA
ATOM     10  H   UNL     1     -19.735  43.384 -13.915  0.00  0.00    +0.283 HD
ENDROOT
BRANCH   5  11
ATOM     11  C   UNL     1     -16.318  47.764 -11.520  0.00  0.00    +0.497 C 
ATOM     12  O   UNL     1     -15.095  47.900 -11.433  0.00  0.00    -0.483 OA
ATOM     13  N   UNL     1     -17.208  48.745 -11.107  0.00  0.00    -0.508 N 
ATOM     14  C   UNL     1     -16.863  50.014 -10.707  0.00  0.00    +0.235 C 
ATOM     15  C   UNL     1     -17.532  51.144  -9.907  0.00  0.00    +0.002 C 
ATOM     16  C   UNL     1     -18.916  50.607  -9.493  0.00  0.00    +0.029 C 
ATOM     17  C   UNL     1     -19.516  49.287  -9.783  0.00  0.00    +0.299 C 
ATOM     18  F   UNL     1     -19.699  48.580  -8.646  0.00  0.00    -0.285 F 
ATOM     19  F   UNL     1     -20.694  49.403 -10.427  0.00  0.00    -0.284 F 
ATOM     20  C   UNL     1     -18.496  48.618 -10.633  0.00  0.00    +0.176 C 
ENDBRANCH   5  11
BRANCH   1  21
ATOM     21  O   UNL     1     -17.570  41.829 -11.617  0.00  0.00    -0.510 OA
BRANCH  21  29
ATOM     22  C   UNL     1     -19.258  39.327 -11.581  0.00  0.00    +0.240 C 
ATOM     23  C   UNL     1     -19.090  40.274 -10.432  0.00  0.00    +0.063 A 
ATOM     24  C   UNL     1     -19.875  40.079  -9.283  0.00  0.00    +0.013 A 
ATOM     25  C   UNL     1     -19.797  40.966  -8.212  0.00  0.00    +0.235 A 
ATOM     26  F   UNL     1     -20.599  40.789  -7.154  0.00  0.00    -0.304 F 
ATOM     27  C   UNL     1     -18.924  42.046  -8.234  0.00  0.00    +0.054 A 
ATOM     28  C   UNL     1     -18.122  42.248  -9.356  0.00  0.00    +0.083 A 
ATOM     29  C   UNL     1     -18.205  41.366 -10.441  0.00  0.00    +0.247 A 
ENDBRANCH  21  29
ENDBRANCH   1  21
TORSDOF 3
ENDMDL
