MODEL 1
REMARK VINA RESULT:    -7.353      0.000      0.000
REMARK INTER + INTRA:          -9.866
REMARK INTER:                  -9.287
REMARK INTRA:                  -0.579
REMARK UNBOUND:                -0.579
REMARK  Name = 
REMARK  5 active torsions:
REMARK  status: ('A' for Active; 'I' for Inactive)
REMARK    1  A    between atoms: C_2  and  N_3
REMARK    2  A    between atoms: C_2  and  C_19
REMARK    3  A    between atoms: C_4  and  O_5
REMARK    4  A    between atoms: C_4  and  C_6
REMARK    5  A    between atoms: N_10  and  C_11
REMARK                            x       y       z     vdW  Elec       q    Type
REMARK                         _______ _______ _______ _____ _____    ______ ____
ROOT
ATOM      1  C   UNL     1     -19.097  42.782 -13.399  0.00  0.00    -0.133 C 
ATOM      2  C   UNL     1     -19.534  42.606 -14.703  0.00  0.00    +0.072 C 
ATOM      3  C   UNL     1     -19.385  43.643 -15.613  0.00  0.00    -0.108 C 
ATOM      4  C   UNL     1     -18.812  44.840 -15.187  0.00  0.00    +0.414 C 
ATOM      5  N   UNL     1     -18.657  45.938 -16.035  0.00  0.00    -0.655 N 
ATOM      6  N   UNL     1     -18.367  45.019 -13.926  0.00  0.00    -0.469 NA
ATOM      7  C   UNL     1     -18.516  43.989 -13.058  0.00  0.00    +0.226 C 
ATOM      8  H   UNL     1     -18.404  46.741 -15.468  0.00  0.00    +0.301 HD
ENDROOT
BRANCH   5   9
ATOM      9  C   UNL     1     -19.414  46.185 -17.143  0.00  0.00    +0.223 C 
ATOM     10  C   UNL     1     -20.844  46.114 -16.953  0.00  0.00    -0.044 C 
ATOM     11  C   UNL     1     -21.911  45.313 -17.731  0.00  0.00    -0.030 C 
ATOM     12  C   UNL     1     -21.399  44.500 -18.936  0.00  0.00    -0.043 C 
ATOM     13  C   UNL     1     -19.898  44.573 -19.268  0.00  0.00    -0.032 C 
ATOM     14  C   UNL     1     -19.046  45.442 -18.322  0.00  0.00    -0.071 C 
ENDBRANCH   5   9
BRANCH   1  16
ATOM     15  N   UNL     1     -18.562  41.758 -11.280  0.00  0.00    -0.525 NA
ATOM     16  C   UNL     1     -19.219  41.741 -12.382  0.00  0.00    +0.490 C 
BRANCH  15  18
ATOM     17  O   UNL     1     -18.473  39.568 -10.658  0.00  0.00    -0.537 OA
ATOM     18  C   UNL     1     -18.689  40.749 -10.351  0.00  0.00    +0.457 C 
BRANCH  18  19
ATOM     19  C   UNL     1     -19.065  41.257  -9.052  0.00  0.00    +0.080 A 
ATOM     20  C   UNL     1     -20.127  40.745  -8.344  0.00  0.00    +0.176 A 
ATOM     21  N   UNL     1     -20.259  41.391  -7.174  0.00  0.00    -0.248 NA
ATOM     22  N   UNL     1     -19.258  42.310  -7.180  0.00  0.00    -0.083 NA
ATOM     23  N   UNL     1     -18.509  42.251  -8.315  0.00  0.00    -0.211 NA
ENDBRANCH  18  19
ENDBRANCH  15  18
BRANCH  16  24
ATOM     24  O   UNL     1     -20.091  40.785 -12.758  0.00  0.00    -0.605 OA
ATOM     25  H   UNL     1     -19.828  39.927 -12.365  0.00  0.00    +0.354 HD
ENDBRANCH  16  24
ENDBRANCH   1  16
TORSDOF 5
ENDMDL
MODEL 2
REMARK VINA RESULT:    -7.221      2.950      8.275
REMARK INTER + INTRA:          -9.699
REMARK INTER:                  -9.992
REMARK INTRA:                   0.293
REMARK UNBOUND:                -0.579
REMARK  Name = 
REMARK  5 active torsions:
REMARK  status: ('A' for Active; 'I' for Inactive)
REMARK    1  A    between atoms: C_2  and  N_3
REMARK    2  A    between atoms: C_2  and  C_19
REMARK    3  A    between atoms: C_4  and  O_5
REMARK    4  A    between atoms: C_4  and  C_6
REMARK    5  A    between atoms: N_10  and  C_11
REMARK                            x       y       z     vdW  Elec       q    Type
REMARK                         _______ _______ _______ _____ _____    ______ ____
ROOT
ATOM      1  C   UNL     1     -17.971  43.030 -12.024  0.00  0.00    -0.133 C 
ATOM      2  C   UNL     1     -17.718  42.897 -10.668  0.00  0.00    +0.072 C 
ATOM      3  C   UNL     1     -18.364  41.900  -9.952  0.00  0.00    -0.108 C 
ATOM      4  C   UNL     1     -19.264  41.066 -10.615  0.00  0.00    +0.414 C 
ATOM      5  N   UNL     1     -19.976  40.062  -9.957  0.00  0.00    -0.655 N 
ATOM      6  N   UNL     1     -19.507  41.173 -11.937  0.00  0.00    -0.469 NA
ATOM      7  C   UNL     1     -18.857  42.149 -12.616  0.00  0.00    +0.226 C 
ATOM      8  H   UNL     1     -20.696  39.722 -10.586  0.00  0.00    +0.301 HD
ENDROOT
BRANCH   5   9
ATOM      9  C   UNL     1     -20.273  40.055  -8.625  0.00  0.00    +0.223 C 
ATOM     10  C   UNL     1     -21.666  40.246  -8.293  0.00  0.00    -0.044 C 
ATOM     11  C   UNL     1     -22.329  41.256  -7.331  0.00  0.00    -0.030 C 
ATOM     12  C   UNL     1     -21.369  42.175  -6.552  0.00  0.00    -0.043 C 
ATOM     13  C   UNL     1     -19.857  41.997  -6.778  0.00  0.00    -0.032 C 
ATOM     14  C   UNL     1     -19.459  40.918  -7.806  0.00  0.00    -0.071 C 
ENDBRANCH   5   9
BRANCH   1  16
ATOM     15  N   UNL     1     -17.727  45.274 -12.877  0.00  0.00    -0.525 NA
ATOM     16  C   UNL     1     -17.332  44.053 -12.846  0.00  0.00    +0.490 C 
BRANCH  15  18
ATOM     17  O   UNL     1     -15.884  46.208 -13.835  0.00  0.00    -0.537 OA
ATOM     18  C   UNL     1     -17.113  46.210 -13.678  0.00  0.00    +0.457 C 
BRANCH  18  19
ATOM     19  C   UNL     1     -18.066  47.113 -14.281  0.00  0.00    +0.080 A 
ATOM     20  C   UNL     1     -18.821  46.758 -15.375  0.00  0.00    +0.176 A 
ATOM     21  N   UNL     1     -19.624  47.773 -15.733  0.00  0.00    -0.248 NA
ATOM     22  N   UNL     1     -19.344  48.758 -14.838  0.00  0.00    -0.083 NA
ATOM     23  N   UNL     1     -18.397  48.382 -13.936  0.00  0.00    -0.211 NA
ENDBRANCH  18  19
ENDBRANCH  15  18
BRANCH  16  24
ATOM     24  O   UNL     1     -16.303  43.547 -13.554  0.00  0.00    -0.605 OA
ATOM     25  H   UNL     1     -16.273  43.967 -14.438  0.00  0.00    +0.354 HD
ENDBRANCH  16  24
ENDBRANCH   1  16
TORSDOF 5
ENDMDL
MODEL 3
REMARK VINA RESULT:    -7.195      3.974      4.903
REMARK INTER + INTRA:          -9.667
REMARK INTER:                  -9.098
REMARK INTRA:                  -0.569
REMARK UNBOUND:                -0.579
REMARK  Name = 
REMARK  5 active torsions:
REMARK  status: ('A' for Active; 'I' for Inactive)
REMARK    1  A    between atoms: C_2  and  N_3
REMARK    2  A    between atoms: C_2  and  C_19
REMARK    3  A    between atoms: C_4  and  O_5
REMARK    4  A    between atoms: C_4  and  C_6
REMARK    5  A    between atoms: N_10  and  C_11
REMARK                            x       y       z     vdW  Elec       q    Type
REMARK                         _______ _______ _______ _____ _____    ______ ____
ROOT
ATOM      1  C   UNL     1     -17.756  41.988 -10.619  0.00  0.00    -0.133 C 
ATOM      2  C   UNL     1     -18.109  43.300 -10.895  0.00  0.00    +0.072 C 
ATOM      3  C   UNL     1     -17.330  44.040 -11.773  0.00  0.00    -0.108 C 
ATOM      4  C   UNL     1     -16.204  43.448 -12.343  0.00  0.00    +0.414 C 
ATOM      5  N   UNL     1     -15.355  44.138 -13.210  0.00  0.00    -0.655 N 
ATOM      6  N   UNL     1     -15.859  42.168 -12.097  0.00  0.00    -0.469 NA
ATOM      7  C   UNL     1     -16.640  41.462 -11.242  0.00  0.00    +0.226 C 
ATOM      8  H   UNL     1     -14.517  43.580 -13.340  0.00  0.00    +0.301 HD
ENDROOT
BRANCH   5   9
ATOM      9  C   UNL     1     -15.200  45.493 -13.241  0.00  0.00    +0.223 C 
ATOM     10  C   UNL     1     -14.872  46.115 -11.980  0.00  0.00    -0.044 C 
ATOM     11  C   UNL     1     -15.548  47.296 -11.248  0.00  0.00    -0.030 C 
ATOM     12  C   UNL     1     -16.722  47.964 -11.988  0.00  0.00    -0.043 C 
ATOM     13  C   UNL     1     -17.101  47.422 -13.378  0.00  0.00    -0.032 C 
ATOM     14  C   UNL     1     -16.268  46.223 -13.877  0.00  0.00    -0.071 C 
ENDBRANCH   5   9
BRANCH   1  16
ATOM     15  N   UNL     1     -19.804  41.146  -9.659  0.00  0.00    -0.525 NA
ATOM     16  C   UNL     1     -18.522  41.144  -9.706  0.00  0.00    +0.490 C 
BRANCH  15  18
ATOM     17  O   UNL     1     -20.330  39.123  -8.755  0.00  0.00    -0.537 OA
ATOM     18  C   UNL     1     -20.494  40.350  -8.772  0.00  0.00    +0.457 C 
BRANCH  18  19
ATOM     19  C   UNL     1     -21.360  41.126  -7.913  0.00  0.00    +0.080 A 
ATOM     20  C   UNL     1     -20.898  42.190  -7.175  0.00  0.00    +0.176 A 
ATOM     21  N   UNL     1     -21.901  42.734  -6.467  0.00  0.00    -0.248 NA
ATOM     22  N   UNL     1     -22.987  41.981  -6.787  0.00  0.00    -0.083 NA
ATOM     23  N   UNL     1     -22.688  40.991  -7.670  0.00  0.00    -0.211 NA
ENDBRANCH  18  19
ENDBRANCH  15  18
BRANCH  16  24
ATOM     24  O   UNL     1     -17.713  40.388  -8.937  0.00  0.00    -0.605 OA
ATOM     25  H   UNL     1     -16.889  40.881  -8.742  0.00  0.00    +0.354 HD
ENDBRANCH  16  24
ENDBRANCH   1  16
TORSDOF 5
ENDMDL
MODEL 4
REMARK VINA RESULT:    -7.188      1.500      2.021
REMARK INTER + INTRA:          -9.658
REMARK INTER:                  -9.530
REMARK INTRA:                  -0.128
REMARK UNBOUND:                -0.579
REMARK  Name = 
REMARK  5 active torsions:
REMARK  status: ('A' for Active; 'I' for Inactive)
REMARK    1  A    between atoms: C_2  and  N_3
REMARK    2  A    between atoms: C_2  and  C_19
REMARK    3  A    between atoms: C_4  and  O_5
REMARK    4  A    between atoms: C_4  and  C_6
REMARK    5  A    between atoms: N_10  and  C_11
REMARK                            x       y       z     vdW  Elec       q    Type
REMARK                         _______ _______ _______ _____ _____    ______ ____
ROOT
ATOM      1  C   UNL     1     -18.395  42.680 -12.193  0.00  0.00    -0.133 C 
ATOM      2  C   UNL     1     -18.953  41.932 -13.218  0.00  0.00    +0.072 C 
ATOM      3  C   UNL     1     -19.170  42.529 -14.452  0.00  0.00    -0.108 C 
ATOM      4  C   UNL     1     -18.833  43.871 -14.622  0.00  0.00    +0.414 C 
ATOM      5  N   UNL     1     -19.050  44.549 -15.823  0.00  0.00    -0.655 N 
ATOM      6  N   UNL     1     -18.274  44.605 -13.639  0.00  0.00    -0.469 NA
ATOM      7  C   UNL     1     -18.064  43.997 -12.446  0.00  0.00    +0.226 C 
ATOM      8  H   UNL     1     -18.913  45.540 -15.654  0.00  0.00    +0.301 HD
ENDROOT
BRANCH   5   9
ATOM      9  C   UNL     1     -19.987  44.211 -16.756  0.00  0.00    +0.223 C 
ATOM     10  C   UNL     1     -20.412  45.278 -17.632  0.00  0.00    -0.044 C 
ATOM     11  C   UNL     1     -21.832  45.783 -17.967  0.00  0.00    -0.030 C 
ATOM     12  C   UNL     1     -22.994  45.006 -17.319  0.00  0.00    -0.043 C 
ATOM     13  C   UNL     1     -22.647  43.801 -16.427  0.00  0.00    -0.032 C 
ATOM     14  C   UNL     1     -21.142  43.514 -16.248  0.00  0.00    -0.071 C 
ENDBRANCH   5   9
BRANCH   1  16
ATOM     15  N   UNL     1     -19.006  41.446 -10.211  0.00  0.00    -0.525 NA
ATOM     16  C   UNL     1     -18.137  42.126 -10.867  0.00  0.00    +0.490 C 
BRANCH  15  18
ATOM     17  O   UNL     1     -17.713  40.288  -8.735  0.00  0.00    -0.537 OA
ATOM     18  C   UNL     1     -18.734  40.954  -8.953  0.00  0.00    +0.457 C 
BRANCH  18  19
ATOM     19  C   UNL     1     -19.749  41.332  -7.996  0.00  0.00    +0.080 A 
ATOM     20  C   UNL     1     -21.077  41.020  -8.174  0.00  0.00    +0.176 A 
ATOM     21  N   UNL     1     -21.804  41.484  -7.145  0.00  0.00    -0.248 NA
ATOM     22  N   UNL     1     -20.895  42.088  -6.334  0.00  0.00    -0.083 NA
ATOM     23  N   UNL     1     -19.629  42.010  -6.827  0.00  0.00    -0.211 NA
ENDBRANCH  18  19
ENDBRANCH  15  18
BRANCH  16  24
ATOM     24  O   UNL     1     -16.895  42.426 -10.439  0.00  0.00    -0.605 OA
ATOM     25  H   UNL     1     -16.241  42.177 -11.125  0.00  0.00    +0.354 HD
ENDBRANCH  16  24
ENDBRANCH   1  16
TORSDOF 5
ENDMDL
MODEL 5
REMARK VINA RESULT:    -6.902      1.741      2.264
REMARK INTER + INTRA:          -9.297
REMARK INTER:                  -8.460
REMARK INTRA:                  -0.837
REMARK UNBOUND:                -0.579
REMARK  Name = 
REMARK  5 active torsions:
REMARK  status: ('A' for Active; 'I' for Inactive)
REMARK    1  A    between atoms: C_2  and  N_3
REMARK    2  A    between atoms: C_2  and  C_19
REMARK    3  A    between atoms: C_4  and  O_5
REMARK    4  A    between atoms: C_4  and  C_6
REMARK    5  A    between atoms: N_10  and  C_11
REMARK                            x       y       z     vdW  Elec       q    Type
REMARK                         _______ _______ _______ _____ _____    ______ ____
ROOT
ATOM      1  C   UNL     1     -19.115  42.862 -13.468  0.00  0.00    -0.133 C 
ATOM      2  C   UNL     1     -18.314  43.979 -13.284  0.00  0.00    +0.072 C 
ATOM      3  C   UNL     1     -18.274  44.954 -14.271  0.00  0.00    -0.108 C 
ATOM      4  C   UNL     1     -19.030  44.776 -15.428  0.00  0.00    +0.414 C 
ATOM      5  N   UNL     1     -19.017  45.696 -16.478  0.00  0.00    -0.655 N 
ATOM      6  N   UNL     1     -19.826  43.703 -15.613  0.00  0.00    -0.469 NA
ATOM      7  C   UNL     1     -19.855  42.769 -14.631  0.00  0.00    +0.226 C 
ATOM      8  H   UNL     1     -19.478  45.272 -17.276  0.00  0.00    +0.301 HD
ENDROOT
BRANCH   5   9
ATOM      9  C   UNL     1     -17.997  46.561 -16.749  0.00  0.00    +0.223 C 
ATOM     10  C   UNL     1     -18.393  47.864 -17.233  0.00  0.00    -0.044 C 
ATOM     11  C   UNL     1     -17.939  48.636 -18.492  0.00  0.00    -0.030 C 
ATOM     12  C   UNL     1     -16.857  47.953 -19.349  0.00  0.00    -0.043 C 
ATOM     13  C   UNL     1     -16.313  46.594 -18.874  0.00  0.00    -0.032 C 
ATOM     14  C   UNL     1     -16.946  46.035 -17.584  0.00  0.00    -0.071 C 
ENDBRANCH   5   9
BRANCH   1  16
ATOM     15  N   UNL     1     -18.495  41.757 -11.414  0.00  0.00    -0.525 NA
ATOM     16  C   UNL     1     -19.211  41.792 -12.479  0.00  0.00    +0.490 C 
BRANCH  15  18
ATOM     17  O   UNL     1     -18.289  39.565 -10.828  0.00  0.00    -0.537 OA
ATOM     18  C   UNL     1     -18.598  40.722 -10.512  0.00  0.00    +0.457 C 
BRANCH  18  19
ATOM     19  C   UNL     1     -19.071  41.176  -9.223  0.00  0.00    +0.080 A 
ATOM     20  C   UNL     1     -20.319  40.851  -8.745  0.00  0.00    +0.176 A 
ATOM     21  N   UNL     1     -20.506  41.396  -7.532  0.00  0.00    -0.248 NA
ATOM     22  N   UNL     1     -19.349  42.062  -7.278  0.00  0.00    -0.083 NA
ATOM     23  N   UNL     1     -18.451  41.944  -8.293  0.00  0.00    -0.211 NA
ENDBRANCH  18  19
ENDBRANCH  15  18
BRANCH  16  24
ATOM     24  O   UNL     1     -20.127  40.871 -12.836  0.00  0.00    -0.605 OA
ATOM     25  H   UNL     1     -21.022  41.266 -12.803  0.00  0.00    +0.354 HD
ENDBRANCH  16  24
ENDBRANCH   1  16
TORSDOF 5
ENDMDL
