MODEL 1
REMARK VINA RESULT:    -8.482      0.000      0.000
REMARK INTER + INTRA:         -11.333
REMARK INTER:                 -10.465
REMARK INTRA:                  -0.867
REMARK UNBOUND:                -0.867
REMARK  Name = 
REMARK  5 active torsions:
REMARK  status: ('A' for Active; 'I' for Inactive)
REMARK    1  A    between atoms: C_1  and  C_2
REMARK    2  A    between atoms: C_2  and  C_3
REMARK    3  A    between atoms: C_2  and  N_9
REMARK    4  A    between atoms: C_11  and  C_12
REMARK    5  A    between atoms: N_14  and  C_15
REMARK                            x       y       z     vdW  Elec       q    Type
REMARK                         _______ _______ _______ _____ _____    ______ ____
ROOT
ATOM      1  N   UNL     1     -17.819  41.226 -11.408  0.00  0.00    -0.433 N 
ATOM      2  C   UNL     1     -18.487  42.216 -12.141  0.00  0.00    +0.280 A 
ATOM      3  C   UNL     1     -17.852  43.132 -12.891  0.00  0.00    -0.076 A 
ATOM      4  C   UNL     1     -16.398  43.068 -12.988  0.00  0.00    +0.164 A 
ATOM      5  C   UNL     1     -15.676  42.177 -12.285  0.00  0.00    +0.053 A 
ATOM      6  C   UNL     1     -16.421  41.236 -11.379  0.00  0.00    +0.443 A 
ATOM      7  N   UNL     1     -15.769  40.448 -10.569  0.00  0.00    -0.541 NA
ATOM      8  H   UNL     1     -14.756  40.551 -10.737  0.00  0.00    +0.311 HD
ENDROOT
BRANCH   3   9
ATOM      9  C   UNL     1     -18.683  44.049 -13.728  0.00  0.00    +0.554 C 
ATOM     10  O   UNL     1     -19.157  45.082 -13.271  0.00  0.00    -0.463 OA
ATOM     11  N   UNL     1     -18.852  43.622 -15.034  0.00  0.00    -0.661 N 
ATOM     12  H   UNL     1     -18.228  42.903 -15.387  0.00  0.00    +0.322 HD
BRANCH  11  13
ATOM     13  C   UNL     1     -19.804  44.099 -15.894  0.00  0.00    +0.301 C 
ATOM     14  C   UNL     1     -20.955  43.307 -16.259  0.00  0.00    +0.025 C 
ATOM     15  C   UNL     1     -21.454  43.117 -17.710  0.00  0.00    +0.268 C 
ATOM     16  N   UNL     1     -20.964  43.693 -18.986  0.00  0.00    -0.774 N 
ATOM     17  C   UNL     1     -19.946  44.634 -18.466  0.00  0.00    +0.270 C 
ATOM     18  C   UNL     1     -19.385  44.861 -17.042  0.00  0.00    -0.013 C 
ATOM     19  H   UNL     1     -21.710  44.174 -19.501  0.00  0.00    +0.362 HD
ATOM     20  H   UNL     1     -20.524  42.969 -19.566  0.00  0.00    +0.353 HD
ENDBRANCH  11  13
ENDBRANCH   3   9
BRANCH   1  22
ATOM     21  C   UNL     1     -19.337  39.245 -11.689  0.00  0.00    +0.286 C 
ATOM     22  C   UNL     1     -18.518  40.113 -10.732  0.00  0.00    +0.246 C 
BRANCH  22  23
ATOM     23  C   UNL     1     -19.278  40.634  -9.535  0.00  0.00    +0.267 A 
ATOM     24  C   UNL     1     -18.763  41.571  -8.630  0.00  0.00    +0.050 A 
ATOM     25  C   UNL     1     -19.548  42.014  -7.570  0.00  0.00    +0.191 A 
ATOM     26  C   UNL     1     -20.837  41.522  -7.423  0.00  0.00    +0.109 A 
ATOM     27  C   UNL     1     -21.307  40.567  -8.319  0.00  0.00    +0.365 A 
ATOM     28  N   UNL     1     -20.519  40.139  -9.318  0.00  0.00    -0.583 N 
ATOM     29  H   UNL     1     -20.849  39.386  -9.938  0.00  0.00    +0.325 HD
ENDBRANCH  22  23
ENDBRANCH   1  22
TORSDOF 4
ENDMDL
MODEL 2
REMARK VINA RESULT:    -8.182      1.171      1.654
REMARK INTER + INTRA:         -10.963
REMARK INTER:                  -9.961
REMARK INTRA:                  -1.001
REMARK UNBOUND:                -0.867
REMARK  Name = 
REMARK  5 active torsions:
REMARK  status: ('A' for Active; 'I' for Inactive)
REMARK    1  A    between atoms: C_1  and  C_2
REMARK    2  A    between atoms: C_2  and  C_3
REMARK    3  A    between atoms: C_2  and  N_9
REMARK    4  A    between atoms: C_11  and  C_12
REMARK    5  A    between atoms: N_14  and  C_15
REMARK                            x       y       z     vdW  Elec       q    Type
REMARK                         _______ _______ _______ _____ _____    ______ ____
ROOT
ATOM      1  N   UNL     1     -16.739  41.989 -12.054  0.00  0.00    -0.433 N 
ATOM      2  C   UNL     1     -17.631  42.791 -12.778  0.00  0.00    +0.280 A 
ATOM      3  C   UNL     1     -17.307  44.003 -13.262  0.00  0.00    -0.076 A 
ATOM      4  C   UNL     1     -15.947  44.491 -13.067  0.00  0.00    +0.164 A 
ATOM      5  C   UNL     1     -15.040  43.804 -12.349  0.00  0.00    +0.053 A 
ATOM      6  C   UNL     1     -15.476  42.500 -11.740  0.00  0.00    +0.443 A 
ATOM      7  N   UNL     1     -14.688  41.861 -10.919  0.00  0.00    -0.541 NA
ATOM      8  H   UNL     1     -13.783  42.356 -10.863  0.00  0.00    +0.311 HD
ENDROOT
BRANCH   3   9
ATOM      9  C   UNL     1     -18.304  44.700 -14.129  0.00  0.00    +0.554 C 
ATOM     10  O   UNL     1     -18.724  45.818 -13.854  0.00  0.00    -0.463 OA
ATOM     11  N   UNL     1     -18.689  43.972 -15.242  0.00  0.00    -0.661 N 
ATOM     12  H   UNL     1     -18.114  43.182 -15.520  0.00  0.00    +0.322 HD
BRANCH  11  13
ATOM     13  C   UNL     1     -19.795  44.237 -16.004  0.00  0.00    +0.301 C 
ATOM     14  C   UNL     1     -20.822  43.245 -16.214  0.00  0.00    +0.025 C 
ATOM     15  C   UNL     1     -21.430  42.902 -17.593  0.00  0.00    +0.268 C 
ATOM     16  N   UNL     1     -21.184  43.489 -18.933  0.00  0.00    -0.774 N 
ATOM     17  C   UNL     1     -20.297  44.613 -18.559  0.00  0.00    +0.270 C 
ATOM     18  C   UNL     1     -19.638  45.001 -17.214  0.00  0.00    -0.013 C 
ATOM     19  H   UNL     1     -22.053  43.809 -19.375  0.00  0.00    +0.362 HD
ATOM     20  H   UNL     1     -20.689  42.822 -19.536  0.00  0.00    +0.353 HD
ENDBRANCH  11  13
ENDBRANCH   3   9
BRANCH   1  22
ATOM     21  C   UNL     1     -17.378  39.706 -12.881  0.00  0.00    +0.286 C 
ATOM     22  C   UNL     1     -17.033  40.590 -11.681  0.00  0.00    +0.246 C 
BRANCH  22  23
ATOM     23  C   UNL     1     -18.040  40.559 -10.555  0.00  0.00    +0.267 A 
ATOM     24  C   UNL     1     -19.292  39.937 -10.644  0.00  0.00    +0.050 A 
ATOM     25  C   UNL     1     -20.144  39.936  -9.544  0.00  0.00    +0.191 A 
ATOM     26  C   UNL     1     -19.742  40.553  -8.368  0.00  0.00    +0.109 A 
ATOM     27  C   UNL     1     -18.507  41.191  -8.323  0.00  0.00    +0.365 A 
ATOM     28  N   UNL     1     -17.714  41.198  -9.407  0.00  0.00    -0.583 N 
ATOM     29  H   UNL     1     -16.831  41.727  -9.388  0.00  0.00    +0.325 HD
ENDBRANCH  22  23
ENDBRANCH   1  22
TORSDOF 4
ENDMDL
MODEL 3
REMARK VINA RESULT:    -7.198      1.623      2.060
REMARK INTER + INTRA:          -9.749
REMARK INTER:                  -9.102
REMARK INTRA:                  -0.647
REMARK UNBOUND:                -0.867
REMARK  Name = 
REMARK  5 active torsions:
REMARK  status: ('A' for Active; 'I' for Inactive)
REMARK    1  A    between atoms: C_1  and  C_2
REMARK    2  A    between atoms: C_2  and  C_3
REMARK    3  A    between atoms: C_2  and  N_9
REMARK    4  A    between atoms: C_11  and  C_12
REMARK    5  A    between atoms: N_14  and  C_15
REMARK                            x       y       z     vdW  Elec       q    Type
REMARK                         _______ _______ _______ _____ _____    ______ ____
ROOT
ATOM      1  N   UNL     1     -17.441  41.682 -11.671  0.00  0.00    -0.433 N 
ATOM      2  C   UNL     1     -17.984  42.822 -12.280  0.00  0.00    +0.280 A 
ATOM      3  C   UNL     1     -17.233  43.817 -12.782  0.00  0.00    -0.076 A 
ATOM      4  C   UNL     1     -15.781  43.687 -12.735  0.00  0.00    +0.164 A 
ATOM      5  C   UNL     1     -15.178  42.646 -12.132  0.00  0.00    +0.053 A 
ATOM      6  C   UNL     1     -16.056  41.607 -11.495  0.00  0.00    +0.443 A 
ATOM      7  N   UNL     1     -15.531  40.652 -10.776  0.00  0.00    -0.541 NA
ATOM      8  H   UNL     1     -14.502  40.725 -10.816  0.00  0.00    +0.311 HD
ENDROOT
BRANCH   3   9
ATOM      9  C   UNL     1     -17.928  44.912 -13.522  0.00  0.00    +0.554 C 
ATOM     10  O   UNL     1     -18.950  45.432 -13.089  0.00  0.00    -0.463 OA
ATOM     11  N   UNL     1     -17.312  45.269 -14.710  0.00  0.00    -0.661 N 
ATOM     12  H   UNL     1     -16.353  44.970 -14.861  0.00  0.00    +0.322 HD
BRANCH  11  13
ATOM     13  C   UNL     1     -17.901  46.001 -15.706  0.00  0.00    +0.301 C 
ATOM     14  C   UNL     1     -18.233  47.393 -15.522  0.00  0.00    +0.025 C 
ATOM     15  C   UNL     1     -19.597  48.018 -15.896  0.00  0.00    +0.268 C 
ATOM     16  N   UNL     1     -20.793  47.419 -16.538  0.00  0.00    -0.774 N 
ATOM     17  C   UNL     1     -20.261  46.078 -16.867  0.00  0.00    +0.270 C 
ATOM     18  C   UNL     1     -18.925  45.385 -16.509  0.00  0.00    -0.013 C 
ATOM     19  H   UNL     1     -21.079  47.940 -17.375  0.00  0.00    +0.362 HD
ATOM     20  H   UNL     1     -21.567  47.347 -15.868  0.00  0.00    +0.353 HD
ENDBRANCH  11  13
ENDBRANCH   3   9
BRANCH   1  22
ATOM     21  C   UNL     1     -19.137  39.988 -12.419  0.00  0.00    +0.286 C 
ATOM     22  C   UNL     1     -18.255  40.510 -11.284  0.00  0.00    +0.246 C 
BRANCH  22  23
ATOM     23  C   UNL     1     -18.980  40.793  -9.989  0.00  0.00    +0.267 A 
ATOM     24  C   UNL     1     -18.519  41.686  -9.014  0.00  0.00    +0.050 A 
ATOM     25  C   UNL     1     -19.270  41.904  -7.864  0.00  0.00    +0.191 A 
ATOM     26  C   UNL     1     -20.472  41.230  -7.695  0.00  0.00    +0.109 A 
ATOM     27  C   UNL     1     -20.885  40.324  -8.666  0.00  0.00    +0.365 A 
ATOM     28  N   UNL     1     -20.129  40.116  -9.756  0.00  0.00    -0.583 N 
ATOM     29  H   UNL     1     -20.408  39.396 -10.438  0.00  0.00    +0.325 HD
ENDBRANCH  22  23
ENDBRANCH   1  22
TORSDOF 4
ENDMDL
MODEL 4
REMARK VINA RESULT:    -7.169      3.385      4.694
REMARK INTER + INTRA:          -9.713
REMARK INTER:                  -9.011
REMARK INTRA:                  -0.702
REMARK UNBOUND:                -0.867
REMARK  Name = 
REMARK  5 active torsions:
REMARK  status: ('A' for Active; 'I' for Inactive)
REMARK    1  A    between atoms: C_1  and  C_2
REMARK    2  A    between atoms: C_2  and  C_3
REMARK    3  A    between atoms: C_2  and  N_9
REMARK    4  A    between atoms: C_11  and  C_12
REMARK    5  A    between atoms: N_14  and  C_15
REMARK                            x       y       z     vdW  Elec       q    Type
REMARK                         _______ _______ _______ _____ _____    ______ ____
ROOT
ATOM      1  N   UNL     1     -17.439  41.788 -11.258  0.00  0.00    -0.433 N 
ATOM      2  C   UNL     1     -17.986  43.055 -11.502  0.00  0.00    +0.280 A 
ATOM      3  C   UNL     1     -17.252  44.111 -11.895  0.00  0.00    -0.076 A 
ATOM      4  C   UNL     1     -15.825  43.922 -12.125  0.00  0.00    +0.164 A 
ATOM      5  C   UNL     1     -15.213  42.750 -11.874  0.00  0.00    +0.053 A 
ATOM      6  C   UNL     1     -16.053  41.625 -11.339  0.00  0.00    +0.443 A 
ATOM      7  N   UNL     1     -15.493  40.514 -10.946  0.00  0.00    -0.541 NA
ATOM      8  H   UNL     1     -14.480  40.557 -11.143  0.00  0.00    +0.311 HD
ENDROOT
BRANCH   3   9
ATOM      9  C   UNL     1     -17.973  45.370 -12.250  0.00  0.00    +0.554 C 
ATOM     10  O   UNL     1     -18.615  45.471 -13.288  0.00  0.00    -0.463 OA
ATOM     11  N   UNL     1     -17.846  46.377 -11.308  0.00  0.00    -0.661 N 
ATOM     12  H   UNL     1     -17.516  46.127 -10.381  0.00  0.00    +0.322 HD
BRANCH  11  13
ATOM     13  C   UNL     1     -18.133  47.697 -11.532  0.00  0.00    +0.301 C 
ATOM     14  C   UNL     1     -17.159  48.594 -12.105  0.00  0.00    +0.025 C 
ATOM     15  C   UNL     1     -16.834  49.998 -11.543  0.00  0.00    +0.268 C 
ATOM     16  N   UNL     1     -17.426  50.747 -10.409  0.00  0.00    -0.774 N 
ATOM     17  C   UNL     1     -18.534  49.833 -10.051  0.00  0.00    +0.270 C 
ATOM     18  C   UNL     1     -18.903  48.417 -10.551  0.00  0.00    -0.013 C 
ATOM     19  H   UNL     1     -17.764  51.673 -10.697  0.00  0.00    +0.362 HD
ATOM     20  H   UNL     1     -16.756  50.824  -9.635  0.00  0.00    +0.353 HD
ENDBRANCH  11  13
ENDBRANCH   3   9
BRANCH   1  22
ATOM     21  C   UNL     1     -19.077  40.147 -12.222  0.00  0.00    +0.286 C 
ATOM     22  C   UNL     1     -18.265  40.589 -11.003  0.00  0.00    +0.246 C 
BRANCH  22  23
ATOM     23  C   UNL     1     -19.067  40.776  -9.736  0.00  0.00    +0.267 A 
ATOM     24  C   UNL     1     -18.647  41.561  -8.655  0.00  0.00    +0.050 A 
ATOM     25  C   UNL     1     -19.465  41.697  -7.538  0.00  0.00    +0.191 A 
ATOM     26  C   UNL     1     -20.694  41.052  -7.510  0.00  0.00    +0.109 A 
ATOM     27  C   UNL     1     -21.067  40.253  -8.586  0.00  0.00    +0.365 A 
ATOM     28  N   UNL     1     -20.247  40.119  -9.641  0.00  0.00    -0.583 N 
ATOM     29  H   UNL     1     -20.500  39.476 -10.403  0.00  0.00    +0.325 HD
ENDBRANCH  22  23
ENDBRANCH   1  22
TORSDOF 4
ENDMDL
MODEL 5
REMARK VINA RESULT:    -7.075      3.248      6.532
REMARK INTER + INTRA:          -9.597
REMARK INTER:                  -9.623
REMARK INTRA:                   0.026
REMARK UNBOUND:                -0.867
REMARK  Name = 
REMARK  5 active torsions:
REMARK  status: ('A' for Active; 'I' for Inactive)
REMARK    1  A    between atoms: C_1  and  C_2
REMARK    2  A    between atoms: C_2  and  C_3
REMARK    3  A    between atoms: C_2  and  N_9
REMARK    4  A    between atoms: C_11  and  C_12
REMARK    5  A    between atoms: N_14  and  C_15
REMARK                            x       y       z     vdW  Elec       q    Type
REMARK                         _______ _______ _______ _____ _____    ______ ____
ROOT
ATOM      1  N   UNL     1     -17.532  41.230 -11.466  0.00  0.00    -0.433 N 
ATOM      2  C   UNL     1     -16.163  41.484 -11.308  0.00  0.00    +0.280 A 
ATOM      3  C   UNL     1     -15.576  42.628 -11.698  0.00  0.00    -0.076 A 
ATOM      4  C   UNL     1     -16.408  43.679 -12.271  0.00  0.00    +0.164 A 
ATOM      5  C   UNL     1     -17.723  43.503 -12.496  0.00  0.00    +0.053 A 
ATOM      6  C   UNL     1     -18.319  42.171 -12.138  0.00  0.00    +0.443 A 
ATOM      7  N   UNL     1     -19.552  41.892 -12.463  0.00  0.00    -0.541 NA
ATOM      8  H   UNL     1     -19.986  42.726 -12.890  0.00  0.00    +0.311 HD
ENDROOT
BRANCH   3   9
ATOM      9  C   UNL     1     -14.136  42.828 -11.353  0.00  0.00    +0.554 C 
ATOM     10  O   UNL     1     -13.556  43.878 -11.601  0.00  0.00    -0.463 OA
ATOM     11  N   UNL     1     -13.547  41.735 -10.740  0.00  0.00    -0.661 N 
ATOM     12  H   UNL     1     -14.153  41.019 -10.352  0.00  0.00    +0.322 HD
BRANCH  11  13
ATOM     13  C   UNL     1     -12.197  41.544 -10.615  0.00  0.00    +0.301 C 
ATOM     14  C   UNL     1     -11.420  42.271  -9.639  0.00  0.00    +0.025 C 
ATOM     15  C   UNL     1     -10.081  42.980  -9.948  0.00  0.00    +0.268 C 
ATOM     16  N   UNL     1      -9.285  43.045 -11.198  0.00  0.00    -0.774 N 
ATOM     17  C   UNL     1     -10.057  42.104 -12.040  0.00  0.00    +0.270 C 
ATOM     18  C   UNL     1     -11.404  41.379 -11.806  0.00  0.00    -0.013 C 
ATOM     19  H   UNL     1      -8.318  42.733 -11.053  0.00  0.00    +0.362 HD
ATOM     20  H   UNL     1      -9.311  43.990 -11.596  0.00  0.00    +0.353 HD
ENDBRANCH  11  13
ENDBRANCH   3   9
BRANCH   1  22
ATOM     21  C   UNL     1     -18.954  39.208 -11.911  0.00  0.00    +0.286 C 
ATOM     22  C   UNL     1     -18.208  40.055 -10.878  0.00  0.00    +0.246 C 
BRANCH  22  23
ATOM     23  C   UNL     1     -19.032  40.479  -9.685  0.00  0.00    +0.267 A 
ATOM     24  C   UNL     1     -18.545  41.278  -8.643  0.00  0.00    +0.050 A 
ATOM     25  C   UNL     1     -19.387  41.642  -7.597  0.00  0.00    +0.191 A 
ATOM     26  C   UNL     1     -20.705  41.209  -7.600  0.00  0.00    +0.109 A 
ATOM     27  C   UNL     1     -21.149  40.389  -8.632  0.00  0.00    +0.365 A 
ATOM     28  N   UNL     1     -20.309  40.033  -9.616  0.00  0.00    -0.583 N 
ATOM     29  H   UNL     1     -20.625  39.374 -10.341  0.00  0.00    +0.325 HD
ENDBRANCH  22  23
ENDBRANCH   1  22
TORSDOF 4
ENDMDL
