REMARK  Name = 
REMARK  3 active torsions:
REMARK  status: ('A' for Active; 'I' for Inactive)
REMARK    1  A    between atoms: C_2  and  C_4
REMARK    2  A    between atoms: N_8  and  C_9
REMARK    3  A    between atoms: C_9  and  C_10
REMARK                            x       y       z     vdW  Elec       q    Type
REMARK                         _______ _______ _______ _____ _____    ______ ____
ROOT
ATOM      1  C   UNL     1       3.283   0.303   1.234  0.00  0.00    -0.145 C 
ATOM      2  C   UNL     1       4.428   1.076   1.144  0.00  0.00    +0.123 C 
ATOM      3  C   UNL     1       5.250   1.209   2.255  0.00  0.00    -0.013 C 
ATOM      4  C   UNL     1       4.905   0.564   3.444  0.00  0.00    +0.408 C 
ATOM      5  N   UNL     1       5.849   0.625   4.501  0.00  0.00    -0.562 N 
ATOM      6  N   UNL     1       3.780  -0.189   3.552  0.00  0.00    -0.398 NA
ATOM      7  C   UNL     1       2.992  -0.291   2.449  0.00  0.00    +0.306 C 
ATOM      8  H   UNL     1       6.215   1.568   4.597  0.00  0.00    +0.326 HD
ENDROOT
BRANCH   1  10
ATOM      9  N   UNL     1       2.828   0.498  -1.139  0.00  0.00    -0.800 N 
ATOM     10  C   UNL     1       2.412   0.040   0.081  0.00  0.00    +0.656 C 
ATOM     11  O   UNL     1       1.369  -0.585   0.216  0.00  0.00    -0.452 OA
ATOM     12  H   UNL     1       2.254   0.281  -1.946  0.00  0.00    +0.394 HD
ATOM     13  H   UNL     1       3.705   0.970  -1.309  0.00  0.00    +0.370 HD
ENDBRANCH   1  10
BRANCH   5  14
ATOM     14  C   UNL     1       5.495  -0.069   5.726  0.00  0.00    +0.273 C 
BRANCH  14  15
ATOM     15  C   UNL     1       4.988  -0.852   6.798  0.00  0.00    -0.009 C 
ATOM     16  C   UNL     1       5.170  -2.288   6.775  0.00  0.00    +0.051 C 
ATOM     17  C   UNL     1       4.042  -3.333   6.921  0.00  0.00    +0.251 C 
ATOM     18  N   UNL     1       2.594  -3.160   7.175  0.00  0.00    -0.775 N 
ATOM     19  C   UNL     1       2.546  -1.697   7.383  0.00  0.00    +0.251 C 
ATOM     20  C   UNL     1       3.636  -0.614   7.256  0.00  0.00    +0.047 C 
ATOM     21  H   UNL     1       2.286  -3.674   8.006  0.00  0.00    +0.352 HD
ATOM     22  H   UNL     1       2.051  -3.421   6.344  0.00  0.00    +0.348 HD
ENDBRANCH  14  15
ENDBRANCH   5  14
TORSDOF 3
