REMARK  Name = 
REMARK  7 active torsions:
REMARK  status: ('A' for Active; 'I' for Inactive)
REMARK    1  A    between atoms: C_1  and  C_2
REMARK    2  A    between atoms: C_2  and  C_3
REMARK    3  A    between atoms: C_3  and  C_4
REMARK    4  A    between atoms: C_4  and  C_5
REMARK    5  A    between atoms: C_4  and  C_6
REMARK    6  A    between atoms: C_10  and  C_11
REMARK    7  A    between atoms: C_11  and  N_13
REMARK                            x       y       z     vdW  Elec       q    Type
REMARK                         _______ _______ _______ _____ _____    ______ ____
ROOT
ATOM      1  C   UNL     1       5.218   1.745  -2.290  0.00  0.00    +0.513 C 
ATOM      2  O   UNL     1       4.643   0.698  -1.985  0.00  0.00    -0.452 OA
ATOM      3  N   UNL     1       6.612   1.880  -2.410  0.00  0.00    -0.547 N 
ATOM      4  C   UNL     1       7.330   3.068  -2.391  0.00  0.00    +0.244 C 
ATOM      5  C   UNL     1       8.579   3.458  -2.524  0.00  0.00    -0.146 C 
ATOM      6  C   UNL     1       9.328   2.255  -2.761  0.00  0.00    +0.125 C 
ATOM      7  C   UNL     1       8.869   1.137  -2.796  0.00  0.00    -0.055 C 
ATOM      8  C   UNL     1       7.460   0.744  -2.644  0.00  0.00    +0.469 C 
ATOM      9  N   UNL     1       7.182  -0.495  -2.789  0.00  0.00    -0.484 NA
ATOM     10  H   UNL     1       8.010  -1.074  -2.957  0.00  0.00    +0.317 HD
ENDROOT
BRANCH   1  11
ATOM     11  C   UNL     1       4.415   3.036  -2.564  0.00  0.00    +0.065 C 
ATOM     12  C   UNL     1       3.053   3.003  -1.863  0.00  0.00    +0.291 C 
BRANCH  11  13
ATOM     13  C   UNL     1       4.274   3.217  -4.091  0.00  0.00    +0.166 C 
BRANCH  13  15
ATOM     14  C   UNL     1       3.584   4.728  -6.000  0.00  0.00    +0.256 C 
ATOM     15  C   UNL     1       3.668   4.567  -4.490  0.00  0.00    +0.182 C 
ENDBRANCH  13  15
ENDBRANCH  11  13
ENDBRANCH   1  11
BRANCH   5  16
ATOM     16  C   UNL     1       8.933   4.875  -2.678  0.00  0.00    +0.532 C 
ATOM     17  O   UNL     1       8.111   5.752  -2.444  0.00  0.00    -0.484 OA
BRANCH  16  18
ATOM     18  N   UNL     1      10.110   5.394  -3.263  0.00  0.00    -0.651 NA
ATOM     19  C   UNL     1      10.699   6.603  -2.606  0.00  0.00    +0.228 C 
ATOM     20  C   UNL     1      12.107   7.216  -2.636  0.00  0.00    +0.054 C 
ATOM     21  C   UNL     1      13.044   6.283  -3.426  0.00  0.00    +0.068 C 
ATOM     22  C   UNL     1      12.793   4.973  -4.063  0.00  0.00    +0.327 C 
ATOM     23  F   UNL     1      12.915   5.059  -5.402  0.00  0.00    -0.265 F 
ATOM     24  F   UNL     1      13.607   4.018  -3.586  0.00  0.00    -0.261 F 
ATOM     25  C   UNL     1      11.343   4.702  -3.733  0.00  0.00    +0.192 C 
ATOM     26  H   UNL     1       9.689   5.852  -4.085  0.00  0.00    +0.315 HD
ENDBRANCH  16  18
ENDBRANCH   5  16
TORSDOF 5
