REMARK  Name = 
REMARK  7 active torsions:
REMARK  status: ('A' for Active; 'I' for Inactive)
REMARK    1  A    between atoms: N_1  and  C_2
REMARK    2  A    between atoms: C_2  and  C_4
REMARK    3  A    between atoms: C_7  and  N_8
REMARK    4  A    between atoms: N_8  and  C_9
REMARK    5  A    between atoms: N_17  and  C_18
REMARK    6  A    between atoms: C_18  and  C_19
REMARK    7  A    between atoms: C_19  and  C_20
REMARK                            x       y       z     vdW  Elec       q    Type
REMARK                         _______ _______ _______ _____ _____    ______ ____
ROOT
ATOM      1  C   UNL     1       3.341   0.747  -0.900  0.00  0.00    -0.082 C 
ATOM      2  C   UNL     1       2.742   1.018  -2.307  0.00  0.00    +0.126 C 
ATOM      3  C   UNL     1       2.471   2.448  -2.696  0.00  0.00    -0.086 C 
ATOM      4  C   UNL     1       2.742   3.490  -1.890  0.00  0.00    +0.515 C 
ATOM      5  N   UNL     1       3.290   3.233  -0.668  0.00  0.00    -0.755 N 
ATOM      6  C   UNL     1       3.640   2.028  -0.123  0.00  0.00    +0.488 C 
ATOM      7  N   UNL     1       4.271   2.118   1.022  0.00  0.00    -0.509 NA
ATOM      8  H   UNL     1       3.528   4.014  -0.084  0.00  0.00    +0.311 HD
ENDROOT
BRANCH   1   9
ATOM      9  C   UNL     1       2.419  -0.214  -0.160  0.00  0.00    +0.527 C 
ATOM     10  O   UNL     1       1.465   0.146   0.518  0.00  0.00    -0.532 OA
BRANCH   9  11
ATOM     11  N   UNL     1       2.749  -1.492  -0.384  0.00  0.00    -0.646 NA
ATOM     12  H   UNL     1       2.095  -2.059   0.172  0.00  0.00    +0.286 HD
ENDBRANCH   9  11
ENDBRANCH   1   9
BRANCH   4  13
ATOM     13  N   UNL     1       2.474   4.808  -2.198  0.00  0.00    -0.709 N 
ATOM     14  H   UNL     1       2.656   5.393  -1.390  0.00  0.00    +0.289 HD
BRANCH  13  15
ATOM     15  C   UNL     1       2.685   5.490  -3.372  0.00  0.00    +0.228 C 
ATOM     16  C   UNL     1       2.844   6.916  -3.176  0.00  0.00    -0.120 C 
ATOM     17  C   UNL     1       1.924   7.994  -3.793  0.00  0.00    +0.106 C 
ATOM     18  N   UNL     1       0.774   7.923  -4.730  0.00  0.00    -0.580 NA
ATOM     19  C   UNL     1       0.837   6.455  -4.976  0.00  0.00    +0.106 C 
ATOM     20  C   UNL     1       1.693   5.298  -4.399  0.00  0.00    -0.109 C 
ATOM     21  H   UNL     1       0.990   8.431  -5.584  0.00  0.00    +0.250 HD
ENDBRANCH  13  15
ENDBRANCH   4  13
BRANCH   7  22
ATOM     22  C   UNL     1       4.643   1.013   1.668  0.00  0.00    +0.180 C 
BRANCH  22  23
ATOM     23  C   UNL     1       5.060  -0.196   2.506  0.00  0.00    -0.072 C 
BRANCH  23  24
ATOM     24  C   UNL     1       5.431  -1.286   3.337  0.00  0.00    +0.008 C 
ATOM     25  C   UNL     1       4.937  -2.560   3.077  0.00  0.00    -0.029 C 
ATOM     26  C   UNL     1       5.300  -3.622   3.902  0.00  0.00    -0.046 C 
ATOM     27  C   UNL     1       6.150  -3.404   4.986  0.00  0.00    -0.051 C 
ATOM     28  C   UNL     1       6.639  -2.127   5.245  0.00  0.00    -0.049 C 
ATOM     29  C   UNL     1       6.278  -1.065   4.421  0.00  0.00    -0.044 C 
ENDBRANCH  23  24
ENDBRANCH  22  23
ENDBRANCH   7  22
TORSDOF 7
