REMARK  Name = 
REMARK  10 active torsions:
REMARK  status: ('A' for Active; 'I' for Inactive)
REMARK    1  A    between atoms: C_1  and  C_2
REMARK    2  A    between atoms: C_2  and  C_3
REMARK    3  A    between atoms: C_2  and  C_4
REMARK    4  A    between atoms: C_2  and  O_5
REMARK    5  A    between atoms: O_5  and  C_6
REMARK    6  A    between atoms: C_11  and  C_12
REMARK    7  A    between atoms: C_12  and  N_13
REMARK    8  A    between atoms: N_13  and  C_14
REMARK    9  A    between atoms: C_17  and  C_18
REMARK   10  A    between atoms: C_18  and  N_19
REMARK                            x       y       z     vdW  Elec       q    Type
REMARK                         _______ _______ _______ _____ _____    ______ ____
ROOT
ATOM      1  C   UNL     1       5.975   5.436   4.504  0.00  0.00    +0.212 C 
ENDROOT
BRANCH   1   7
ATOM      2  C   UNL     1       4.439   1.038   1.015  0.00  0.00    +0.710 C 
ATOM      3  O   UNL     1       3.331   0.522   1.034  0.00  0.00    -0.547 OA
ATOM      4  N   UNL     1       4.724   2.251   1.629  0.00  0.00    -0.551 N 
ATOM      5  C   UNL     1       3.896   2.992   2.434  0.00  0.00    +0.215 C 
ATOM      6  C   UNL     1       4.126   4.286   3.260  0.00  0.00    -0.028 C 
ATOM      7  C   UNL     1       5.418   4.944   3.293  0.00  0.00    -0.042 C 
ATOM      8  C   UNL     1       6.282   4.276   2.343  0.00  0.00    -0.028 C 
ATOM      9  C   UNL     1       5.892   2.970   1.620  0.00  0.00    +0.215 C 
BRANCH   2  10
ATOM     10  O   UNL     1       5.539   0.517   0.403  0.00  0.00    -0.556 OA
BRANCH  10  12
ATOM     11  C   UNL     1       4.549  -0.421  -1.615  0.00  0.00    +0.137 C 
ATOM     12  C   UNL     1       5.425  -0.693  -0.390  0.00  0.00    +0.360 C 
ATOM     13  C   UNL     1       4.930  -1.882   0.444  0.00  0.00    +0.144 C 
ATOM     14  C   UNL     1       6.851  -1.009  -0.869  0.00  0.00    +0.124 C 
ENDBRANCH  10  12
ENDBRANCH   2  10
ENDBRANCH   1   7
BRANCH   1  15
ATOM     15  N   UNL     1       6.646   5.779   5.739  0.00  0.00    -0.842 NA
ATOM     16  H   UNL     1       7.220   6.623   5.617  0.00  0.00    +0.327 HD
ATOM     17  H   UNL     1       5.993   5.956   6.506  0.00  0.00    +0.315 HD
BRANCH  15  18
ATOM     18  C   UNL     1       7.605   4.815   6.214  0.00  0.00    +0.419 C 
ATOM     19  C   UNL     1       7.302   3.461   6.243  0.00  0.00    -0.088 C 
ATOM     20  C   UNL     1       8.244   2.617   6.804  0.00  0.00    +0.049 C 
ATOM     21  C   UNL     1       9.419   3.148   7.325  0.00  0.00    -0.155 C 
ATOM     22  C   UNL     1       9.617   4.518   7.231  0.00  0.00    +0.261 C 
ATOM     23  N   UNL     1       8.723   5.381   6.676  0.00  0.00    -0.459 NA
BRANCH  21  24
ATOM     24  C   UNL     1      10.436   2.348   8.027  0.00  0.00    +0.563 C 
ATOM     25  O   UNL     1      11.410   2.951   8.459  0.00  0.00    -0.484 OA
BRANCH  24  26
ATOM     26  N   UNL     1      10.223   1.045   8.154  0.00  0.00    -0.561 NA
ATOM     27  H   UNL     1       9.349   0.724   7.735  0.00  0.00    +0.289 HD
ENDBRANCH  24  26
ENDBRANCH  21  24
ENDBRANCH  15  18
ENDBRANCH   1  15
TORSDOF 7
