REMARK  Name = 
REMARK  5 active torsions:
REMARK  status: ('A' for Active; 'I' for Inactive)
REMARK    1  A    between atoms: C_5  and  C_6
REMARK    2  A    between atoms: C_6  and  O_7
REMARK    3  A    between atoms: N_8  and  C_9
REMARK    4  A    between atoms: C_9  and  C_10
REMARK    5  A    between atoms: C_16  and  N_17
REMARK                            x       y       z     vdW  Elec       q    Type
REMARK                         _______ _______ _______ _____ _____    ______ ____
ROOT
ATOM      1  N   UNL     1       1.143  -0.006   0.365  0.00  0.00    -0.629 NA
ATOM      2  C   UNL     1       2.396   0.039   0.062  0.00  0.00    +0.499 C 
ATOM      3  C   UNL     1       3.137   1.344  -0.116  0.00  0.00    +0.021 C 
ATOM      4  C   UNL     1       4.109   1.257  -1.293  0.00  0.00    +0.145 C 
ATOM      5  C   UNL     1       4.904  -0.066  -1.306  0.00  0.00    -0.025 C 
ATOM      6  C   UNL     1       3.986  -1.295  -1.202  0.00  0.00    +0.427 C 
ATOM      7  N   UNL     1       3.092  -1.132  -0.072  0.00  0.00    -0.704 N 
ATOM      8  H   UNL     1       0.754   0.941   0.441  0.00  0.00    +0.274 HD
ATOM      9  H   UNL     1       2.451  -1.918   0.023  0.00  0.00    +0.307 HD
ENDROOT
BRANCH   6  10
ATOM     10  N   UNL     1       3.326  -1.519  -2.482  0.00  0.00    -0.774 NA
ATOM     11  H   UNL     1       2.728  -0.719  -2.688  0.00  0.00    +0.298 HD
ATOM     12  H   UNL     1       2.686  -2.306  -2.392  0.00  0.00    +0.299 HD
ENDBRANCH   6  10
BRANCH   5  13
ATOM     13  C   UNL     1       5.958   0.039  -0.227  0.00  0.00    +0.451 C 
ATOM     14  N   UNL     1       7.077   0.629  -0.504  0.00  0.00    -0.500 NA
BRANCH  13  15
ATOM     15  O   UNL     1       5.619  -0.334   1.021  0.00  0.00    -0.604 OA
ATOM     16  H   UNL     1       4.715  -0.695   1.084  0.00  0.00    +0.325 HD
ENDBRANCH  13  15
BRANCH  14  17
ATOM     17  C   UNL     1       7.819   1.058   0.522  0.00  0.00    +0.238 C 
BRANCH  17  18
ATOM     18  C   UNL     1       8.415   1.740   1.621  0.00  0.00    -0.057 C 
ATOM     19  C   UNL     1       7.711   2.807   2.178  0.00  0.00    +0.011 C 
ATOM     20  C   UNL     1       8.241   3.505   3.256  0.00  0.00    -0.009 C 
ATOM     21  C   UNL     1       9.477   3.133   3.775  0.00  0.00    -0.002 C 
ATOM     22  C   UNL     1      10.182   2.070   3.210  0.00  0.00    -0.006 C 
ATOM     23  C   UNL     1       9.653   1.369   2.127  0.00  0.00    +0.013 C 
ENDBRANCH  17  18
ENDBRANCH  14  17
ENDBRANCH   5  13
TORSDOF 5
