REMARK  Name = 
REMARK  5 active torsions:
REMARK  status: ('A' for Active; 'I' for Inactive)
REMARK    1  A    between atoms: N_1  and  C_2
REMARK    2  A    between atoms: C_2  and  C_4
REMARK    3  A    between atoms: C_7  and  N_8
REMARK    4  A    between atoms: N_16  and  C_17
REMARK    5  A    between atoms: C_17  and  C_18
REMARK                            x       y       z     vdW  Elec       q    Type
REMARK                         _______ _______ _______ _____ _____    ______ ____
ROOT
ATOM      1  C   UNL     1       3.349  -0.173   1.219  0.00  0.00    -0.127 A 
ATOM      2  C   UNL     1       4.377   0.587   1.649  0.00  0.00    +0.099 A 
ATOM      3  C   UNL     1       5.007   0.433   2.944  0.00  0.00    -0.081 A 
ATOM      4  C   UNL     1       4.529  -0.427   3.878  0.00  0.00    +0.438 A 
ATOM      5  N   UNL     1       3.435  -1.197   3.497  0.00  0.00    -0.721 N 
ATOM      6  C   UNL     1       2.870  -1.207   2.220  0.00  0.00    +0.455 A 
ATOM      7  N   UNL     1       1.954  -2.065   1.856  0.00  0.00    -0.471 NA
ATOM      8  H   UNL     1       3.209  -1.966   4.103  0.00  0.00    +0.307 HD
ENDROOT
BRANCH   4   9
ATOM      9  N   UNL     1       5.144  -0.569   5.129  0.00  0.00    -0.485 N 
ATOM     10  C   UNL     1       4.310  -1.051   6.263  0.00  0.00    +0.117 C 
ATOM     11  C   UNL     1       4.089  -0.584   7.719  0.00  0.00    -0.074 C 
ATOM     12  C   UNL     1       4.885   0.666   8.135  0.00  0.00    -0.042 C 
ATOM     13  C   UNL     1       5.811   1.318   7.094  0.00  0.00    -0.082 C 
ATOM     14  C   UNL     1       5.829   0.616   5.720  0.00  0.00    +0.091 C 
ENDBRANCH   4   9
BRANCH   1  15
ATOM     15  C   UNL     1       2.648   0.136  -0.076  0.00  0.00    +0.529 C 
ATOM     16  O   UNL     1       1.483  -0.184  -0.281  0.00  0.00    -0.524 OA
BRANCH  15  17
ATOM     17  N   UNL     1       3.387   0.817  -0.950  0.00  0.00    -0.650 NA
ATOM     18  H   UNL     1       2.769   0.997  -1.749  0.00  0.00    +0.285 HD
ENDBRANCH  15  17
ENDBRANCH   1  15
BRANCH   7  19
ATOM     19  C   UNL     1       1.312  -2.798   2.769  0.00  0.00    +0.185 C 
BRANCH  19  20
ATOM     20  C   UNL     1       0.438  -3.349   3.746  0.00  0.00    -0.063 C 
ATOM     21  C   UNL     1      -0.912  -3.001   3.684  0.00  0.00    -0.012 C 
ATOM     22  C   UNL     1      -1.769  -3.343   4.722  0.00  0.00    -0.049 C 
ATOM     23  C   UNL     1      -1.273  -4.029   5.827  0.00  0.00    -0.047 C 
ATOM     24  C   UNL     1       0.073  -4.393   5.879  0.00  0.00    -0.046 C 
ATOM     25  C   UNL     1       0.935  -4.047   4.840  0.00  0.00    -0.031 C 
ENDBRANCH  19  20
ENDBRANCH   7  19
TORSDOF 5
