REMARK  Name = 
REMARK  4 active torsions:
REMARK  status: ('A' for Active; 'I' for Inactive)
REMARK    1  A    between atoms: C_5  and  C_6
REMARK    2  A    between atoms: C_6  and  N_8
REMARK    3  A    between atoms: N_12  and  C_13
REMARK    4  A    between atoms: C_13  and  C_14
REMARK                            x       y       z     vdW  Elec       q    Type
REMARK                         _______ _______ _______ _____ _____    ______ ____
ROOT
ATOM      1  N   UNL     1       1.217   0.127   0.394  0.00  0.00    -0.869 N 
ATOM      2  C   UNL     1       2.491   0.056   0.071  0.00  0.00    +0.668 C 
ATOM      3  C   UNL     1       3.284   1.306  -0.053  0.00  0.00    +0.122 C 
ATOM      4  C   UNL     1       4.330   1.213  -1.176  0.00  0.00    +0.254 C 
ATOM      5  C   UNL     1       5.167  -0.075  -1.107  0.00  0.00    -0.034 C 
ATOM      6  C   UNL     1       4.206  -1.227  -1.048  0.00  0.00    +0.507 C 
ATOM      7  N   UNL     1       4.094  -2.291  -1.754  0.00  0.00    -0.441 NA
ATOM      8  N   UNL     1       3.043  -1.089  -0.239  0.00  0.00    -0.717 N 
ATOM      9  H   UNL     1       0.753   1.016   0.547  0.00  0.00    +0.365 HD
ATOM     10  H   UNL     1       0.628  -0.700   0.416  0.00  0.00    +0.377 HD
ATOM     11  H   UNL     1       2.517  -1.947  -0.130  0.00  0.00    +0.366 HD
ENDROOT
BRANCH   5  12
ATOM     12  C   UNL     1       6.051  -0.072   0.135  0.00  0.00    +0.583 C 
ATOM     13  O   UNL     1       5.608  -0.516   1.195  0.00  0.00    -0.459 OA
BRANCH  12  14
ATOM     14  N   UNL     1       7.276   0.523  -0.027  0.00  0.00    -0.650 NA
ATOM     15  C   UNL     1       7.970   0.514   0.925  0.00  0.00    +0.815 C 
ATOM     16  O   UNL     1       8.651   0.530   1.878  0.00  0.00    -0.476 OA
ENDBRANCH  12  14
ENDBRANCH   5  12
BRANCH   7  17
ATOM     17  C   UNL     1       4.707  -2.545  -2.906  0.00  0.00    +0.255 C 
BRANCH  17  18
ATOM     18  C   UNL     1       4.913  -3.112  -4.199  0.00  0.00    -0.046 C 
ATOM     19  C   UNL     1       3.783  -3.608  -4.861  0.00  0.00    +0.080 C 
ATOM     20  C   UNL     1       3.919  -4.411  -5.989  0.00  0.00    +0.071 C 
ATOM     21  C   UNL     1       5.192  -4.720  -6.454  0.00  0.00    +0.080 C 
ATOM     22  C   UNL     1       6.317  -4.197  -5.814  0.00  0.00    +0.073 C 
ATOM     23  C   UNL     1       6.182  -3.399  -4.678  0.00  0.00    +0.075 C 
ENDBRANCH  17  18
ENDBRANCH   7  17
TORSDOF 4
