REMARK  Name = 
REMARK  5 active torsions:
REMARK  status: ('A' for Active; 'I' for Inactive)
REMARK    1  A    between atoms: C_2  and  N_3
REMARK    2  A    between atoms: C_2  and  C_19
REMARK    3  A    between atoms: C_4  and  O_5
REMARK    4  A    between atoms: C_4  and  C_6
REMARK    5  A    between atoms: N_10  and  C_11
REMARK                            x       y       z     vdW  Elec       q    Type
REMARK                         _______ _______ _______ _____ _____    ______ ____
ROOT
ATOM      1  C   UNL     1       2.939  -1.473  -3.165  0.00  0.00    -0.133 C 
ATOM      2  C   UNL     1       2.419  -1.396  -4.448  0.00  0.00    +0.072 C 
ATOM      3  C   UNL     1       3.166  -1.881  -5.512  0.00  0.00    -0.108 C 
ATOM      4  C   UNL     1       4.427  -2.420  -5.263  0.00  0.00    +0.414 C 
ATOM      5  N   UNL     1       5.250  -2.899  -6.284  0.00  0.00    -0.655 N 
ATOM      6  N   UNL     1       4.938  -2.517  -4.019  0.00  0.00    -0.469 NA
ATOM      7  C   UNL     1       4.186  -2.044  -2.995  0.00  0.00    +0.226 C 
ATOM      8  H   UNL     1       6.174  -3.058  -5.896  0.00  0.00    +0.301 HD
ENDROOT
BRANCH   5   9
ATOM      9  C   UNL     1       5.194  -2.500  -7.588  0.00  0.00    +0.223 C 
ATOM     10  C   UNL     1       4.157  -3.112  -8.386  0.00  0.00    -0.044 C 
ATOM     11  C   UNL     1       4.249  -3.844  -9.743  0.00  0.00    -0.030 C 
ATOM     12  C   UNL     1       5.646  -3.892 -10.390  0.00  0.00    -0.043 C 
ATOM     13  C   UNL     1       6.806  -3.199  -9.653  0.00  0.00    -0.032 C 
ATOM     14  C   UNL     1       6.445  -2.547  -8.303  0.00  0.00    -0.071 C 
ENDBRANCH   5   9
BRANCH   1  16
ATOM     15  N   UNL     1       2.683  -1.062  -0.801  0.00  0.00    -0.525 NA
ATOM     16  C   UNL     1       2.217  -0.984  -1.994  0.00  0.00    +0.490 C 
BRANCH  15  18
ATOM     17  O   UNL     1       0.844  -0.102   0.140  0.00  0.00    -0.537 OA
ATOM     18  C   UNL     1       1.966  -0.607   0.283  0.00  0.00    +0.457 C 
BRANCH  18  19
ATOM     19  C   UNL     1       2.674  -0.819   1.525  0.00  0.00    +0.080 A 
ATOM     20  C   UNL     1       2.119  -0.514   2.746  0.00  0.00    +0.176 A 
ATOM     21  N   UNL     1       2.981  -0.806   3.733  0.00  0.00    -0.248 NA
ATOM     22  N   UNL     1       4.076  -1.295   3.092  0.00  0.00    -0.083 NA
ATOM     23  N   UNL     1       3.917  -1.317   1.741  0.00  0.00    -0.211 NA
ENDBRANCH  18  19
ENDBRANCH  15  18
BRANCH  16  24
ATOM     24  O   UNL     1       1.023  -0.460  -2.334  0.00  0.00    -0.605 OA
ATOM     25  H   UNL     1       0.561  -0.144  -1.530  0.00  0.00    +0.354 HD
ENDBRANCH  16  24
ENDBRANCH   1  16
TORSDOF 5
