REMARK  Name = 
REMARK  6 active torsions:
REMARK  status: ('A' for Active; 'I' for Inactive)
REMARK    1  A    between atoms: N_1  and  C_2
REMARK    2  A    between atoms: C_2  and  C_4
REMARK    3  A    between atoms: N_8  and  C_9
REMARK    4  A    between atoms: N_17  and  C_18
REMARK    5  A    between atoms: C_18  and  C_19
REMARK    6  A    between atoms: C_19  and  C_20
REMARK                            x       y       z     vdW  Elec       q    Type
REMARK                         _______ _______ _______ _____ _____    ______ ____
ROOT
ATOM      1  C   UNL     1       3.236   0.173   1.311  0.00  0.00    -0.081 C 
ATOM      2  C   UNL     1       2.792   1.560   0.854  0.00  0.00    +0.103 C 
ATOM      3  C   UNL     1       3.899   2.552   0.578  0.00  0.00    -0.022 C 
ATOM      4  C   UNL     1       5.311   2.009   0.532  0.00  0.00    +0.474 C 
ATOM      5  N   UNL     1       6.276   2.961   0.245  0.00  0.00    -0.707 N 
ATOM      6  N   UNL     1       5.607   0.759   0.663  0.00  0.00    -0.494 NA
ATOM      7  C   UNL     1       4.661  -0.196   0.927  0.00  0.00    +0.430 C 
ATOM      8  N   UNL     1       5.112  -1.401   0.758  0.00  0.00    -0.464 NA
ATOM      9  H   UNL     1       5.933   3.873  -0.021  0.00  0.00    +0.271 HD
ENDROOT
BRANCH   5  10
ATOM     10  C   UNL     1       7.594   2.757  -0.054  0.00  0.00    +0.264 C 
ATOM     11  C   UNL     1       8.344   3.862  -0.583  0.00  0.00    -0.134 C 
ATOM     12  C   UNL     1       9.829   4.127  -0.236  0.00  0.00    +0.104 C 
ATOM     13  N   UNL     1      10.812   3.443   0.647  0.00  0.00    -0.578 NA
ATOM     14  C   UNL     1       9.908   2.342   1.094  0.00  0.00    +0.110 C 
ATOM     15  C   UNL     1       8.428   1.975   0.813  0.00  0.00    -0.062 C 
ATOM     16  H   UNL     1      11.010   4.041   1.448  0.00  0.00    +0.253 HD
ENDBRANCH   5  10
BRANCH   1  17
ATOM     17  C   UNL     1       2.867  -0.070   2.767  0.00  0.00    +0.521 C 
ATOM     18  O   UNL     1       2.061  -0.941   3.091  0.00  0.00    -0.545 OA
BRANCH  17  19
ATOM     19  N   UNL     1       3.463   0.761   3.610  0.00  0.00    -0.619 NA
ATOM     20  H   UNL     1       3.129   0.494   4.550  0.00  0.00    +0.279 HD
ENDBRANCH  17  19
ENDBRANCH   1  17
BRANCH   8  21
ATOM     21  C   UNL     1       4.327  -2.460   0.996  0.00  0.00    +0.167 C 
BRANCH  21  22
ATOM     22  C   UNL     1       3.493  -3.702   1.285  0.00  0.00    -0.065 C 
BRANCH  22  23
ATOM     23  C   UNL     1       2.759  -4.887   1.577  0.00  0.00    +0.007 C 
ATOM     24  C   UNL     1       1.516  -4.806   2.191  0.00  0.00    -0.022 C 
ATOM     25  C   UNL     1       0.814  -5.972   2.485  0.00  0.00    -0.046 C 
ATOM     26  C   UNL     1       1.358  -7.213   2.166  0.00  0.00    -0.052 C 
ATOM     27  C   UNL     1       2.606  -7.291   1.553  0.00  0.00    -0.049 C 
ATOM     28  C   UNL     1       3.310  -6.126   1.258  0.00  0.00    -0.043 C 
ENDBRANCH  22  23
ENDBRANCH  21  22
ENDBRANCH   8  21
TORSDOF 6
