REMARK  Name = 
REMARK  5 active torsions:
REMARK  status: ('A' for Active; 'I' for Inactive)
REMARK    1  A    between atoms: C_2  and  N_3
REMARK    2  A    between atoms: C_2  and  C_11
REMARK    3  A    between atoms: C_4  and  O_5
REMARK    4  A    between atoms: C_4  and  C_6
REMARK    5  A    between atoms: N_15  and  C_16
REMARK                            x       y       z     vdW  Elec       q    Type
REMARK                         _______ _______ _______ _____ _____    ______ ____
ROOT
ATOM      1  C   UNL     1       3.113   0.527  -0.802  0.00  0.00    -0.069 A 
ATOM      2  C   UNL     1       2.887   1.893  -0.939  0.00  0.00    +0.214 A 
ATOM      3  C   UNL     1       3.726   2.643  -1.759  0.00  0.00    +0.019 A 
ATOM      4  C   UNL     1       4.800   2.031  -2.422  0.00  0.00    +0.522 A 
ATOM      5  N   UNL     1       5.619   2.794  -3.264  0.00  0.00    -0.647 N 
ATOM      6  N   UNL     1       4.960   0.706  -2.279  0.00  0.00    -0.654 N 
ATOM      7  C   UNL     1       4.166  -0.054  -1.501  0.00  0.00    +0.361 A 
ATOM      8  H   UNL     1       5.551   3.793  -3.075  0.00  0.00    +0.314 HD
ATOM      9  H   UNL     1       5.711   0.258  -2.804  0.00  0.00    +0.323 HD
ENDROOT
BRANCH   5  10
ATOM     10  C   UNL     1       6.871   2.451  -3.715  0.00  0.00    +0.259 C 
ATOM     11  C   UNL     1       7.686   3.584  -4.078  0.00  0.00    -0.017 C 
ATOM     12  C   UNL     1       8.289   3.814  -5.482  0.00  0.00    +0.224 C 
ATOM     13  N   UNL     1       8.258   3.011  -6.729  0.00  0.00    -0.493 NA
ATOM     14  C   UNL     1       7.561   1.823  -6.172  0.00  0.00    +0.221 C 
ATOM     15  C   UNL     1       6.908   1.504  -4.802  0.00  0.00    -0.014 C 
ATOM     16  H   UNL     1       9.204   2.784  -7.034  0.00  0.00    +0.317 HD
ENDBRANCH   5  10
BRANCH   1  18
ATOM     17  O   UNL     1       1.313   0.239   0.676  0.00  0.00    -0.493 OA
ATOM     18  C   UNL     1       2.246  -0.286   0.090  0.00  0.00    +0.543 C 
BRANCH  18  19
ATOM     19  N   UNL     1       2.607  -1.597   0.194  0.00  0.00    -0.534 NA
ATOM     20  C   UNL     1       1.980  -2.360   1.022  0.00  0.00    +0.487 C 
BRANCH  20  21
ATOM     21  C   UNL     1       2.318  -3.726   1.191  0.00  0.00    +0.164 A 
ATOM     22  C   UNL     1       3.292  -4.495   0.592  0.00  0.00    +0.252 A 
ATOM     23  N   UNL     1       3.243  -5.767   1.077  0.00  0.00    -0.141 NA
ATOM     24  N   UNL     1       2.263  -5.826   1.968  0.00  0.00    +0.063 NA
ATOM     25  N   UNL     1       1.708  -4.608   2.039  0.00  0.00    -0.396 N 
ATOM     26  H   UNL     1       0.934  -4.449   2.675  0.00  0.00    +0.335 HD
ENDBRANCH  20  21
BRANCH  20  27
ATOM     27  O   UNL     1       0.960  -1.995   1.825  0.00  0.00    -0.553 OA
ATOM     28  H   UNL     1       0.726  -1.053   1.685  0.00  0.00    +0.395 HD
ENDBRANCH  20  27
ENDBRANCH  18  19
ENDBRANCH   1  18
TORSDOF 5
