REMARK  Name = 
REMARK  4 active torsions:
REMARK  status: ('A' for Active; 'I' for Inactive)
REMARK    1  A    between atoms: N_3  and  C_4
REMARK    2  A    between atoms: C_10  and  C_11
REMARK    3  A    between atoms: N_13  and  C_14
REMARK    4  A    between atoms: C_14  and  C_15
REMARK                            x       y       z     vdW  Elec       q    Type
REMARK                         _______ _______ _______ _____ _____    ______ ____
ROOT
ATOM      1  C   UNL     1       4.175   0.466  -1.110  0.00  0.00    +0.397 C 
ATOM      2  N   UNL     1       3.977   1.894  -0.944  0.00  0.00    -0.660 N 
ATOM      3  C   UNL     1       2.804   2.503  -1.288  0.00  0.00    +0.528 C 
ATOM      4  N   UNL     1       2.363   3.542  -0.665  0.00  0.00    -0.611 NA
ATOM      5  C   UNL     1       2.021   1.995  -2.476  0.00  0.00    +0.113 C 
ATOM      6  C   UNL     1       2.157   0.491  -2.669  0.00  0.00    +0.189 C 
ATOM      7  C   UNL     1       3.577  -0.044  -2.432  0.00  0.00    -0.012 C 
ATOM      8  H   UNL     1       4.415   2.253  -0.105  0.00  0.00    +0.306 HD
ATOM      9  H   UNL     1       2.994   3.796   0.095  0.00  0.00    +0.300 HD
ENDROOT
BRANCH   7  10
ATOM     10  C   UNL     1       4.515   0.295  -3.578  0.00  0.00    +0.536 C 
ATOM     11  O   UNL     1       4.354   1.257  -4.332  0.00  0.00    -0.506 OA
ATOM     12  N   UNL     1       5.608  -0.511  -3.769  0.00  0.00    -0.700 N 
ATOM     13  H   UNL     1       6.142  -0.203  -4.577  0.00  0.00    +0.324 HD
BRANCH  12  14
ATOM     14  C   UNL     1       5.945  -1.752  -3.352  0.00  0.00    +0.241 C 
BRANCH  14  15
ATOM     15  C   UNL     1       6.317  -3.112  -3.143  0.00  0.00    -0.069 C 
ATOM     16  C   UNL     1       7.381  -3.632  -3.881  0.00  0.00    +0.021 C 
ATOM     17  C   UNL     1       7.640  -4.999  -3.866  0.00  0.00    +0.007 C 
ATOM     18  C   UNL     1       6.830  -5.848  -3.116  0.00  0.00    +0.012 C 
ATOM     19  C   UNL     1       5.781  -5.326  -2.361  0.00  0.00    +0.011 C 
ATOM     20  C   UNL     1       5.518  -3.957  -2.380  0.00  0.00    +0.030 C 
ENDBRANCH  14  15
ENDBRANCH  12  14
ENDBRANCH   7  10
BRANCH   1  23
ATOM     21  N   UNL     1       4.680  -2.288   0.632  0.00  0.00    -0.172 NA
ATOM     22  N   UNL     1       4.150  -1.324   0.338  0.00  0.00    -0.024 NA
ATOM     23  N   UNL     1       3.574  -0.274   0.010  0.00  0.00    -0.260 NA
ENDBRANCH   1  23
TORSDOF 4
