REMARK  Name = 
REMARK  5 active torsions:
REMARK  status: ('A' for Active; 'I' for Inactive)
REMARK    1  A    between atoms: C_2  and  C_3
REMARK    2  A    between atoms: C_3  and  C_12
REMARK    3  A    between atoms: N_4  and  C_5
REMARK    4  A    between atoms: C_5  and  C_6
REMARK    5  A    between atoms: C_18  and  N_19
REMARK                            x       y       z     vdW  Elec       q    Type
REMARK                         _______ _______ _______ _____ _____    ______ ____
ROOT
ATOM      1  C   UNL     1       4.908   1.170  -0.282  0.00  0.00    +0.022 C 
ATOM      2  C   UNL     1       5.361   1.532   1.152  0.00  0.00    +0.196 C 
ATOM      3  C   UNL     1       4.432   2.528   1.850  0.00  0.00    +0.097 C 
ATOM      4  C   UNL     1       4.168   3.671   0.910  0.00  0.00    +0.518 C 
ATOM      5  N   UNL     1       4.354   4.906   1.211  0.00  0.00    -0.563 NA
ATOM      6  N   UNL     1       3.784   3.368  -0.358  0.00  0.00    -0.650 N 
ATOM      7  C   UNL     1       4.511   2.405  -1.120  0.00  0.00    +0.512 C 
ATOM      8  H   UNL     1       4.635   5.023   2.195  0.00  0.00    +0.300 HD
ATOM      9  H   UNL     1       3.409   4.174  -0.855  0.00  0.00    +0.332 HD
ENDROOT
BRANCH   7  10
ATOM     10  N   UNL     1       5.698   3.157  -1.546  0.00  0.00    -1.008 N 
ATOM     11  H   UNL     1       6.180   3.559  -0.734  0.00  0.00    +0.352 HD
ATOM     12  H   UNL     1       5.397   3.963  -2.104  0.00  0.00    +0.354 HD
ATOM     13  H   UNL     1       6.358   2.610  -2.108  0.00  0.00    +0.344 HD
ENDBRANCH   7  10
BRANCH   1  14
ATOM     14  C   UNL     1       3.766   0.169  -0.283  0.00  0.00    +0.166 C 
ATOM     15  N   UNL     1       2.649   0.449  -0.872  0.00  0.00    -0.394 NA
BRANCH  14  17
ATOM     16  N   UNL     1       4.197  -2.165   0.799  0.00  0.00    -0.278 NA
ATOM     17  C   UNL     1       3.964  -1.135   0.317  0.00  0.00    +0.206 C 
ENDBRANCH  14  17
BRANCH  15  18
ATOM     18  C   UNL     1       1.606  -0.391  -0.882  0.00  0.00    +0.235 C 
BRANCH  18  19
ATOM     19  C   UNL     1       0.402  -1.154  -0.897  0.00  0.00    -0.046 C 
ATOM     20  C   UNL     1      -0.812  -0.483  -1.036  0.00  0.00    +0.063 C 
ATOM     21  C   UNL     1      -2.008  -1.194  -1.005  0.00  0.00    +0.055 C 
ATOM     22  C   UNL     1      -1.986  -2.576  -0.834  0.00  0.00    +0.063 C 
ATOM     23  C   UNL     1      -0.770  -3.245  -0.702  0.00  0.00    +0.057 C 
ATOM     24  C   UNL     1       0.428  -2.535  -0.733  0.00  0.00    +0.066 C 
ENDBRANCH  18  19
ENDBRANCH  15  18
ENDBRANCH   1  14
TORSDOF 5
