REMARK  Name = 
REMARK  5 active torsions:
REMARK  status: ('A' for Active; 'I' for Inactive)
REMARK    1  A    between atoms: C_4  and  C_5
REMARK    2  A    between atoms: C_5  and  N_6
REMARK    3  A    between atoms: C_7  and  O_8
REMARK    4  A    between atoms: C_7  and  C_9
REMARK    5  A    between atoms: N_13  and  C_14
REMARK                            x       y       z     vdW  Elec       q    Type
REMARK                         _______ _______ _______ _____ _____    ______ ____
ROOT
ATOM      1  C   UNL     1       8.832  -2.917   0.372  0.00  0.00    +0.005 C 
ATOM      2  C   UNL     1       9.345  -1.484   0.484  0.00  0.00    +0.135 C 
ATOM      3  C   UNL     1       9.155  -0.658  -0.790  0.00  0.00    +0.045 C 
ATOM      4  C   UNL     1       9.438  -1.414  -2.044  0.00  0.00    +0.553 C 
ATOM      5  N   UNL     1       9.742  -0.687  -3.109  0.00  0.00    -0.734 N 
ATOM      6  N   UNL     1       9.422  -2.737  -2.038  0.00  0.00    -0.647 N 
ATOM      7  C   UNL     1       9.437  -3.598  -0.845  0.00  0.00    +0.275 C 
ATOM      8  H   UNL     1       9.612   0.319  -3.062  0.00  0.00    +0.299 HD
ATOM      9  H   UNL     1       9.280  -3.189  -2.939  0.00  0.00    +0.298 HD
ENDROOT
BRANCH   5  10
ATOM     10  C   UNL     1      10.438  -1.165  -4.208  0.00  0.00    +0.259 C 
ATOM     11  C   UNL     1      11.478  -2.147  -3.965  0.00  0.00    -0.073 C 
ATOM     12  C   UNL     1      12.979  -1.913  -4.256  0.00  0.00    +0.148 C 
ATOM     13  N   UNL     1      13.708  -0.788  -4.891  0.00  0.00    -0.550 NA
ATOM     14  C   UNL     1      12.517  -0.027  -5.347  0.00  0.00    +0.152 C 
ATOM     15  C   UNL     1      10.996  -0.166  -5.087  0.00  0.00    -0.077 C 
ATOM     16  H   UNL     1      14.271  -1.108  -5.679  0.00  0.00    +0.277 HD
ENDBRANCH   5  10
BRANCH   1  18
ATOM     17  N   UNL     1       6.754  -2.357  -0.715  0.00  0.00    -0.498 NA
ATOM     18  C   UNL     1       7.341  -3.038   0.198  0.00  0.00    +0.455 C 
BRANCH  18  19
ATOM     19  O   UNL     1       6.767  -3.972   0.967  0.00  0.00    -0.618 OA
ATOM     20  H   UNL     1       5.802  -3.972   0.842  0.00  0.00    +0.307 HD
ENDBRANCH  18  19
BRANCH  17  21
ATOM     21  C   UNL     1       5.588  -2.717  -1.252  0.00  0.00    +0.197 C 
BRANCH  21  25
ATOM     22  N   UNL     1       3.437  -0.712  -4.670  0.00  0.00    -0.557 NA
ATOM     23  C   UNL     1       3.967  -1.836  -4.346  0.00  0.00    +0.433 C 
ATOM     24  C   UNL     1       4.081  -2.115  -2.912  0.00  0.00    -0.080 C 
ATOM     25  C   UNL     1       4.598  -3.097  -2.202  0.00  0.00    -0.016 C 
ATOM     26  C   UNL     1       4.933  -4.096  -3.204  0.00  0.00    -0.050 C 
ATOM     27  C   UNL     1       4.888  -3.922  -4.389  0.00  0.00    +0.159 C 
ATOM     28  N   UNL     1       4.437  -2.765  -5.212  0.00  0.00    -0.386 NA
ATOM     29  H   UNL     1       3.142  -0.212  -3.830  0.00  0.00    +0.285 HD
ENDBRANCH  21  25
ENDBRANCH  17  21
ENDBRANCH   1  18
TORSDOF 5
