REMARK  Name = 
REMARK  5 active torsions:
REMARK  status: ('A' for Active; 'I' for Inactive)
REMARK    1  A    between atoms: N_1  and  C_2
REMARK    2  A    between atoms: C_2  and  C_4
REMARK    3  A    between atoms: C_7  and  N_8
REMARK    4  A    between atoms: N_16  and  C_17
REMARK    5  A    between atoms: C_17  and  C_18
REMARK                            x       y       z     vdW  Elec       q    Type
REMARK                         _______ _______ _______ _____ _____    ______ ____
ROOT
ATOM      1  C   UNL     1       3.222   1.119  -0.555  0.00  0.00    -0.078 C 
ATOM      2  C   UNL     1       3.929   1.560   0.728  0.00  0.00    +0.180 C 
ATOM      3  C   UNL     1       3.012   2.483   1.497  0.00  0.00    +0.067 C 
ATOM      4  C   UNL     1       2.725   3.747   0.675  0.00  0.00    +0.382 C 
ATOM      5  N   UNL     1       2.507   3.456  -0.751  0.00  0.00    -0.687 N 
ATOM      6  C   UNL     1       2.835   2.322  -1.369  0.00  0.00    +0.533 C 
ATOM      7  N   UNL     1       2.852   2.190  -2.685  0.00  0.00    -0.679 N 
ATOM      8  H   UNL     1       2.131   4.199  -1.323  0.00  0.00    +0.320 HD
ATOM      9  H   UNL     1       3.067   1.210  -2.989  0.00  0.00    +0.346 HD
ENDROOT
BRANCH   4  10
ATOM     10  N   UNL     1       1.644   4.622   1.150  0.00  0.00    -0.403 NA
ATOM     11  C   UNL     1       2.057   5.176   2.481  0.00  0.00    +0.099 C 
ATOM     12  C   UNL     1       1.702   5.009   3.977  0.00  0.00    -0.034 C 
ATOM     13  C   UNL     1       0.525   4.059   4.244  0.00  0.00    +0.001 C 
ATOM     14  C   UNL     1      -0.155   3.445   3.008  0.00  0.00    -0.037 C 
ATOM     15  C   UNL     1       0.473   3.830   1.643  0.00  0.00    +0.126 C 
ENDBRANCH   4  10
BRANCH   1  16
ATOM     16  C   UNL     1       4.148   0.207  -1.342  0.00  0.00    +0.549 C 
ATOM     17  O   UNL     1       5.281  -0.070  -0.997  0.00  0.00    -0.525 OA
BRANCH  16  18
ATOM     18  N   UNL     1       3.580  -0.210  -2.476  0.00  0.00    -0.658 NA
ATOM     19  H   UNL     1       4.248  -0.862  -2.908  0.00  0.00    +0.313 HD
ENDBRANCH  16  18
ENDBRANCH   1  16
BRANCH   7  20
ATOM     20  C   UNL     1       3.121   3.222  -3.628  0.00  0.00    +0.220 C 
BRANCH  20  21
ATOM     21  C   UNL     1       3.664   4.076  -4.634  0.00  0.00    -0.061 C 
ATOM     22  C   UNL     1       3.818   3.582  -5.929  0.00  0.00    +0.017 C 
ATOM     23  C   UNL     1       4.501   4.327  -6.888  0.00  0.00    -0.001 C 
ATOM     24  C   UNL     1       5.044   5.563  -6.547  0.00  0.00    +0.003 C 
ATOM     25  C   UNL     1       4.896   6.055  -5.252  0.00  0.00    -0.002 C 
ATOM     26  C   UNL     1       4.214   5.309  -4.291  0.00  0.00    +0.010 C 
ENDBRANCH  20  21
ENDBRANCH   7  20
TORSDOF 5
