REMARK  Name = 
REMARK  6 active torsions:
REMARK  status: ('A' for Active; 'I' for Inactive)
REMARK    1  A    between atoms: C_2  and  C_3
REMARK    2  A    between atoms: C_2  and  O_7
REMARK    3  A    between atoms: O_7  and  C_8
REMARK    4  A    between atoms: C_8  and  C_17
REMARK    5  A    between atoms: N_9  and  C_10
REMARK    6  A    between atoms: C_10  and  C_11
REMARK                            x       y       z     vdW  Elec       q    Type
REMARK                         _______ _______ _______ _____ _____    ______ ____
ROOT
ATOM      1  C   UNL     1       7.357  -6.973   4.280  0.00  0.00    +0.484 C 
ATOM      2  N   UNL     1       6.359  -7.636   4.748  0.00  0.00    -0.392 NA
ENDROOT
BRANCH   1   3
ATOM      3  C   UNL     1       7.259  -6.351   2.947  0.00  0.00    -0.132 C 
ATOM      4  C   UNL     1       7.866  -5.248   2.597  0.00  0.00    +0.129 C 
ATOM      5  C   UNL     1       8.343  -4.798   1.347  0.00  0.00    -0.065 C 
ATOM      6  C   UNL     1       8.936  -3.696   1.015  0.00  0.00    +0.101 C 
ATOM      7  C   UNL     1       9.373  -3.213  -0.365  0.00  0.00    -0.003 C 
ATOM      8  C   UNL     1       9.090  -4.088  -1.141  0.00  0.00    +0.244 C 
ATOM      9  N   UNL     1       8.500  -5.439  -1.168  0.00  0.00    -0.572 N 
ATOM     10  C   UNL     1       8.039  -5.805   0.169  0.00  0.00    +0.419 C 
ATOM     11  N   UNL     1       7.344  -7.009   0.491  0.00  0.00    -0.674 N 
ATOM     12  C   UNL     1       7.073  -7.087   1.724  0.00  0.00    +0.357 C 
ATOM     13  H   UNL     1       7.941  -5.735  -1.963  0.00  0.00    +0.324 HD
ATOM     14  H   UNL     1       7.194  -7.741  -0.198  0.00  0.00    +0.339 HD
ENDBRANCH   1   3
BRANCH   1  15
ATOM     15  O   UNL     1       8.504  -6.686   4.958  0.00  0.00    -0.535 OA
BRANCH  15  17
ATOM     16  O   UNL     1       9.667  -7.847   3.360  0.00  0.00    -0.493 OA
ATOM     17  C   UNL     1       9.632  -7.040   4.285  0.00  0.00    +0.593 C 
BRANCH  17  18
ATOM     18  C   UNL     1      10.826  -6.256   4.615  0.00  0.00    -0.018 C 
ATOM     19  C   UNL     1      10.835  -5.089   5.258  0.00  0.00    +0.472 C 
ATOM     20  F   UNL     1       9.707  -4.539   5.745  0.00  0.00    -0.273 F 
ATOM     21  F   UNL     1      11.998  -4.409   5.348  0.00  0.00    -0.277 F 
ENDBRANCH  17  18
ENDBRANCH  15  17
ENDBRANCH   1  15
BRANCH   2  22
ATOM     22  C   UNL     1       6.395  -8.082   6.143  0.00  0.00    +0.315 C 
BRANCH  22  23
ATOM     23  C   UNL     1       7.060  -9.414   6.385  0.00  0.00    +0.081 A 
ATOM     24  C   UNL     1       7.334 -10.323   5.355  0.00  0.00    +0.119 A 
ATOM     25  C   UNL     1       7.986 -11.528   5.628  0.00  0.00    +0.128 A 
ATOM     26  C   UNL     1       8.343 -11.851   6.935  0.00  0.00    +0.119 A 
ATOM     27  C   UNL     1       8.025 -10.983   7.976  0.00  0.00    +0.131 A 
ATOM     28  C   UNL     1       7.381  -9.776   7.703  0.00  0.00    +0.078 A 
ENDBRANCH  22  23
ENDBRANCH   2  22
TORSDOF 6
