REMARK  Name = 
REMARK  7 active torsions:
REMARK  status: ('A' for Active; 'I' for Inactive)
REMARK    1  A    between atoms: N_1  and  C_2
REMARK    2  A    between atoms: C_2  and  C_4
REMARK    3  A    between atoms: C_7  and  N_8
REMARK    4  A    between atoms: N_8  and  C_9
REMARK    5  A    between atoms: N_17  and  C_18
REMARK    6  A    between atoms: C_18  and  C_19
REMARK    7  A    between atoms: C_19  and  C_20
REMARK                            x       y       z     vdW  Elec       q    Type
REMARK                         _______ _______ _______ _____ _____    ______ ____
ROOT
ATOM      1  C   UNL     1       3.061   0.514   1.256  0.00  0.00    -0.087 C 
ATOM      2  C   UNL     1       4.321  -0.376   1.422  0.00  0.00    +0.104 C 
ATOM      3  C   UNL     1       5.629   0.314   1.716  0.00  0.00    -0.148 C 
ATOM      4  C   UNL     1       5.747   1.650   1.762  0.00  0.00    +0.490 C 
ATOM      5  N   UNL     1       4.657   2.420   1.532  0.00  0.00    -0.751 N 
ATOM      6  C   UNL     1       3.355   2.019   1.388  0.00  0.00    +0.477 C 
ATOM      7  N   UNL     1       2.475   2.985   1.470  0.00  0.00    -0.522 NA
ATOM      8  H   UNL     1       4.781   3.399   1.732  0.00  0.00    +0.310 HD
ENDROOT
BRANCH   1   9
ATOM      9  C   UNL     1       2.384   0.125  -0.057  0.00  0.00    +0.524 C 
ATOM     10  O   UNL     1       2.677   0.626  -1.137  0.00  0.00    -0.546 OA
BRANCH   9  11
ATOM     11  N   UNL     1       1.493  -0.852   0.111  0.00  0.00    -0.663 NA
ATOM     12  H   UNL     1       1.061  -1.006  -0.807  0.00  0.00    +0.281 HD
ENDBRANCH   9  11
ENDBRANCH   1   9
BRANCH   4  13
ATOM     13  N   UNL     1       6.924   2.273   2.130  0.00  0.00    -0.704 N 
ATOM     14  H   UNL     1       7.390   1.668   2.804  0.00  0.00    +0.247 HD
BRANCH  13  15
ATOM     15  C   UNL     1       7.915   2.675   1.121  0.00  0.00    +0.221 C 
ATOM     16  C   UNL     1       7.374   3.663   0.085  0.00  0.00    +0.033 C 
ATOM     17  C   UNL     1       8.504   4.116  -0.843  0.00  0.00    +0.146 C 
ATOM     18  N   UNL     1       9.633   4.702  -0.109  0.00  0.00    -0.567 NA
ATOM     19  C   UNL     1      10.161   3.762   0.880  0.00  0.00    +0.132 C 
ATOM     20  C   UNL     1       9.087   3.325   1.865  0.00  0.00    -0.019 C 
ATOM     21  H   UNL     1       9.302   5.539   0.373  0.00  0.00    +0.233 HD
ENDBRANCH  13  15
ENDBRANCH   4  13
BRANCH   7  22
ATOM     22  C   UNL     1       1.181   2.696   1.385  0.00  0.00    +0.169 C 
BRANCH  22  23
ATOM     23  C   UNL     1      -0.310   2.385   1.285  0.00  0.00    -0.087 C 
BRANCH  23  24
ATOM     24  C   UNL     1      -1.671   2.027   1.148  0.00  0.00    +0.007 C 
ATOM     25  C   UNL     1      -1.999   0.902   0.396  0.00  0.00    -0.034 C 
ATOM     26  C   UNL     1      -3.328   0.519   0.264  0.00  0.00    -0.059 C 
ATOM     27  C   UNL     1      -4.328   1.261   0.888  0.00  0.00    -0.065 C 
ATOM     28  C   UNL     1      -4.000   2.388   1.642  0.00  0.00    -0.063 C 
ATOM     29  C   UNL     1      -2.667   2.774   1.774  0.00  0.00    -0.060 C 
ENDBRANCH  23  24
ENDBRANCH  22  23
ENDBRANCH   7  22
TORSDOF 7
