REMARK  Name = 
REMARK  6 active torsions:
REMARK  status: ('A' for Active; 'I' for Inactive)
REMARK    1  A    between atoms: C_1  and  C_2
REMARK    2  A    between atoms: C_5  and  N_6
REMARK    3  A    between atoms: C_9  and  C_10
REMARK    4  A    between atoms: C_10  and  N_12
REMARK    5  A    between atoms: C_13  and  C_14
REMARK    6  A    between atoms: N_21  and  N_22
REMARK                            x       y       z     vdW  Elec       q    Type
REMARK                         _______ _______ _______ _____ _____    ______ ____
ROOT
ATOM      1  C   UNL     1       0.975  -0.171   0.053  0.00  0.00    +0.157 C 
ATOM      2  C   UNL     1       2.476  -0.057  -0.066  0.00  0.00    +0.567 C 
ATOM      3  O   UNL     1       3.044  -0.658  -0.985  0.00  0.00    -0.486 OA
ATOM      4  N   UNL     1       3.204   0.673   0.888  0.00  0.00    -0.582 N 
ATOM      5  C   UNL     1       2.810   0.705   2.242  0.00  0.00    +0.493 A 
ATOM      6  C   UNL     1       3.580   1.359   3.122  0.00  0.00    -0.076 A 
ATOM      7  C   UNL     1       4.840   1.911   2.755  0.00  0.00    +0.126 A 
ATOM      8  C   UNL     1       5.279   1.940   1.487  0.00  0.00    -0.102 A 
ATOM      9  C   UNL     1       4.329   1.439   0.391  0.00  0.00    +0.374 A 
ATOM     10  N   UNL     1       4.319   1.580  -0.904  0.00  0.00    -0.196 NA
ENDROOT
BRANCH   5  11
ATOM     11  N   UNL     1       1.688   0.074   2.748  0.00  0.00    -0.843 N 
ATOM     12  H   UNL     1       1.637  -0.910   2.488  0.00  0.00    +0.306 HD
ATOM     13  H   UNL     1       1.584   0.143   3.761  0.00  0.00    +0.302 HD
ENDBRANCH   5  11
BRANCH  10  14
ATOM     14  N   UNL     1       5.366   2.258  -1.493  0.00  0.00    -0.261 N 
ATOM     15  N   UNL     1       5.331   2.334  -2.744  0.00  0.00    -0.079 NA
ATOM     16  H   UNL     1       6.177   2.648  -0.999  0.00  0.00    +0.324 HD
ENDBRANCH  10  14
BRANCH   8  17
ATOM     17  C   UNL     1       6.662   2.493   1.289  0.00  0.00    +0.490 C 
ATOM     18  O   UNL     1       7.033   2.837   0.171  0.00  0.00    -0.541 OA
BRANCH  17  19
ATOM     19  N   UNL     1       7.399   2.576   2.431  0.00  0.00    -0.482 NA
ATOM     20  C   UNL     1       8.681   2.719   2.348  0.00  0.00    +0.252 C 
BRANCH  20  21
ATOM     21  C   UNL     1       9.503   2.869   3.567  0.00  0.00    +0.028 A 
ATOM     22  C   UNL     1       8.896   2.880   4.828  0.00  0.00    +0.061 A 
ATOM     23  C   UNL     1       9.666   3.103   5.968  0.00  0.00    +0.046 A 
ATOM     24  C   UNL     1      11.039   3.306   5.848  0.00  0.00    +0.043 A 
ATOM     25  C   UNL     1      11.647   3.269   4.592  0.00  0.00    +0.054 A 
ATOM     26  C   UNL     1      10.882   3.046   3.446  0.00  0.00    +0.023 A 
ENDBRANCH  20  21
ENDBRANCH  17  19
ENDBRANCH   8  17
TORSDOF 5
