REMARK  Name = 
REMARK  6 active torsions:
REMARK  status: ('A' for Active; 'I' for Inactive)
REMARK    1  A    between atoms: C_2  and  C_3
REMARK    2  A    between atoms: C_2  and  O_7
REMARK    3  A    between atoms: O_7  and  C_8
REMARK    4  A    between atoms: C_8  and  O_9
REMARK    5  A    between atoms: N_10  and  C_11
REMARK    6  A    between atoms: C_11  and  C_12
REMARK                            x       y       z     vdW  Elec       q    Type
REMARK                         _______ _______ _______ _____ _____    ______ ____
ROOT
ATOM      1  C   UNL     1       4.398   1.049   0.483  0.00  0.00    +0.699 C 
ATOM      2  N   UNL     1       4.912   2.097   1.007  0.00  0.00    -0.397 NA
ENDROOT
BRANCH   1   3
ATOM      3  O   UNL     1       5.137   0.050  -0.043  0.00  0.00    -0.607 OA
ATOM      4  H   UNL     1       4.592  -0.678  -0.398  0.00  0.00    +0.384 HD
ENDBRANCH   1   3
BRANCH   1   5
ATOM      5  O   UNL     1       3.050   0.937   0.452  0.00  0.00    -0.548 OA
BRANCH   5   7
ATOM      6  O   UNL     1       3.018  -1.102  -0.585  0.00  0.00    -0.520 OA
ATOM      7  C   UNL     1       2.453  -0.136  -0.087  0.00  0.00    +0.614 C 
BRANCH   7   8
ATOM      8  C   UNL     1       0.987  -0.053  -0.029  0.00  0.00    -0.028 C 
ATOM      9  C   UNL     1       0.287   0.956   0.492  0.00  0.00    +0.464 C 
ATOM     10  F   UNL     1       0.883   2.036   1.036  0.00  0.00    -0.272 F 
ATOM     11  F   UNL     1      -1.061   0.891   0.473  0.00  0.00    -0.290 F 
ENDBRANCH   7   8
ENDBRANCH   5   7
ENDBRANCH   1   5
BRANCH   2  12
ATOM     12  C   UNL     1       6.370   2.175   1.009  0.00  0.00    +0.323 C 
BRANCH  12  13
ATOM     13  C   UNL     1       6.832   3.461   1.642  0.00  0.00    +0.028 C 
ATOM     14  C   UNL     1       7.625   3.442   2.792  0.00  0.00    +0.014 C 
ATOM     15  C   UNL     1       8.055   4.632   3.375  0.00  0.00    +0.032 C 
ATOM     16  C   UNL     1       7.693   5.853   2.811  0.00  0.00    +0.030 C 
ATOM     17  C   UNL     1       6.904   5.884   1.665  0.00  0.00    +0.031 C 
ATOM     18  C   UNL     1       6.477   4.692   1.083  0.00  0.00    +0.045 C 
ENDBRANCH  12  13
ENDBRANCH   2  12
TORSDOF 6
