REMARK  Name = 
REMARK  5 active torsions:
REMARK  status: ('A' for Active; 'I' for Inactive)
REMARK    1  A    between atoms: N_3  and  C_4
REMARK    2  A    between atoms: C_4  and  C_6
REMARK    3  A    between atoms: C_9  and  N_10
REMARK    4  A    between atoms: N_18  and  C_19
REMARK    5  A    between atoms: C_19  and  C_20
REMARK                            x       y       z     vdW  Elec       q    Type
REMARK                         _______ _______ _______ _____ _____    ______ ____
ROOT
ATOM      1  C   UNL     1       5.514   1.160   0.076  0.00  0.00    -0.015 C 
ATOM      2  C   UNL     1       5.913  -0.311   0.112  0.00  0.00    +0.288 C 
ATOM      3  C   UNL     1       5.652  -0.939   1.480  0.00  0.00    +0.213 C 
ATOM      4  C   UNL     1       6.303  -0.176   2.636  0.00  0.00    +0.468 C 
ATOM      5  N   UNL     1       6.284   1.275   2.401  0.00  0.00    -0.650 N 
ATOM      6  C   UNL     1       6.067   1.900   1.246  0.00  0.00    +0.576 C 
ATOM      7  N   UNL     1       6.390   3.168   1.041  0.00  0.00    -0.666 N 
ATOM      8  H   UNL     1       6.396   1.878   3.214  0.00  0.00    +0.334 HD
ATOM      9  H   UNL     1       6.230   3.594   0.126  0.00  0.00    +0.341 HD
ENDROOT
BRANCH   4  10
ATOM     10  N   UNL     1       7.747  -0.509   2.781  0.00  0.00    -0.606 N 
ATOM     11  C   UNL     1       8.079  -1.946   3.046  0.00  0.00    +0.191 C 
ATOM     12  C   UNL     1       8.790  -2.765   4.144  0.00  0.00    +0.091 C 
ATOM     13  C   UNL     1       9.298  -1.938   5.336  0.00  0.00    +0.132 C 
ATOM     14  C   UNL     1       9.078  -0.419   5.301  0.00  0.00    +0.078 C 
ATOM     15  C   UNL     1       8.359   0.072   4.028  0.00  0.00    +0.197 C 
ATOM     16  H   UNL     1       8.314  -0.201   1.981  0.00  0.00    +0.317 HD
ENDBRANCH   4  10
BRANCH   1  17
ATOM     17  C   UNL     1       3.998   1.348   0.157  0.00  0.00    +0.589 C 
ATOM     18  O   UNL     1       3.463   1.378   1.262  0.00  0.00    -0.453 OA
BRANCH  17  21
ATOM     19  O   UNL     1       1.068   1.791  -1.009  0.00  0.00    -0.442 OA
ATOM     20  C   UNL     1       2.223   1.600  -1.026  0.00  0.00    +0.855 C 
ATOM     21  N   UNL     1       3.386   1.425  -1.063  0.00  0.00    -0.626 NA
ENDBRANCH  17  21
ENDBRANCH   1  17
BRANCH   7  22
ATOM     22  C   UNL     1       7.018   4.041   1.990  0.00  0.00    +0.295 C 
BRANCH  22  23
ATOM     23  C   UNL     1       7.543   5.083   2.807  0.00  0.00    -0.049 C 
ATOM     24  C   UNL     1       8.026   4.836   4.088  0.00  0.00    +0.085 C 
ATOM     25  C   UNL     1       8.353   5.912   4.913  0.00  0.00    +0.106 C 
ATOM     26  C   UNL     1       8.188   7.221   4.460  0.00  0.00    +0.122 C 
ATOM     27  C   UNL     1       7.736   7.461   3.166  0.00  0.00    +0.115 C 
ATOM     28  C   UNL     1       7.415   6.390   2.341  0.00  0.00    +0.114 C 
ENDBRANCH  22  23
ENDBRANCH   7  22
TORSDOF 5
