REMARK  Name = 
REMARK  4 active torsions:
REMARK  status: ('A' for Active; 'I' for Inactive)
REMARK    1  A    between atoms: N_1  and  C_2
REMARK    2  A    between atoms: C_7  and  O_8
REMARK    3  A    between atoms: O_8  and  C_9
REMARK    4  A    between atoms: C_9  and  C_11
REMARK                            x       y       z     vdW  Elec       q    Type
REMARK                         _______ _______ _______ _____ _____    ______ ____
ROOT
ATOM      1  C   UNL     1       2.351  -0.162   0.163  0.00  0.00    +0.579 A 
ATOM      2  N   UNL     1       3.194  -1.208   0.102  0.00  0.00    -0.646 N 
ATOM      3  C   UNL     1       4.523  -1.066   0.038  0.00  0.00    +0.729 A 
ATOM      4  N   UNL     1       5.069   0.157   0.041  0.00  0.00    -0.565 N 
ATOM      5  C   UNL     1       4.303   1.257   0.102  0.00  0.00    +0.508 A 
ATOM      6  C   UNL     1       2.917   1.123   0.163  0.00  0.00    +0.196 A 
ATOM      7  H   UNL     1       2.783  -2.142   0.139  0.00  0.00    +0.402 HD
ATOM      8  H   UNL     1       6.091   0.261   0.013  0.00  0.00    +0.396 HD
ENDROOT
BRANCH   1   9
ATOM      9  N   UNL     1       1.023  -0.434   0.386  0.00  0.00    -0.656 N 
ATOM     10  H   UNL     1       0.625  -1.366   0.321  0.00  0.00    +0.419 HD
ATOM     11  H   UNL     1       0.369   0.235  -0.054  0.00  0.00    +0.426 HD
ENDBRANCH   1   9
BRANCH   6  12
ATOM     12  O   UNL     1       2.221   2.342   0.310  0.00  0.00    -0.442 OA
BRANCH  12  13
ATOM     13  C   UNL     1       0.973   2.592  -0.253  0.00  0.00    +0.698 C 
ATOM     14  O   UNL     1       0.304   1.755  -0.836  0.00  0.00    -0.430 OA
BRANCH  13  15
ATOM     15  C   UNL     1       0.534   3.969  -0.016  0.00  0.00    +0.144 C 
ATOM     16  C   UNL     1       1.395   4.970   0.184  0.00  0.00    +0.636 C 
ATOM     17  F   UNL     1       2.729   4.760   0.166  0.00  0.00    -0.207 F 
ATOM     18  F   UNL     1       0.925   6.216   0.384  0.00  0.00    -0.186 F 
ENDBRANCH  13  15
ENDBRANCH  12  13
ENDBRANCH   6  12
TORSDOF 4
