REMARK  Name = 
REMARK  3 active torsions:
REMARK  status: ('A' for Active; 'I' for Inactive)
REMARK    1  A    between atoms: C_5  and  C_6
REMARK    2  A    between atoms: C_18  and  N_20
REMARK    3  A    between atoms: N_20  and  C_21
REMARK                            x       y       z     vdW  Elec       q    Type
REMARK                         _______ _______ _______ _____ _____    ______ ____
ROOT
ATOM      1  N   UNL     1       1.016  -0.197   0.119  0.00  0.00    -0.600 NA
ATOM      2  C   UNL     1       2.306  -0.171   0.079  0.00  0.00    +0.468 C 
ATOM      3  C   UNL     1       3.083   1.134   0.060  0.00  0.00    +0.047 C 
ATOM      4  C   UNL     1       4.168   1.138  -1.014  0.00  0.00    +0.111 C 
ATOM      5  C   UNL     1       5.026  -0.132  -0.956  0.00  0.00    -0.019 C 
ATOM      6  C   UNL     1       4.091  -1.338  -1.034  0.00  0.00    +0.280 C 
ATOM      7  N   UNL     1       3.108  -1.319   0.034  0.00  0.00    -0.520 N 
ATOM      8  C   UNL     1       3.041  -2.449   0.877  0.00  0.00    +0.655 C 
ATOM      9  O   UNL     1       3.738  -3.444   0.662  0.00  0.00    -0.543 OA
ATOM     10  H   UNL     1       0.642   0.743   0.213  0.00  0.00    +0.272 HD
ENDROOT
BRANCH   5  11
ATOM     11  C   UNL     1       5.901  -0.204   0.304  0.00  0.00    +0.494 C 
ATOM     12  O   UNL     1       5.964   0.718   1.116  0.00  0.00    -0.518 OA
ATOM     13  N   UNL     1       6.677  -1.355   0.410  0.00  0.00    -0.509 N 
ATOM     14  C   UNL     1       7.294  -1.836   1.535  0.00  0.00    +0.207 C 
ATOM     15  C   UNL     1       8.392  -2.879   1.819  0.00  0.00    -0.053 C 
ATOM     16  C   UNL     1       8.887  -3.387   0.449  0.00  0.00    -0.017 C 
ATOM     17  C   UNL     1       8.432  -2.958  -0.890  0.00  0.00    +0.269 C 
ATOM     18  F   UNL     1       9.417  -2.268  -1.516  0.00  0.00    -0.315 F 
ATOM     19  F   UNL     1       8.077  -3.996  -1.674  0.00  0.00    -0.314 F 
ATOM     20  C   UNL     1       7.297  -2.049  -0.609  0.00  0.00    +0.137 C 
ENDBRANCH   5  11
BRANCH   8  21
ATOM     21  N   UNL     1       2.249  -2.277   1.933  0.00  0.00    -0.423 NA
BRANCH  21  22
ATOM     22  C   UNL     1       1.916  -3.468   2.715  0.00  0.00    +0.230 C 
ATOM     23  C   UNL     1       0.726  -4.231   2.102  0.00  0.00    +0.088 C 
ATOM     24  C   UNL     1      -0.519  -3.365   2.302  0.00  0.00    +0.459 C 
ATOM     25  S   UNL     1      -0.326  -2.654   3.930  0.00  0.00    -0.914 S 
ATOM     26  O   UNL     1      -0.561  -1.225   3.890  0.00  0.00    -0.183 OA
ATOM     27  O   UNL     1      -1.064  -3.484   4.874  0.00  0.00    -0.208 OA
ATOM     28  C   UNL     1       1.422  -3.024   4.107  0.00  0.00    +0.419 C 
ENDBRANCH  21  22
ENDBRANCH   8  21
TORSDOF 3
