REMARK  Name = 
REMARK  5 active torsions:
REMARK  status: ('A' for Active; 'I' for Inactive)
REMARK    1  A    between atoms: C_2  and  N_3
REMARK    2  A    between atoms: C_2  and  C_6
REMARK    3  A    between atoms: C_9  and  N_10
REMARK    4  A    between atoms: N_18  and  C_19
REMARK    5  A    between atoms: C_19  and  C_20
REMARK                            x       y       z     vdW  Elec       q    Type
REMARK                         _______ _______ _______ _____ _____    ______ ____
ROOT
ATOM      1  C   UNL     1       3.039  -0.111  -1.065  0.00  0.00    -0.037 C 
ATOM      2  C   UNL     1       2.624   1.248  -1.663  0.00  0.00    +0.215 C 
ATOM      3  C   UNL     1       1.175   1.251  -2.181  0.00  0.00    +0.164 C 
ATOM      4  C   UNL     1       0.867   0.068  -3.138  0.00  0.00    +0.371 C 
ATOM      5  N   UNL     1       1.265  -1.157  -2.418  0.00  0.00    -0.600 N 
ATOM      6  C   UNL     1       2.584  -1.204  -2.020  0.00  0.00    +0.482 C 
ATOM      7  N   UNL     1       3.307  -2.148  -2.547  0.00  0.00    -0.450 NA
ATOM      8  H   UNL     1       1.094  -1.959  -3.024  0.00  0.00    +0.320 HD
ENDROOT
BRANCH   4   9
ATOM      9  N   UNL     1       1.446   0.313  -4.480  0.00  0.00    -0.397 NA
ATOM     10  C   UNL     1       0.722   1.427  -5.162  0.00  0.00    +0.116 C 
ATOM     11  C   UNL     1      -0.258   1.632  -6.339  0.00  0.00    +0.002 C 
ATOM     12  C   UNL     1      -0.632   0.343  -7.088  0.00  0.00    +0.038 C 
ATOM     13  C   UNL     1       0.027  -0.957  -6.601  0.00  0.00    +0.006 C 
ATOM     14  C   UNL     1       0.978  -0.778  -5.395  0.00  0.00    +0.142 C 
ENDBRANCH   4   9
BRANCH   1  16
ATOM     15  O   UNL     1       1.770   0.550   0.891  0.00  0.00    -0.478 OA
ATOM     16  C   UNL     1       2.430  -0.322   0.324  0.00  0.00    +0.586 C 
BRANCH  16  17
ATOM     17  N   UNL     1       2.747  -1.536   0.890  0.00  0.00    -0.686 NA
ATOM     18  C   UNL     1       2.003  -1.922   1.714  0.00  0.00    +0.946 C 
ATOM     19  S   UNL     1       1.016  -2.502   2.820  0.00  0.00    -1.092 S 
ENDBRANCH  16  17
ENDBRANCH   1  16
BRANCH   7  20
ATOM     20  C   UNL     1       4.638  -2.200  -2.426  0.00  0.00    +0.232 C 
BRANCH  20  21
ATOM     21  C   UNL     1       6.054  -2.339  -2.541  0.00  0.00    -0.050 C 
ATOM     22  C   UNL     1       6.854  -1.213  -2.716  0.00  0.00    +0.024 C 
ATOM     23  C   UNL     1       8.217  -1.362  -2.967  0.00  0.00    +0.027 C 
ATOM     24  C   UNL     1       8.776  -2.635  -3.058  0.00  0.00    +0.033 C 
ATOM     25  C   UNL     1       7.973  -3.761  -2.892  0.00  0.00    +0.031 C 
ATOM     26  C   UNL     1       6.611  -3.613  -2.640  0.00  0.00    +0.055 C 
ENDBRANCH  20  21
ENDBRANCH   7  20
TORSDOF 5
