REMARK  Name = 
REMARK  7 active torsions:
REMARK  status: ('A' for Active; 'I' for Inactive)
REMARK    1  A    between atoms: N_3  and  C_4
REMARK    2  A    between atoms: C_7  and  C_8
REMARK    3  A    between atoms: C_8  and  N_9
REMARK    4  A    between atoms: C_12  and  C_13
REMARK    5  A    between atoms: C_13  and  O_14
REMARK    6  A    between atoms: N_15  and  C_16
REMARK    7  A    between atoms: C_16  and  C_17
REMARK                            x       y       z     vdW  Elec       q    Type
REMARK                         _______ _______ _______ _____ _____    ______ ____
ROOT
ATOM      1  C   UNL     1       4.679  -0.793  -3.239  0.00  0.00    +0.437 A 
ATOM      2  N   UNL     1       5.520  -1.766  -2.843  0.00  0.00    -0.647 N 
ATOM      3  C   UNL     1       5.582  -2.234  -1.592  0.00  0.00    +0.293 A 
ATOM      4  C   UNL     1       4.718  -1.731  -0.635  0.00  0.00    -0.106 A 
ATOM      5  C   UNL     1       3.799  -0.744  -0.986  0.00  0.00    +0.142 A 
ATOM      6  C   UNL     1       3.780  -0.260  -2.294  0.00  0.00    -0.133 A 
ATOM      7  H   UNL     1       6.136  -2.154  -3.552  0.00  0.00    +0.311 HD
ENDROOT
BRANCH   1  10
ATOM      8  N   UNL     1       4.905   1.811  -5.156  0.00  0.00    -0.178 NA
ATOM      9  N   UNL     1       4.848   0.704  -4.890  0.00  0.00    +0.019 NA
ATOM     10  N   UNL     1       4.844  -0.510  -4.601  0.00  0.00    -0.295 NA
ENDBRANCH   1  10
BRANCH   4  11
ATOM     11  C   UNL     1       4.806  -2.177   0.761  0.00  0.00    +0.542 C 
ATOM     12  O   UNL     1       4.445  -1.380   1.617  0.00  0.00    -0.491 OA
BRANCH  11  13
ATOM     13  N   UNL     1       5.314  -3.380   0.969  0.00  0.00    -0.569 NA
ATOM     14  H   UNL     1       5.166  -4.021   0.187  0.00  0.00    +0.281 HD
ENDBRANCH  11  13
ENDBRANCH   4  11
BRANCH   6  15
ATOM     15  C   UNL     1       2.781   0.750  -2.673  0.00  0.00    +0.450 C 
ATOM     16  N   UNL     1       2.238   0.749  -3.834  0.00  0.00    -0.387 NA
BRANCH  15  17
ATOM     17  O   UNL     1       2.518   1.697  -1.755  0.00  0.00    -0.606 OA
ATOM     18  H   UNL     1       2.999   1.627  -0.913  0.00  0.00    +0.310 HD
ENDBRANCH  15  17
BRANCH  16  19
ATOM     19  C   UNL     1       1.326   1.863  -4.122  0.00  0.00    +0.260 C 
BRANCH  19  20
ATOM     20  C   UNL     1       0.878   1.837  -5.566  0.00  0.00    +0.072 A 
ATOM     21  C   UNL     1       0.226   0.709  -6.083  0.00  0.00    +0.063 A 
ATOM     22  C   UNL     1      -0.223   0.691  -7.405  0.00  0.00    +0.067 A 
ATOM     23  C   UNL     1      -0.025   1.801  -8.224  0.00  0.00    +0.055 A 
ATOM     24  C   UNL     1       0.627   2.927  -7.724  0.00  0.00    +0.070 A 
ATOM     25  C   UNL     1       1.077   2.945  -6.402  0.00  0.00    +0.039 A 
ENDBRANCH  19  20
ENDBRANCH  16  19
ENDBRANCH   6  15
TORSDOF 7
