REMARK  Name = 
REMARK  5 active torsions:
REMARK  status: ('A' for Active; 'I' for Inactive)
REMARK    1  A    between atoms: C_5  and  C_6
REMARK    2  A    between atoms: N_8  and  C_9
REMARK    3  A    between atoms: C_9  and  C_10
REMARK    4  A    between atoms: C_18  and  N_20
REMARK    5  A    between atoms: N_20  and  C_21
REMARK                            x       y       z     vdW  Elec       q    Type
REMARK                         _______ _______ _______ _____ _____    ______ ____
ROOT
ATOM      1  N   UNL     1       0.920  -0.096   0.109  0.00  0.00    -0.636 NA
ATOM      2  C   UNL     1       2.212  -0.109   0.093  0.00  0.00    +0.466 C 
ATOM      3  C   UNL     1       3.031   1.170   0.053  0.00  0.00    +0.010 C 
ATOM      4  C   UNL     1       4.062   1.142  -1.074  0.00  0.00    +0.082 C 
ATOM      5  C   UNL     1       4.893  -0.153  -1.021  0.00  0.00    -0.054 C 
ATOM      6  C   UNL     1       3.928  -1.332  -1.046  0.00  0.00    +0.216 C 
ATOM      7  N   UNL     1       2.974  -1.281   0.050  0.00  0.00    -0.530 N 
ATOM      8  C   UNL     1       2.954  -2.361   0.967  0.00  0.00    +0.634 C 
ATOM      9  O   UNL     1       3.808  -3.249   0.885  0.00  0.00    -0.577 OA
ATOM     10  H   UNL     1       0.576   0.860   0.164  0.00  0.00    +0.256 HD
ENDROOT
BRANCH   5  11
ATOM     11  C   UNL     1       5.839  -0.142   0.179  0.00  0.00    +0.498 C 
ATOM     12  O   UNL     1       6.318   0.914   0.597  0.00  0.00    -0.550 OA
ATOM     13  N   UNL     1       6.208  -1.371   0.673  0.00  0.00    -0.636 N 
ATOM     14  H   UNL     1       5.609  -2.175   0.497  0.00  0.00    +0.298 HD
BRANCH  13  15
ATOM     15  C   UNL     1       6.966  -1.474   1.893  0.00  0.00    +0.239 C 
BRANCH  15  16
ATOM     16  C   UNL     1       8.431  -1.648   1.596  0.00  0.00    +0.048 A 
ATOM     17  C   UNL     1       9.242  -0.524   1.389  0.00  0.00    +0.019 A 
ATOM     18  C   UNL     1      10.601  -0.672   1.126  0.00  0.00    -0.005 A 
ATOM     19  C   UNL     1      11.161  -1.947   1.061  0.00  0.00    -0.022 A 
ATOM     20  C   UNL     1      10.357  -3.074   1.235  0.00  0.00    -0.007 A 
ATOM     21  C   UNL     1       8.994  -2.926   1.490  0.00  0.00    -0.020 A 
ENDBRANCH  15  16
ENDBRANCH  13  15
ENDBRANCH   5  11
BRANCH   8  22
ATOM     22  N   UNL     1       2.032  -2.254   1.926  0.00  0.00    -0.430 NA
BRANCH  22  23
ATOM     23  C   UNL     1       1.834  -3.445   2.762  0.00  0.00    +0.207 C 
ATOM     24  C   UNL     1       0.402  -3.452   3.340  0.00  0.00    +0.040 C 
ATOM     25  C   UNL     1       0.324  -2.383   4.429  0.00  0.00    +0.424 C 
ATOM     26  S   UNL     1       1.934  -2.378   5.209  0.00  0.00    -0.956 S 
ATOM     27  O   UNL     1       2.488  -1.035   5.179  0.00  0.00    -0.195 OA
ATOM     28  O   UNL     1       1.833  -3.096   6.464  0.00  0.00    -0.218 OA
ATOM     29  C   UNL     1       2.740  -3.437   4.002  0.00  0.00    +0.397 C 
ENDBRANCH  22  23
ENDBRANCH   8  22
TORSDOF 5
