REMARK  Name = 
REMARK  5 active torsions:
REMARK  status: ('A' for Active; 'I' for Inactive)
REMARK    1  A    between atoms: C_2  and  C_3
REMARK    2  A    between atoms: C_3  and  C_12
REMARK    3  A    between atoms: N_4  and  C_5
REMARK    4  A    between atoms: C_5  and  C_6
REMARK    5  A    between atoms: C_17  and  N_18
REMARK                            x       y       z     vdW  Elec       q    Type
REMARK                         _______ _______ _______ _____ _____    ______ ____
ROOT
ATOM      1  C   UNL     1       3.635  -0.206   0.118  0.00  0.00    +0.177 C 
ATOM      2  N   UNL     1       4.275   0.817   0.568  0.00  0.00    -0.325 NA
ENDROOT
BRANCH   1   3
ATOM      3  C   UNL     1       4.312  -1.211  -0.728  0.00  0.00    -0.081 C 
ATOM      4  C   UNL     1       5.439  -0.762  -1.417  0.00  0.00    +0.111 C 
ATOM      5  C   UNL     1       6.161  -1.620  -2.232  0.00  0.00    +0.002 C 
ATOM      6  C   UNL     1       5.756  -2.942  -2.332  0.00  0.00    +0.308 C 
ATOM      7  N   UNL     1       4.677  -3.359  -1.649  0.00  0.00    -0.636 N 
ATOM      8  C   UNL     1       3.922  -2.554  -0.868  0.00  0.00    +0.431 C 
ATOM      9  H   UNL     1       4.454  -4.352  -1.721  0.00  0.00    +0.351 HD
BRANCH   8  10
ATOM     10  N   UNL     1       2.870  -3.131  -0.143  0.00  0.00    -0.239 NA
ATOM     11  N   UNL     1       2.253  -4.040  -0.727  0.00  0.00    +0.031 NA
ATOM     12  N   UNL     1       1.800  -4.900  -1.314  0.00  0.00    -0.064 NA
ENDBRANCH   8  10
ENDBRANCH   1   3
BRANCH   1  14
ATOM     13  N   UNL     1       1.083  -0.512   0.550  0.00  0.00    -0.243 NA
ATOM     14  C   UNL     1       2.220  -0.347   0.389  0.00  0.00    +0.231 C 
ENDBRANCH   1  14
BRANCH   2  15
ATOM     15  C   UNL     1       3.596   1.852   1.363  0.00  0.00    +0.269 C 
BRANCH  15  16
ATOM     16  C   UNL     1       4.536   2.933   1.854  0.00  0.00    +0.086 A 
ATOM     17  C   UNL     1       4.059   4.244   2.024  0.00  0.00    +0.081 A 
ATOM     18  C   UNL     1       4.876   5.239   2.566  0.00  0.00    +0.138 A 
ATOM     19  C   UNL     1       6.179   4.937   2.952  0.00  0.00    +0.125 A 
ATOM     20  C   UNL     1       6.669   3.644   2.788  0.00  0.00    +0.132 A 
ATOM     21  C   UNL     1       5.852   2.647   2.246  0.00  0.00    +0.115 A 
ENDBRANCH  15  16
ENDBRANCH   2  15
TORSDOF 5
