REMARK  Name = 
REMARK  5 active torsions:
REMARK  status: ('A' for Active; 'I' for Inactive)
REMARK    1  A    between atoms: C_1  and  C_2
REMARK    2  A    between atoms: C_2  and  C_3
REMARK    3  A    between atoms: C_2  and  N_9
REMARK    4  A    between atoms: C_11  and  C_12
REMARK    5  A    between atoms: N_14  and  C_15
REMARK                            x       y       z     vdW  Elec       q    Type
REMARK                         _______ _______ _______ _____ _____    ______ ____
ROOT
ATOM      1  N   UNL     1       3.053   0.971  -1.031  0.00  0.00    -0.433 N 
ATOM      2  C   UNL     1       3.046   2.350  -0.782  0.00  0.00    +0.280 A 
ATOM      3  C   UNL     1       3.317   3.270  -1.724  0.00  0.00    -0.076 A 
ATOM      4  C   UNL     1       3.585   2.818  -3.084  0.00  0.00    +0.164 A 
ATOM      5  C   UNL     1       3.652   1.512  -3.400  0.00  0.00    +0.053 A 
ATOM      6  C   UNL     1       3.443   0.516  -2.294  0.00  0.00    +0.443 A 
ATOM      7  N   UNL     1       3.635  -0.757  -2.509  0.00  0.00    -0.541 NA
ATOM      8  H   UNL     1       3.853  -0.903  -3.508  0.00  0.00    +0.311 HD
ENDROOT
BRANCH   3   9
ATOM      9  C   UNL     1       3.147   4.710  -1.364  0.00  0.00    +0.554 C 
ATOM     10  O   UNL     1       2.327   5.070  -0.528  0.00  0.00    -0.463 OA
ATOM     11  N   UNL     1       3.991   5.566  -2.051  0.00  0.00    -0.661 N 
ATOM     12  H   UNL     1       4.795   5.167  -2.526  0.00  0.00    +0.322 HD
BRANCH  11  13
ATOM     13  C   UNL     1       3.824   6.922  -2.140  0.00  0.00    +0.301 C 
ATOM     14  C   UNL     1       2.515   7.526  -2.073  0.00  0.00    +0.025 C 
ATOM     15  C   UNL     1       2.004   8.603  -3.058  0.00  0.00    +0.268 C 
ATOM     16  N   UNL     1       2.682   9.280  -4.190  0.00  0.00    -0.774 N 
ATOM     17  C   UNL     1       4.052   8.746  -4.022  0.00  0.00    +0.270 C 
ATOM     18  C   UNL     1       4.626   7.661  -3.080  0.00  0.00    -0.013 C 
ATOM     19  H   UNL     1       2.649  10.302  -4.100  0.00  0.00    +0.362 HD
ATOM     20  H   UNL     1       2.283   8.977  -5.086  0.00  0.00    +0.353 HD
ENDBRANCH  11  13
ENDBRANCH   3   9
BRANCH   1  22
ATOM     21  C   UNL     1       1.312   0.404   0.688  0.00  0.00    +0.286 C 
ATOM     22  C   UNL     1       2.581  -0.028  -0.049  0.00  0.00    +0.246 C 
BRANCH  22  23
ATOM     23  C   UNL     1       3.724  -0.452   0.843  0.00  0.00    +0.267 A 
ATOM     24  C   UNL     1       4.048   0.179   2.051  0.00  0.00    +0.050 A 
ATOM     25  C   UNL     1       5.103  -0.299   2.821  0.00  0.00    +0.191 A 
ATOM     26  C   UNL     1       5.824  -1.401   2.382  0.00  0.00    +0.109 A 
ATOM     27  C   UNL     1       5.499  -1.984   1.162  0.00  0.00    +0.365 A 
ATOM     28  N   UNL     1       4.491  -1.487   0.427  0.00  0.00    -0.583 N 
ATOM     29  H   UNL     1       4.298  -1.882  -0.504  0.00  0.00    +0.325 HD
ENDBRANCH  22  23
ENDBRANCH   1  22
TORSDOF 4
