REMARK  Name = 
REMARK  7 active torsions:
REMARK  status: ('A' for Active; 'I' for Inactive)
REMARK    1  A    between atoms: N_1  and  C_2
REMARK    2  A    between atoms: C_2  and  C_4
REMARK    3  A    between atoms: N_8  and  C_9
REMARK    4  A    between atoms: C_13  and  O_14
REMARK    5  A    between atoms: C_13  and  C_15
REMARK    6  A    between atoms: C_15  and  S_16
REMARK    7  A    between atoms: S_16  and  C_17
REMARK                            x       y       z     vdW  Elec       q    Type
REMARK                         _______ _______ _______ _____ _____    ______ ____
ROOT
ATOM      1  C   UNL     1       5.954  -0.607   4.791  0.00  0.00    +0.200 C 
ATOM      2  C   UNL     1       5.609   0.757   5.167  0.00  0.00    -0.073 C 
ATOM      3  C   UNL     1       5.774   1.978   4.235  0.00  0.00    +0.175 C 
ATOM      4  N   UNL     1       6.495   1.962   2.984  0.00  0.00    -0.543 N 
ATOM      5  C   UNL     1       6.164   2.606   1.928  0.00  0.00    +0.504 C 
ATOM      6  C   UNL     1       7.195   0.698   2.887  0.00  0.00    +0.120 C 
ATOM      7  C   UNL     1       6.953  -0.555   3.745  0.00  0.00    -0.078 C 
ENDROOT
BRANCH   1  12
ATOM      8  C   UNL     1       1.491   0.088   3.004  0.00  0.00    -0.128 C 
ATOM      9  C   UNL     1       2.854   0.468   2.728  0.00  0.00    +0.073 C 
ATOM     10  C   UNL     1       3.819  -0.125   3.121  0.00  0.00    -0.094 C 
ATOM     11  C   UNL     1       3.893  -1.298   4.009  0.00  0.00    +0.398 C 
ATOM     12  N   UNL     1       4.956  -1.540   4.722  0.00  0.00    -0.455 NA
ATOM     13  N   UNL     1       2.737  -1.999   4.120  0.00  0.00    -0.411 NA
ATOM     14  C   UNL     1       1.633  -1.082   3.606  0.00  0.00    +0.162 C 
BRANCH   8  15
ATOM     15  C   UNL     1       0.344   1.042   3.131  0.00  0.00    +0.521 C 
ATOM     16  O   UNL     1      -0.787   0.680   3.441  0.00  0.00    -0.526 OA
BRANCH  15  17
ATOM     17  N   UNL     1       0.673   2.310   2.853  0.00  0.00    -0.592 NA
ATOM     18  H   UNL     1      -0.200   2.841   2.952  0.00  0.00    +0.291 HD
ENDBRANCH  15  17
ENDBRANCH   8  15
ENDBRANCH   1  12
BRANCH   5  19
ATOM     19  O   UNL     1       5.025   3.318   1.892  0.00  0.00    -0.556 OA
ATOM     20  H   UNL     1       4.285   3.046   2.479  0.00  0.00    +0.316 HD
ENDBRANCH   5  19
BRANCH   5  21
ATOM     21  C   UNL     1       7.037   2.579   0.694  0.00  0.00    +0.376 C 
BRANCH  21  22
ATOM     22  S   UNL     1       7.129   4.232  -0.049  0.00  0.00    -1.327 S 
BRANCH  22  23
ATOM     23  C   UNL     1       8.047   3.838  -1.577  0.00  0.00    +0.422 C 
ATOM     24  C   UNL     1       9.549   3.546  -1.346  0.00  0.00    +0.069 C 
ATOM     25  C   UNL     1       9.842   4.452  -2.562  0.00  0.00    +0.034 C 
ATOM     26  C   UNL     1       8.499   5.149  -2.277  0.00  0.00    +0.123 C 
ENDBRANCH  22  23
ENDBRANCH  21  22
ENDBRANCH   5  21
TORSDOF 7
