REMARK  Name = 
REMARK  5 active torsions:
REMARK  status: ('A' for Active; 'I' for Inactive)
REMARK    1  A    between atoms: N_1  and  C_2
REMARK    2  A    between atoms: C_2  and  C_4
REMARK    3  A    between atoms: C_7  and  N_8
REMARK    4  A    between atoms: N_8  and  C_9
REMARK    5  A    between atoms: C_9  and  C_10
REMARK                            x       y       z     vdW  Elec       q    Type
REMARK                         _______ _______ _______ _____ _____    ______ ____
ROOT
ATOM      1  N   UNL     1       5.213   3.935  -2.806  0.00  0.00    -0.811 NA
ATOM      2  H   UNL     1       5.381   3.503  -3.720  0.00  0.00    +0.351 HD
ATOM      3  H   UNL     1       6.108   4.033  -2.312  0.00  0.00    +0.346 HD
ENDROOT
BRANCH   1   7
ATOM      4  C   UNL     1       2.808   1.408  -0.517  0.00  0.00    -0.122 C 
ATOM      5  C   UNL     1       4.180   1.178  -0.554  0.00  0.00    +0.168 C 
ATOM      6  C   UNL     1       4.988   1.991  -1.338  0.00  0.00    -0.033 C 
ATOM      7  C   UNL     1       4.372   3.013  -2.046  0.00  0.00    +0.421 C 
ATOM      8  N   UNL     1       3.045   3.265  -2.050  0.00  0.00    -0.416 NA
ATOM      9  C   UNL     1       2.293   2.436  -1.283  0.00  0.00    +0.284 C 
BRANCH   4  10
ATOM     10  C   UNL     1       1.936   0.636   0.362  0.00  0.00    +0.597 C 
ATOM     11  O   UNL     1       2.423  -0.257   1.034  0.00  0.00    -0.442 OA
BRANCH  10  12
ATOM     12  N   UNL     1       0.661   1.001   0.347  0.00  0.00    -0.504 NA
ATOM     13  H   UNL     1       0.176   0.320   0.953  0.00  0.00    +0.349 HD
ENDBRANCH  10  12
ENDBRANCH   4  10
ENDBRANCH   1   7
BRANCH   1  14
ATOM     14  C   UNL     1       4.573   5.242  -2.959  0.00  0.00    +0.285 C 
BRANCH  14  15
ATOM     15  C   UNL     1       3.610   6.306  -2.890  0.00  0.00    -0.008 C 
ATOM     16  C   UNL     1       3.145   6.641  -1.552  0.00  0.00    +0.048 C 
ATOM     17  C   UNL     1       1.714   6.381  -1.011  0.00  0.00    +0.250 C 
ATOM     18  N   UNL     1       0.507   5.881  -1.705  0.00  0.00    -0.768 N 
ATOM     19  C   UNL     1       0.987   5.911  -3.104  0.00  0.00    +0.256 C 
ATOM     20  C   UNL     1       2.404   6.151  -3.690  0.00  0.00    +0.054 C 
ATOM     21  H   UNL     1      -0.311   6.479  -1.548  0.00  0.00    +0.352 HD
ATOM     22  H   UNL     1       0.302   4.911  -1.413  0.00  0.00    +0.342 HD
ENDBRANCH  14  15
ENDBRANCH   1  14
TORSDOF 5
