REMARK  Name = 
REMARK  2 active torsions:
REMARK  status: ('A' for Active; 'I' for Inactive)
REMARK    1  A    between atoms: C_5  and  C_6
REMARK    2  A    between atoms: C_9  and  C_11
REMARK                            x       y       z     vdW  Elec       q    Type
REMARK                         _______ _______ _______ _____ _____    ______ ____
ROOT
ATOM      1  C   UNL     1       5.869  -0.255   0.317  0.00  0.00    +0.544 C 
ATOM      2  O   UNL     1       5.652  -1.217   1.048  0.00  0.00    -0.519 OA
ATOM      3  N   UNL     1       6.818   0.705   0.564  0.00  0.00    -0.749 N 
ATOM      4  C   UNL     1       7.649   0.723   1.683  0.00  0.00    +0.498 C 
ATOM      5  O   UNL     1       7.598  -0.110   2.586  0.00  0.00    -0.514 OA
ATOM      6  H   UNL     1       7.004   1.469  -0.088  0.00  0.00    +0.295 HD
ENDROOT
BRANCH   1  11
ATOM      7  N   UNL     1       1.089  -0.104   0.277  0.00  0.00    -0.670 NA
ATOM      8  C   UNL     1       2.336  -0.087  -0.067  0.00  0.00    +0.477 C 
ATOM      9  C   UNL     1       3.129   1.204  -0.030  0.00  0.00    -0.023 C 
ATOM     10  C   UNL     1       4.257   1.204  -1.053  0.00  0.00    +0.074 C 
ATOM     11  C   UNL     1       5.089  -0.081  -0.988  0.00  0.00    -0.067 C 
ATOM     12  C   UNL     1       4.172  -1.289  -1.208  0.00  0.00    +0.219 C 
ATOM     13  N   UNL     1       2.975  -1.253  -0.380  0.00  0.00    -0.628 N 
ATOM     14  H   UNL     1       0.765   0.842   0.495  0.00  0.00    +0.251 HD
ATOM     15  H   UNL     1       3.061  -1.850   0.443  0.00  0.00    +0.285 HD
ENDBRANCH   1  11
BRANCH   4  16
ATOM     16  C   UNL     1       8.531   1.856   1.582  0.00  0.00    +0.046 A 
ATOM     17  C   UNL     1       9.477   2.182   2.518  0.00  0.00    +0.153 A 
ATOM     18  N   UNL     1      10.124   3.290   2.130  0.00  0.00    -0.280 NA
ATOM     19  N   UNL     1       9.560   3.622   0.937  0.00  0.00    -0.108 NA
ATOM     20  N   UNL     1       8.576   2.759   0.568  0.00  0.00    -0.282 NA
ENDBRANCH   4  16
TORSDOF 2
