REMARK  Name = 
REMARK  7 active torsions:
REMARK  status: ('A' for Active; 'I' for Inactive)
REMARK    1  A    between atoms: C_1  and  C_2
REMARK    2  A    between atoms: C_6  and  C_7
REMARK    3  A    between atoms: C_10  and  N_11
REMARK    4  A    between atoms: C_14  and  C_15
REMARK    5  A    between atoms: N_17  and  C_18
REMARK    6  A    between atoms: C_18  and  C_19
REMARK    7  A    between atoms: C_25  and  N_26
REMARK                            x       y       z     vdW  Elec       q    Type
REMARK                         _______ _______ _______ _____ _____    ______ ____
ROOT
ATOM      1  C   UNL     1      -1.830  -2.493  -0.324  0.00  0.00    +0.460 C 
ATOM      2  O   UNL     1      -0.944  -3.335  -0.139  0.00  0.00    -0.531 OA
ATOM      3  N   UNL     1      -3.208  -2.752  -0.065  0.00  0.00    -0.548 N 
ATOM      4  C   UNL     1      -3.587  -3.909   0.625  0.00  0.00    +0.505 C 
ATOM      5  C   UNL     1      -4.882  -4.224   0.785  0.00  0.00    -0.057 C 
ATOM      6  C   UNL     1      -6.052  -3.434   0.315  0.00  0.00    +0.160 C 
ATOM      7  C   UNL     1      -5.686  -2.045  -0.181  0.00  0.00    -0.009 C 
ATOM      8  C   UNL     1      -4.249  -1.902  -0.687  0.00  0.00    +0.324 C 
ENDROOT
BRANCH   1  14
ATOM      9  C   UNL     1      -2.264   1.952  -0.817  0.00  0.00    +0.107 C 
ATOM     10  C   UNL     1      -1.171   1.320   0.050  0.00  0.00    +0.110 C 
ATOM     11  C   UNL     1       0.210   1.382  -0.609  0.00  0.00    +0.051 C 
ATOM     12  C   UNL     1       0.348   0.420  -1.786  0.00  0.00    +0.080 C 
ATOM     13  C   UNL     1      -0.040  -1.013  -1.408  0.00  0.00    +0.131 C 
ATOM     14  C   UNL     1      -1.444  -1.076  -0.782  0.00  0.00    +0.030 C 
ATOM     15  C   UNL     1      -1.513  -0.126   0.423  0.00  0.00    +0.090 C 
ENDBRANCH   1  14
BRANCH   7  16
ATOM     16  C   UNL     1      -5.999  -0.979   0.855  0.00  0.00    +0.493 C 
ATOM     17  O   UNL     1      -6.785  -0.070   0.596  0.00  0.00    -0.522 OA
ATOM     18  N   UNL     1      -5.364  -1.088   2.066  0.00  0.00    -0.644 N 
ATOM     19  H   UNL     1      -4.668  -1.808   2.222  0.00  0.00    +0.289 HD
BRANCH  18  20
ATOM     20  C   UNL     1      -5.616  -0.143   3.133  0.00  0.00    +0.276 C 
BRANCH  20  21
ATOM     21  C   UNL     1      -4.661   1.012   3.101  0.00  0.00    +0.003 C 
ATOM     22  C   UNL     1      -5.110   2.291   2.757  0.00  0.00    -0.014 C 
ATOM     23  C   UNL     1      -4.230   3.369   2.734  0.00  0.00    -0.021 C 
ATOM     24  C   UNL     1      -2.890   3.177   3.057  0.00  0.00    -0.032 C 
ATOM     25  C   UNL     1      -2.434   1.910   3.408  0.00  0.00    -0.037 C 
ATOM     26  C   UNL     1      -3.315   0.831   3.426  0.00  0.00    -0.033 C 
ENDBRANCH  20  21
ENDBRANCH  18  20
ENDBRANCH   7  16
BRANCH   4  27
ATOM     27  N   UNL     1      -2.664  -4.754   1.197  0.00  0.00    -0.827 N 
ATOM     28  H   UNL     1      -1.742  -4.640   0.758  0.00  0.00    +0.362 HD
ATOM     29  H   UNL     1      -2.944  -5.730   1.221  0.00  0.00    +0.308 HD
ENDBRANCH   4  27
BRANCH   8  30
ATOM     30  N   UNL     1      -4.202  -2.025  -2.161  0.00  0.00    -0.301 NA
ATOM     31  N   UNL     1      -4.520  -3.123  -2.647  0.00  0.00    +0.008 NA
ATOM     32  N   UNL     1      -4.832  -4.118  -3.103  0.00  0.00    -0.214 NA
ENDBRANCH   8  30
TORSDOF 6
