REMARK  Name = 
REMARK  8 active torsions:
REMARK  status: ('A' for Active; 'I' for Inactive)
REMARK    1  A    between atoms: C_1  and  C_2
REMARK    2  A    between atoms: C_2  and  C_3
REMARK    3  A    between atoms: C_3  and  O_4
REMARK    4  A    between atoms: C_3  and  C_5
REMARK    5  A    between atoms: C_9  and  C_10
REMARK    6  A    between atoms: C_10  and  N_11
REMARK    7  A    between atoms: N_16  and  C_17
REMARK    8  A    between atoms: C_17  and  C_18
REMARK                            x       y       z     vdW  Elec       q    Type
REMARK                         _______ _______ _______ _____ _____    ______ ____
ROOT
ATOM      1  C   UNL     1       4.800  -0.770   0.801  0.00  0.00    +0.468 C 
ATOM      2  O   UNL     1       3.701  -0.861   0.240  0.00  0.00    -0.511 OA
ATOM      3  N   UNL     1       5.483  -1.790   1.442  0.00  0.00    -0.578 N 
ATOM      4  C   UNL     1       6.532  -1.654   2.337  0.00  0.00    +0.212 C 
ATOM      5  C   UNL     1       7.188  -2.425   3.173  0.00  0.00    -0.180 C 
ATOM      6  C   UNL     1       6.574  -3.725   3.036  0.00  0.00    +0.033 C 
ATOM      7  C   UNL     1       5.659  -4.017   2.299  0.00  0.00    -0.104 C 
ATOM      8  C   UNL     1       4.996  -3.121   1.338  0.00  0.00    +0.421 C 
ATOM      9  N   UNL     1       4.093  -3.520   0.508  0.00  0.00    -0.455 NA
ENDROOT
BRANCH   5  10
ATOM     10  C   UNL     1       8.484  -2.004   3.770  0.00  0.00    +0.535 C 
ATOM     11  O   UNL     1       8.900  -0.866   3.558  0.00  0.00    -0.527 OA
BRANCH  10  12
ATOM     12  N   UNL     1       9.104  -2.916   4.499  0.00  0.00    -0.620 NA
ATOM     13  H   UNL     1       8.565  -3.788   4.586  0.00  0.00    +0.271 HD
ENDBRANCH  10  12
ENDBRANCH   5  10
BRANCH   1  14
ATOM     14  C   UNL     1       5.487   0.599   0.816  0.00  0.00    +0.163 C 
BRANCH  14  16
ATOM     15  C   UNL     1       5.991   0.594  -1.687  0.00  0.00    +0.121 C 
ATOM     16  C   UNL     1       6.562   0.643  -0.271  0.00  0.00    +0.103 C 
ENDBRANCH  14  16
BRANCH  14  17
ATOM     17  O   UNL     1       4.524   1.634   0.587  0.00  0.00    -0.573 OA
ATOM     18  H   UNL     1       3.825   1.221   0.040  0.00  0.00    +0.309 HD
ENDBRANCH  14  17
ENDBRANCH   1  14
BRANCH   9  19
ATOM     19  C   UNL     1       3.457  -4.680   0.677  0.00  0.00    +0.179 C 
BRANCH  19  20
ATOM     20  C   UNL     1       2.591  -5.718   1.097  0.00  0.00    -0.047 C 
ATOM     21  C   UNL     1       2.128  -5.665   2.466  0.00  0.00    -0.046 C 
ATOM     22  C   UNL     1       2.197  -6.837   3.458  0.00  0.00    +0.108 C 
ATOM     23  N   UNL     1       2.587  -8.259   3.296  0.00  0.00    -0.575 NA
ATOM     24  C   UNL     1       2.792  -8.230   1.823  0.00  0.00    +0.103 C 
ATOM     25  C   UNL     1       2.798  -7.103   0.762  0.00  0.00    -0.063 C 
ATOM     26  H   UNL     1       1.808  -8.858   3.546  0.00  0.00    +0.254 HD
ENDBRANCH  19  20
ENDBRANCH   9  19
TORSDOF 7
