REMARK  Name = 
REMARK  6 active torsions:
REMARK  status: ('A' for Active; 'I' for Inactive)
REMARK    1  A    between atoms: C_2  and  C_3
REMARK    2  A    between atoms: C_2  and  O_7
REMARK    3  A    between atoms: O_7  and  C_8
REMARK    4  A    between atoms: C_8  and  C_17
REMARK    5  A    between atoms: N_9  and  C_10
REMARK    6  A    between atoms: C_10  and  C_11
REMARK                            x       y       z     vdW  Elec       q    Type
REMARK                         _______ _______ _______ _____ _____    ______ ____
ROOT
ATOM      1  C   UNL     1       3.925  -8.354  -4.667  0.00  0.00    +0.472 C 
ATOM      2  N   UNL     1       3.412  -9.503  -4.385  0.00  0.00    -0.398 NA
ENDROOT
BRANCH   1   3
ATOM      3  C   UNL     1       4.676  -7.588  -3.651  0.00  0.00    -0.112 C 
ATOM      4  C   UNL     1       5.821  -7.011  -3.901  0.00  0.00    +0.250 C 
ATOM      5  N   UNL     1       7.061  -6.645  -3.216  0.00  0.00    -0.590 N 
ATOM      6  C   UNL     1       6.923  -6.839  -1.822  0.00  0.00    +0.374 C 
ATOM      7  N   UNL     1       7.687  -6.159  -0.848  0.00  0.00    -0.456 NA
ATOM      8  C   UNL     1       7.154  -6.274   0.194  0.00  0.00    +0.280 C 
ATOM      9  C   UNL     1       5.969  -6.891   0.936  0.00  0.00    -0.041 C 
ATOM     10  C   UNL     1       5.410  -7.485   0.058  0.00  0.00    +0.049 C 
ATOM     11  C   UNL     1       5.676  -7.672  -1.334  0.00  0.00    -0.065 C 
ATOM     12  C   UNL     1       4.767  -7.879  -2.250  0.00  0.00    +0.087 C 
ATOM     13  H   UNL     1       7.500  -5.746  -3.398  0.00  0.00    +0.316 HD
ENDBRANCH   1   3
BRANCH   1  14
ATOM     14  O   UNL     1       3.924  -7.842  -5.934  0.00  0.00    -0.542 OA
BRANCH  14  16
ATOM     15  O   UNL     1       3.234  -5.777  -5.201  0.00  0.00    -0.500 OA
ATOM     16  C   UNL     1       3.702  -6.514  -6.060  0.00  0.00    +0.590 C 
BRANCH  16  17
ATOM     17  C   UNL     1       4.061  -5.958  -7.372  0.00  0.00    -0.045 C 
ATOM     18  C   UNL     1       4.636  -6.579  -8.400  0.00  0.00    +0.438 C 
ATOM     19  F   UNL     1       4.971  -7.882  -8.358  0.00  0.00    -0.291 F 
ATOM     20  F   UNL     1       4.902  -5.863  -9.516  0.00  0.00    -0.299 F 
ENDBRANCH  16  17
ENDBRANCH  14  16
ENDBRANCH   1  14
BRANCH   2  21
ATOM     21  C   UNL     1       2.689 -10.252  -5.412  0.00  0.00    +0.302 C 
BRANCH  21  22
ATOM     22  C   UNL     1       3.498 -10.788  -6.563  0.00  0.00    +0.028 C 
ATOM     23  C   UNL     1       4.894 -10.742  -6.592  0.00  0.00    +0.060 C 
ATOM     24  C   UNL     1       5.594 -11.175  -7.715  0.00  0.00    +0.034 C 
ATOM     25  C   UNL     1       4.905 -11.690  -8.809  0.00  0.00    +0.030 C 
ATOM     26  C   UNL     1       3.518 -11.791  -8.772  0.00  0.00    +0.028 C 
ATOM     27  C   UNL     1       2.821 -11.341  -7.654  0.00  0.00    +0.000 C 
ENDBRANCH  21  22
ENDBRANCH   2  21
TORSDOF 6
