REMARK  Name = 
REMARK  8 active torsions:
REMARK  status: ('A' for Active; 'I' for Inactive)
REMARK    1  A    between atoms: C_2  and  C_4
REMARK    2  A    between atoms: N_6  and  C_7
REMARK    3  A    between atoms: C_10  and  C_11
REMARK    4  A    between atoms: C_11  and  N_13
REMARK    5  A    between atoms: C_14  and  O_15
REMARK    6  A    between atoms: C_14  and  O_16
REMARK    7  A    between atoms: O_16  and  C_17
REMARK    8  A    between atoms: C_17  and  C_18
REMARK                            x       y       z     vdW  Elec       q    Type
REMARK                         _______ _______ _______ _____ _____    ______ ____
ROOT
ATOM      1  C   UNL     1       4.964  -2.564  -1.509  0.00  0.00    +0.543 C 
ATOM      2  C   UNL     1       5.843  -3.340  -0.852  0.00  0.00    -0.048 C 
ATOM      3  C   UNL     1       6.281  -4.672  -1.406  0.00  0.00    +0.149 C 
ATOM      4  C   UNL     1       5.356  -5.187  -2.513  0.00  0.00    +0.006 C 
ATOM      5  C   UNL     1       5.034  -4.070  -3.496  0.00  0.00    +0.282 C 
ATOM      6  N   UNL     1       4.591  -2.888  -2.788  0.00  0.00    -0.602 N 
ATOM      7  H   UNL     1       3.707  -2.466  -3.079  0.00  0.00    +0.333 HD
ENDROOT
BRANCH   1  10
ATOM      8  C   UNL     1       3.424  -0.655  -1.351  0.00  0.00    +0.540 C 
ATOM      9  O   UNL     1       3.012  -0.701  -2.513  0.00  0.00    -0.510 OA
ATOM     10  N   UNL     1       4.404  -1.510  -0.840  0.00  0.00    -0.746 N 
ATOM     11  H   UNL     1       4.638  -1.413   0.145  0.00  0.00    +0.302 HD
BRANCH   8  13
ATOM     12  C   UNL     1       1.785   1.329  -0.674  0.00  0.00    +0.039 C 
ATOM     13  C   UNL     1       2.871   0.330  -0.339  0.00  0.00    -0.076 C 
ATOM     14  C   UNL     1       3.332   0.312   1.113  0.00  0.00    -0.002 C 
ENDBRANCH   8  13
ENDBRANCH   1  10
BRANCH   4  15
ATOM     15  C   UNL     1       4.053  -5.769  -1.956  0.00  0.00    +0.511 C 
ATOM     16  O   UNL     1       3.232  -5.137  -1.298  0.00  0.00    -0.520 OA
BRANCH  15  17
ATOM     17  N   UNL     1       3.867  -7.085  -2.304  0.00  0.00    -0.601 NA
ATOM     18  C   UNL     1       2.668  -7.526  -2.393  0.00  0.00    +0.716 C 
BRANCH  18  19
ATOM     19  O   UNL     1       1.532  -6.849  -2.135  0.00  0.00    -0.624 OA
ATOM     20  H   UNL     1       1.757  -5.984  -1.731  0.00  0.00    +0.355 HD
ENDBRANCH  18  19
BRANCH  18  21
ATOM     21  O   UNL     1       2.461  -8.802  -2.782  0.00  0.00    -0.516 OA
BRANCH  21  22
ATOM     22  C   UNL     1       1.205  -9.140  -3.393  0.00  0.00    +0.296 C 
BRANCH  22  23
ATOM     23  C   UNL     1       1.407 -10.326  -4.296  0.00  0.00    +0.019 A 
ATOM     24  C   UNL     1       0.681 -10.464  -5.484  0.00  0.00    +0.040 A 
ATOM     25  C   UNL     1       0.868 -11.586  -6.287  0.00  0.00    +0.019 A 
ATOM     26  C   UNL     1       1.772 -12.549  -5.871  0.00  0.00    +0.216 A 
ATOM     27  N   UNL     1       2.483 -12.462  -4.729  0.00  0.00    -0.364 NA
ATOM     28  C   UNL     1       2.284 -11.359  -3.969  0.00  0.00    +0.245 A 
ENDBRANCH  22  23
ENDBRANCH  21  22
ENDBRANCH  18  21
ENDBRANCH  15  17
ENDBRANCH   4  15
TORSDOF 8
