REMARK  Name = 
REMARK  8 active torsions:
REMARK  status: ('A' for Active; 'I' for Inactive)
REMARK    1  A    between atoms: C_2  and  C_4
REMARK    2  A    between atoms: C_4  and  N_6
REMARK    3  A    between atoms: C_10  and  C_11
REMARK    4  A    between atoms: C_11  and  N_13
REMARK    5  A    between atoms: C_14  and  O_15
REMARK    6  A    between atoms: C_14  and  O_16
REMARK    7  A    between atoms: O_16  and  C_17
REMARK    8  A    between atoms: C_17  and  C_18
REMARK                            x       y       z     vdW  Elec       q    Type
REMARK                         _______ _______ _______ _____ _____    ______ ____
ROOT
ATOM      1  C   UNL     1       7.347   1.892   3.521  0.00  0.00    +0.514 C 
ATOM      2  O   UNL     1       6.805   2.687   4.279  0.00  0.00    -0.486 OA
ENDROOT
BRANCH   1   7
ATOM      3  N   UNL     1       4.272  -1.555   0.341  0.00  0.00    -0.532 NA
ATOM      4  C   UNL     1       4.945  -0.757   1.112  0.00  0.00    +0.508 A 
ATOM      5  C   UNL     1       6.406  -0.625   0.787  0.00  0.00    +0.012 A 
ATOM      6  C   UNL     1       7.128   0.264   1.492  0.00  0.00    +0.140 A 
ATOM      7  C   UNL     1       6.548   1.031   2.593  0.00  0.00    -0.105 A 
ATOM      8  C   UNL     1       5.246   0.857   2.885  0.00  0.00    +0.316 A 
ATOM      9  N   UNL     1       4.465  -0.027   2.181  0.00  0.00    -0.642 N 
ATOM     10  H   UNL     1       3.461  -0.036   2.366  0.00  0.00    +0.344 HD
BRANCH   3  11
ATOM     11  C   UNL     1       2.917  -1.725   0.562  0.00  0.00    +0.511 C 
ATOM     12  O   UNL     1       2.239  -0.995   1.288  0.00  0.00    -0.504 OA
BRANCH  11  14
ATOM     13  C   UNL     1       3.075  -3.714  -1.228  0.00  0.00    +0.049 C 
ATOM     14  C   UNL     1       2.328  -2.926  -0.161  0.00  0.00    -0.056 C 
ATOM     15  C   UNL     1       0.963  -3.482   0.207  0.00  0.00    +0.056 C 
ENDBRANCH  11  14
ENDBRANCH   3  11
ENDBRANCH   1   7
BRANCH   1  16
ATOM     16  N   UNL     1       8.694   1.691   3.492  0.00  0.00    -0.551 NA
ATOM     17  C   UNL     1       9.190   0.561   3.858  0.00  0.00    +0.689 C 
BRANCH  17  18
ATOM     18  O   UNL     1       8.515  -0.557   4.189  0.00  0.00    -0.634 OA
ATOM     19  H   UNL     1       7.554  -0.470   4.152  0.00  0.00    +0.316 HD
ENDBRANCH  17  18
BRANCH  17  20
ATOM     20  O   UNL     1      10.527   0.397   3.882  0.00  0.00    -0.508 OA
BRANCH  20  21
ATOM     21  C   UNL     1      11.047  -0.829   4.413  0.00  0.00    +0.314 C 
BRANCH  21  22
ATOM     22  C   UNL     1      12.371  -0.595   5.074  0.00  0.00    +0.023 A 
ATOM     23  C   UNL     1      12.721   0.632   5.641  0.00  0.00    +0.122 A 
ATOM     24  C   UNL     1      13.923   0.746   6.331  0.00  0.00    +0.034 A 
ATOM     25  C   UNL     1      14.731  -0.373   6.436  0.00  0.00    +0.230 A 
ATOM     26  N   UNL     1      14.424  -1.575   5.904  0.00  0.00    -0.349 NA
ATOM     27  C   UNL     1      13.251  -1.658   5.241  0.00  0.00    +0.192 A 
ENDBRANCH  21  22
ENDBRANCH  20  21
ENDBRANCH  17  20
ENDBRANCH   1  16
TORSDOF 8
