REMARK  Name = 
REMARK  6 active torsions:
REMARK  status: ('A' for Active; 'I' for Inactive)
REMARK    1  A    between atoms: C_2  and  C_3
REMARK    2  A    between atoms: C_2  and  C_8
REMARK    3  A    between atoms: C_3  and  N_5
REMARK    4  A    between atoms: C_8  and  O_9
REMARK    5  A    between atoms: N_10  and  C_11
REMARK    6  A    between atoms: C_14  and  C_15
REMARK                            x       y       z     vdW  Elec       q    Type
REMARK                         _______ _______ _______ _____ _____    ______ ____
ROOT
ATOM      1  C   UNL     1       5.486  -0.219  -0.451  0.00  0.00    +0.502 A 
ATOM      2  C   UNL     1       5.347  -0.751   0.838  0.00  0.00    +0.100 A 
ATOM      3  C   UNL     1       6.313  -0.489   1.813  0.00  0.00    +0.212 A 
ATOM      4  C   UNL     1       7.408   0.305   1.483  0.00  0.00    -0.085 A 
ATOM      5  C   UNL     1       7.543   0.752   0.173  0.00  0.00    +0.422 A 
ATOM      6  N   UNL     1       6.604   0.459  -0.740  0.00  0.00    -0.638 N 
ATOM      7  H   UNL     1       6.753   0.780  -1.700  0.00  0.00    +0.328 HD
ENDROOT
BRANCH   4   8
ATOM      8  C   UNL     1       8.468   0.680   2.434  0.00  0.00    +0.642 C 
ATOM      9  N   UNL     1       8.166   0.695   3.763  0.00  0.00    -0.791 N 
ATOM     10  O   UNL     1       9.564   1.010   2.003  0.00  0.00    -0.444 OA
ATOM     11  H   UNL     1       7.243   0.587   4.157  0.00  0.00    +0.370 HD
ATOM     12  H   UNL     1       8.896   0.999   4.400  0.00  0.00    +0.404 HD
ENDBRANCH   4   8
BRANCH   1  14
ATOM     13  C   UNL     1       4.052   0.383  -2.278  0.00  0.00    +0.533 C 
ATOM     14  N   UNL     1       4.518  -0.470  -1.423  0.00  0.00    -0.416 NA
BRANCH  13  16
ATOM     15  C   UNL     1       5.920   2.072  -2.876  0.00  0.00    +0.156 C 
ATOM     16  C   UNL     1       4.443   1.790  -2.572  0.00  0.00    -0.119 C 
BRANCH  16  17
ATOM     17  C   UNL     1       3.443   2.887  -2.462  0.00  0.00    +0.617 C 
ATOM     18  O   UNL     1       2.415   2.846  -3.127  0.00  0.00    -0.436 OA
BRANCH  17  19
ATOM     19  N   UNL     1       3.804   3.816  -1.521  0.00  0.00    -0.627 NA
ATOM     20  C   UNL     1       3.025   4.669  -1.340  0.00  0.00    +0.850 C 
ATOM     21  O   UNL     1       2.254   5.529  -1.120  0.00  0.00    -0.450 OA
ENDBRANCH  17  19
ENDBRANCH  16  17
ENDBRANCH  13  16
BRANCH  13  22
ATOM     22  O   UNL     1       3.068  -0.069  -3.086  0.00  0.00    -0.519 OA
ATOM     23  H   UNL     1       2.732   0.544  -3.769  0.00  0.00    +0.391 HD
ENDBRANCH  13  22
ENDBRANCH   1  14
TORSDOF 6
