REMARK  Name = 
REMARK  8 active torsions:
REMARK  status: ('A' for Active; 'I' for Inactive)
REMARK    1  A    between atoms: C_1  and  C_2
REMARK    2  A    between atoms: C_6  and  N_7
REMARK    3  A    between atoms: C_8  and  N_9
REMARK    4  A    between atoms: C_12  and  C_13
REMARK    5  A    between atoms: N_15  and  C_16
REMARK    6  A    between atoms: C_16  and  C_17
REMARK    7  A    between atoms: C_23  and  N_24
REMARK    8  A    between atoms: C_25  and  C_26
REMARK                            x       y       z     vdW  Elec       q    Type
REMARK                         _______ _______ _______ _____ _____    ______ ____
ROOT
ATOM      1  N   UNL     1      -0.421  -2.866   0.206  0.00  0.00    -0.532 N 
ATOM      2  C   UNL     1      -0.010  -3.645   1.286  0.00  0.00    +0.470 C 
ATOM      3  C   UNL     1       0.136  -4.969   1.170  0.00  0.00    -0.072 C 
ATOM      4  C   UNL     1      -0.235  -5.767  -0.023  0.00  0.00    +0.159 C 
ATOM      5  C   UNL     1      -0.835  -5.001  -1.198  0.00  0.00    -0.050 C 
ATOM      6  C   UNL     1      -0.746  -3.435  -1.129  0.00  0.00    +0.362 C 
ENDROOT
BRANCH   1  12
ATOM      7  C   UNL     1       1.525   1.711   1.230  0.00  0.00    +0.074 C 
ATOM      8  C   UNL     1       0.511   0.801   0.617  0.00  0.00    +0.018 A 
ATOM      9  C   UNL     1      -0.596   1.340  -0.034  0.00  0.00    +0.154 A 
ATOM     10  N   UNL     1      -1.589   0.609  -0.560  0.00  0.00    -0.371 NA
ATOM     11  C   UNL     1      -1.491  -0.728  -0.413  0.00  0.00    +0.145 A 
ATOM     12  C   UNL     1      -0.418  -1.427   0.191  0.00  0.00    +0.140 A 
ATOM     13  C   UNL     1       0.640  -0.615   0.676  0.00  0.00    -0.002 A 
ATOM     14  C   UNL     1       1.931  -1.158   1.248  0.00  0.00    +0.097 C 
ENDBRANCH   1  12
BRANCH   5  15
ATOM     15  C   UNL     1      -0.334  -5.643  -2.514  0.00  0.00    +0.495 C 
ATOM     16  O   UNL     1       0.359  -6.660  -2.539  0.00  0.00    -0.532 OA
ATOM     17  N   UNL     1      -0.783  -5.063  -3.683  0.00  0.00    -0.619 N 
ATOM     18  H   UNL     1      -0.858  -4.042  -3.611  0.00  0.00    +0.313 HD
BRANCH  17  19
ATOM     19  C   UNL     1      -0.265  -5.567  -4.929  0.00  0.00    +0.291 C 
BRANCH  19  20
ATOM     20  C   UNL     1      -0.838  -4.859  -6.115  0.00  0.00    -0.003 C 
ATOM     21  C   UNL     1      -0.197  -3.735  -6.646  0.00  0.00    -0.026 C 
ATOM     22  C   UNL     1      -0.707  -3.101  -7.776  0.00  0.00    -0.017 C 
ATOM     23  C   UNL     1      -1.866  -3.582  -8.379  0.00  0.00    -0.018 C 
ATOM     24  C   UNL     1      -2.523  -4.687  -7.844  0.00  0.00    -0.017 C 
ATOM     25  C   UNL     1      -2.013  -5.321  -6.714  0.00  0.00    -0.018 C 
ENDBRANCH  19  20
ENDBRANCH  17  19
ENDBRANCH   5  15
BRANCH   2  26
ATOM     26  N   UNL     1       0.242  -3.158   2.553  0.00  0.00    -0.857 N 
ATOM     27  H   UNL     1       0.189  -2.150   2.605  0.00  0.00    +0.313 HD
ATOM     28  H   UNL     1       1.119  -3.514   2.928  0.00  0.00    +0.291 HD
ENDBRANCH   2  26
BRANCH   6  29
ATOM     29  N   UNL     1      -0.021  -2.889  -2.300  0.00  0.00    -0.786 NA
ATOM     30  H   UNL     1       0.969  -3.042  -2.108  0.00  0.00    +0.301 HD
ATOM     31  H   UNL     1      -0.126  -1.873  -2.283  0.00  0.00    +0.295 HD
ENDBRANCH   6  29
TORSDOF 6
