REMARK  Name = 
REMARK  5 active torsions:
REMARK  status: ('A' for Active; 'I' for Inactive)
REMARK    1  A    between atoms: N_1  and  C_2
REMARK    2  A    between atoms: C_2  and  C_4
REMARK    3  A    between atoms: N_8  and  C_9
REMARK    4  A    between atoms: C_13  and  O_15
REMARK    5  A    between atoms: O_15  and  C_16
REMARK                            x       y       z     vdW  Elec       q    Type
REMARK                         _______ _______ _______ _____ _____    ______ ____
ROOT
ATOM      1  C   UNL     1      -4.873   3.563  -8.287  0.00  0.00    +0.261 C 
ATOM      2  C   UNL     1      -4.982   2.682  -9.546  0.00  0.00    +0.069 C 
ATOM      3  C   UNL     1      -4.486   1.247  -9.321  0.00  0.00    +0.307 C 
ATOM      4  N   UNL     1      -3.192   1.161  -8.643  0.00  0.00    -0.456 N 
ATOM      5  C   UNL     1      -2.492  -0.049  -8.735  0.00  0.00    +0.658 C 
ATOM      6  O   UNL     1      -2.754  -0.927  -9.547  0.00  0.00    -0.525 OA
ATOM      7  C   UNL     1      -2.964   2.063  -7.524  0.00  0.00    +0.318 C 
ATOM      8  C   UNL     1      -3.423   3.490  -7.806  0.00  0.00    +0.078 C 
ENDROOT
BRANCH   1  13
ATOM      9  C   UNL     1      -6.675   4.760  -3.555  0.00  0.00    -0.146 C 
ATOM     10  C   UNL     1      -7.446   3.708  -4.017  0.00  0.00    +0.111 C 
ATOM     11  C   UNL     1      -7.175   3.191  -5.277  0.00  0.00    -0.101 C 
ATOM     12  C   UNL     1      -6.157   3.740  -6.076  0.00  0.00    +0.471 C 
ATOM     13  N   UNL     1      -5.856   3.122  -7.289  0.00  0.00    -0.643 N 
ATOM     14  N   UNL     1      -5.454   4.761  -5.571  0.00  0.00    -0.725 N 
ATOM     15  C   UNL     1      -5.673   5.282  -4.355  0.00  0.00    +0.303 C 
ATOM     16  H   UNL     1      -6.736   2.830  -7.729  0.00  0.00    +0.278 HD
ATOM     17  H   UNL     1      -4.712   5.190  -6.103  0.00  0.00    +0.300 HD
BRANCH   9  18
ATOM     18  C   UNL     1      -6.885   5.329  -2.222  0.00  0.00    +0.562 C 
ATOM     19  O   UNL     1      -7.781   4.896  -1.517  0.00  0.00    -0.498 OA
BRANCH  18  20
ATOM     20  N   UNL     1      -6.041   6.304  -1.916  0.00  0.00    -0.583 NA
ATOM     21  H   UNL     1      -6.284   6.614  -0.966  0.00  0.00    +0.314 HD
ENDBRANCH  18  20
ENDBRANCH   9  18
ENDBRANCH   1  13
BRANCH   5  22
ATOM     22  O   UNL     1      -1.474  -0.153  -7.828  0.00  0.00    -0.548 OA
BRANCH  22  23
ATOM     23  C   UNL     1      -0.580  -1.300  -7.839  0.00  0.00    +0.298 C 
ATOM     24  C   UNL     1      -1.274  -2.642  -7.565  0.00  0.00    +0.140 C 
ATOM     25  C   UNL     1      -0.407  -3.775  -8.094  0.00  0.00    +0.485 C 
ATOM     26  S   UNL     1       0.655  -3.089  -9.342  0.00  0.00    -0.879 S 
ATOM     27  O   UNL     1       2.025  -3.297  -8.921  0.00  0.00    -0.174 OA
ATOM     28  O   UNL     1       0.178  -3.501 -10.645  0.00  0.00    -0.161 OA
ATOM     29  C   UNL     1       0.264  -1.376  -9.103  0.00  0.00    +0.485 C 
ENDBRANCH  22  23
ENDBRANCH   5  22
TORSDOF 5
