REMARK  Name = 
REMARK  5 active torsions:
REMARK  status: ('A' for Active; 'I' for Inactive)
REMARK    1  A    between atoms: C_1  and  C_2
REMARK    2  A    between atoms: C_6  and  C_7
REMARK    3  A    between atoms: C_11  and  C_12
REMARK    4  A    between atoms: N_14  and  C_15
REMARK    5  A    between atoms: C_15  and  C_16
REMARK                            x       y       z     vdW  Elec       q    Type
REMARK                         _______ _______ _______ _____ _____    ______ ____
ROOT
ATOM      1  C   UNL     1      -2.008  -2.496  -0.589  0.00  0.00    +0.459 C 
ATOM      2  O   UNL     1      -1.014  -3.147  -0.266  0.00  0.00    -0.502 OA
ATOM      3  N   UNL     1      -3.280  -2.683  -0.007  0.00  0.00    -0.510 N 
ATOM      4  C   UNL     1      -4.390  -1.767  -0.252  0.00  0.00    +0.182 C 
ATOM      5  C   UNL     1      -5.238  -1.456   0.965  0.00  0.00    -0.048 C 
ATOM      6  C   UNL     1      -5.770  -2.772   1.520  0.00  0.00    +0.118 C 
ATOM      7  C   UNL     1      -4.675  -3.811   1.716  0.00  0.00    +0.039 C 
ATOM      8  C   UNL     1      -3.639  -3.882   0.595  0.00  0.00    +0.464 C 
ATOM      9  N   UNL     1      -3.109  -5.009   0.259  0.00  0.00    -0.593 NA
ATOM     10  H   UNL     1      -3.469  -5.775   0.833  0.00  0.00    +0.265 HD
ENDROOT
BRANCH   1  16
ATOM     11  C   UNL     1      -0.443   1.530  -2.110  0.00  0.00    +0.055 C 
ATOM     12  C   UNL     1      -0.201   0.203  -2.840  0.00  0.00    +0.088 C 
ATOM     13  C   UNL     1      -1.107   0.076  -4.073  0.00  0.00    +0.033 C 
ATOM     14  C   UNL     1      -2.558  -0.201  -3.705  0.00  0.00    +0.052 C 
ATOM     15  C   UNL     1      -2.664  -1.440  -2.825  0.00  0.00    +0.067 C 
ATOM     16  C   UNL     1      -1.840  -1.285  -1.535  0.00  0.00    +0.008 C 
ATOM     17  C   UNL     1      -0.367  -1.014  -1.906  0.00  0.00    +0.097 C 
ENDBRANCH   1  16
BRANCH   5  18
ATOM     18  C   UNL     1      -4.463  -0.617   1.972  0.00  0.00    +0.514 C 
ATOM     19  O   UNL     1      -4.238  -0.996   3.116  0.00  0.00    -0.524 OA
ATOM     20  N   UNL     1      -4.037   0.608   1.499  0.00  0.00    -0.657 N 
ATOM     21  H   UNL     1      -4.402   0.975   0.632  0.00  0.00    +0.263 HD
BRANCH  20  22
ATOM     22  C   UNL     1      -3.278   1.517   2.335  0.00  0.00    +0.260 C 
BRANCH  22  23
ATOM     23  C   UNL     1      -4.153   2.544   2.989  0.00  0.00    +0.004 C 
ATOM     24  C   UNL     1      -4.264   2.587   4.381  0.00  0.00    -0.020 C 
ATOM     25  C   UNL     1      -5.036   3.568   5.002  0.00  0.00    -0.020 C 
ATOM     26  C   UNL     1      -5.703   4.516   4.232  0.00  0.00    -0.025 C 
ATOM     27  C   UNL     1      -5.606   4.479   2.844  0.00  0.00    -0.027 C 
ATOM     28  C   UNL     1      -4.832   3.499   2.226  0.00  0.00    -0.040 C 
ENDBRANCH  22  23
ENDBRANCH  20  22
ENDBRANCH   5  18
TORSDOF 4
