REMARK  Name = 
REMARK  5 active torsions:
REMARK  status: ('A' for Active; 'I' for Inactive)
REMARK    1  A    between atoms: C_4  and  C_5
REMARK    2  A    between atoms: C_5  and  N_6
REMARK    3  A    between atoms: C_7  and  O_8
REMARK    4  A    between atoms: C_7  and  C_9
REMARK    5  A    between atoms: N_13  and  C_14
REMARK                            x       y       z     vdW  Elec       q    Type
REMARK                         _______ _______ _______ _____ _____    ______ ____
ROOT
ATOM      1  C   UNL     1       8.709  -3.128  -0.064  0.00  0.00    -0.084 A 
ATOM      2  C   UNL     1       9.183  -2.121   0.770  0.00  0.00    +0.130 A 
ATOM      3  C   UNL     1      10.541  -1.812   0.766  0.00  0.00    -0.087 A 
ATOM      4  C   UNL     1      11.422  -2.506  -0.070  0.00  0.00    +0.503 A 
ATOM      5  N   UNL     1      12.768  -2.256  -0.151  0.00  0.00    -0.702 N 
ATOM      6  N   UNL     1      10.919  -3.494  -0.828  0.00  0.00    -0.702 N 
ATOM      7  C   UNL     1       9.614  -3.818  -0.857  0.00  0.00    +0.288 A 
ATOM      8  H   UNL     1      13.368  -2.851  -0.710  0.00  0.00    +0.280 HD
ATOM      9  H   UNL     1      11.561  -4.017  -1.413  0.00  0.00    +0.286 HD
ENDROOT
BRANCH   5  10
ATOM     10  C   UNL     1      13.317  -0.913   0.087  0.00  0.00    +0.233 C 
ATOM     11  C   UNL     1      14.103  -0.482  -1.163  0.00  0.00    +0.048 C 
ATOM     12  C   UNL     1      14.958   0.756  -0.924  0.00  0.00    +0.065 C 
ATOM     13  C   UNL     1      15.863   0.573   0.287  0.00  0.00    +0.063 C 
ATOM     14  C   UNL     1      15.037   0.287   1.535  0.00  0.00    +0.063 C 
ATOM     15  C   UNL     1      14.175  -0.958   1.357  0.00  0.00    +0.062 C 
ENDBRANCH   5  10
BRANCH   1  17
ATOM     16  N   UNL     1       6.922  -4.610  -0.721  0.00  0.00    -0.507 NA
ATOM     17  C   UNL     1       7.306  -3.556  -0.084  0.00  0.00    +0.440 C 
BRANCH  17  18
ATOM     18  O   UNL     1       6.530  -2.732   0.643  0.00  0.00    -0.611 OA
ATOM     19  H   UNL     1       5.598  -3.028   0.678  0.00  0.00    +0.307 HD
ENDBRANCH  17  18
BRANCH  16  20
ATOM     20  C   UNL     1       5.652  -5.011  -0.552  0.00  0.00    +0.194 C 
BRANCH  20  24
ATOM     21  N   UNL     1       3.753  -7.049   3.003  0.00  0.00    -0.569 NA
ATOM     22  C   UNL     1       3.500  -6.121   2.152  0.00  0.00    +0.434 C 
ATOM     23  C   UNL     1       4.253  -6.163   0.899  0.00  0.00    -0.086 C 
ATOM     24  C   UNL     1       4.336  -5.375  -0.155  0.00  0.00    -0.019 C 
ATOM     25  C   UNL     1       3.315  -4.380   0.072  0.00  0.00    -0.066 C 
ATOM     26  C   UNL     1       2.670  -4.284   1.079  0.00  0.00    +0.153 C 
ATOM     27  N   UNL     1       2.624  -5.103   2.322  0.00  0.00    -0.397 NA
ATOM     28  H   UNL     1       4.445  -7.692   2.616  0.00  0.00    +0.282 HD
ENDBRANCH  20  24
ENDBRANCH  16  20
ENDBRANCH   1  17
TORSDOF 5
