REMARK  Name = 
REMARK  5 active torsions:
REMARK  status: ('A' for Active; 'I' for Inactive)
REMARK    1  A    between atoms: C_2  and  C_3
REMARK    2  A    between atoms: C_3  and  C_12
REMARK    3  A    between atoms: N_4  and  C_5
REMARK    4  A    between atoms: C_5  and  C_6
REMARK    5  A    between atoms: C_18  and  N_19
REMARK                            x       y       z     vdW  Elec       q    Type
REMARK                         _______ _______ _______ _____ _____    ______ ____
ROOT
ATOM      1  C   UNL     1       4.663  -1.078  -0.688  0.00  0.00    +0.009 C 
ATOM      2  C   UNL     1       3.964  -2.348  -1.209  0.00  0.00    +0.150 C 
ATOM      3  C   UNL     1       3.411  -3.257  -0.115  0.00  0.00    +0.037 C 
ATOM      4  C   UNL     1       4.324  -3.380   1.062  0.00  0.00    +0.493 C 
ATOM      5  N   UNL     1       4.373  -4.388   1.852  0.00  0.00    -0.618 NA
ATOM      6  N   UNL     1       5.203  -2.325   1.380  0.00  0.00    -0.653 N 
ATOM      7  C   UNL     1       5.683  -1.377   0.408  0.00  0.00    +0.436 C 
ATOM      8  H   UNL     1       3.721  -5.120   1.547  0.00  0.00    +0.275 HD
ATOM      9  H   UNL     1       5.633  -2.387   2.294  0.00  0.00    +0.307 HD
ENDROOT
BRANCH   7  10
ATOM     10  N   UNL     1       6.868  -2.015  -0.115  0.00  0.00    -0.764 NA
ATOM     11  H   UNL     1       6.657  -2.943  -0.479  0.00  0.00    +0.304 HD
ATOM     12  H   UNL     1       7.540  -2.170   0.637  0.00  0.00    +0.303 HD
ENDBRANCH   7  10
BRANCH   1  13
ATOM     13  C   UNL     1       3.687  -0.040  -0.161  0.00  0.00    +0.150 C 
ATOM     14  N   UNL     1       2.574  -0.413   0.381  0.00  0.00    -0.420 NA
BRANCH  13  16
ATOM     15  N   UNL     1       4.418   2.460  -0.214  0.00  0.00    -0.356 NA
ATOM     16  C   UNL     1       4.060   1.356  -0.190  0.00  0.00    +0.191 C 
ENDBRANCH  13  16
BRANCH  14  17
ATOM     17  C   UNL     1       1.696   0.443   0.917  0.00  0.00    +0.190 C 
BRANCH  17  18
ATOM     18  C   UNL     1       0.671   1.192   1.560  0.00  0.00    -0.052 C 
ATOM     19  C   UNL     1       0.969   2.371   2.235  0.00  0.00    +0.019 C 
ATOM     20  C   UNL     1      -0.033   3.028   2.945  0.00  0.00    -0.002 C 
ATOM     21  C   UNL     1      -1.324   2.502   2.984  0.00  0.00    -0.000 C 
ATOM     22  C   UNL     1      -1.620   1.323   2.305  0.00  0.00    -0.005 C 
ATOM     23  C   UNL     1      -0.620   0.666   1.594  0.00  0.00    +0.008 C 
ENDBRANCH  17  18
ENDBRANCH  14  17
ENDBRANCH   1  13
TORSDOF 5
