REMARK  Name = 
REMARK  6 active torsions:
REMARK  status: ('A' for Active; 'I' for Inactive)
REMARK    1  A    between atoms: C_2  and  C_3
REMARK    2  A    between atoms: C_3  and  CA_4
REMARK    3  A    between atoms: CA_4  and  N_5
REMARK    4  A    between atoms: CA_4  and  C_12
REMARK    5  A    between atoms: N_5  and  C_6
REMARK    6  A    between atoms: C_6  and  C_8
REMARK                            x       y       z     vdW  Elec       q    Type
REMARK                         _______ _______ _______ _____ _____    ______ ____
ROOT
ATOM      1  CA  UNL     1       3.935  -1.189  -0.121  0.00  0.00    +0.149 C 
ENDROOT
BRANCH   1   2
ATOM      2  C   UNL     1       5.475  -1.103   0.214  0.00  0.00    +0.468 C 
ATOM      3  O   UNL     1       6.268  -0.819  -0.740  0.00  0.00    -0.568 OA
ATOM      4  OXT UNL     1       5.793  -1.386   1.416  0.00  0.00    -0.577 OA
ENDBRANCH   1   2
BRANCH   1   5
ATOM      5  C   UNL     1       3.763  -1.991  -1.439  0.00  0.00    +0.002 C 
BRANCH   5   7
ATOM      6  C   UNL     1       4.712  -4.571  -0.794  0.00  0.00    -0.212 C 
ATOM      7  C   UNL     1       4.274  -3.380  -1.092  0.00  0.00    -0.011 C 
ENDBRANCH   5   7
ENDBRANCH   1   5
BRANCH   1   8
ATOM      8  N   UNL     1       3.315   0.151  -0.210  0.00  0.00    -0.518 NA
BRANCH   8   9
ATOM      9  C   UNL     1       1.990   0.175  -0.181  0.00  0.00    +0.498 C 
ATOM     10  O   UNL     1       1.172  -0.733  -0.063  0.00  0.00    -0.572 OA
BRANCH   9  11
ATOM     11  C   UNL     1       1.580   1.581  -0.347  0.00  0.00    -0.176 C 
ATOM     12  C   UNL     1       0.323   1.933  -0.618  0.00  0.00    +0.270 C 
ATOM     13  F   UNL     1      -0.674   1.037  -0.746  0.00  0.00    -0.363 F 
ATOM     14  F   UNL     1       0.048   3.247  -0.800  0.00  0.00    -0.390 F 
ENDBRANCH   9  11
ENDBRANCH   8   9
ENDBRANCH   1   8
TORSDOF 6
