REMARK  Name = 
REMARK  6 active torsions:
REMARK  status: ('A' for Active; 'I' for Inactive)
REMARK    1  A    between atoms: N_1  and  C_2
REMARK    2  A    between atoms: C_5  and  C_6
REMARK    3  A    between atoms: C_6  and  O_7
REMARK    4  A    between atoms: N_8  and  C_9
REMARK    5  A    between atoms: C_9  and  C_10
REMARK    6  A    between atoms: C_16  and  N_17
REMARK                            x       y       z     vdW  Elec       q    Type
REMARK                         _______ _______ _______ _____ _____    ______ ____
ROOT
ATOM      1  C   UNL     1       2.351   0.102  -0.172  0.00  0.00    +0.564 C 
ATOM      2  C   UNL     1       2.964   1.285  -0.067  0.00  0.00    -0.034 C 
ATOM      3  C   UNL     1       4.443   1.453   0.033  0.00  0.00    +0.188 C 
ATOM      4  C   UNL     1       5.261   0.179  -0.204  0.00  0.00    -0.041 C 
ATOM      5  C   UNL     1       4.488  -1.155  -0.150  0.00  0.00    +0.487 C 
ATOM      6  N   UNL     1       3.067  -1.053  -0.253  0.00  0.00    -0.681 N 
ATOM      7  H   UNL     1       2.543  -1.819   0.166  0.00  0.00    +0.307 HD
ENDROOT
BRANCH   5   8
ATOM      8  N   UNL     1       4.755  -2.042  -1.279  0.00  0.00    -0.994 N 
ATOM      9  H   UNL     1       4.311  -1.633  -2.107  0.00  0.00    +0.365 HD
ATOM     10  H   UNL     1       4.334  -2.960  -1.138  0.00  0.00    +0.351 HD
ATOM     11  H   UNL     1       5.769  -2.149  -1.449  0.00  0.00    +0.354 HD
ENDBRANCH   5   8
BRANCH   1  12
ATOM     12  N   UNL     1       0.997   0.018  -0.191  0.00  0.00    -0.827 N 
ATOM     13  H   UNL     1       0.498   0.845   0.133  0.00  0.00    +0.334 HD
ATOM     14  H   UNL     1       0.588  -0.835   0.174  0.00  0.00    +0.342 HD
ENDBRANCH   1  12
BRANCH   4  15
ATOM     15  C   UNL     1       6.217   0.196  -1.372  0.00  0.00    +0.460 C 
ATOM     16  N   UNL     1       7.165  -0.675  -1.373  0.00  0.00    -0.435 NA
BRANCH  15  17
ATOM     17  O   UNL     1       5.981   0.965  -2.431  0.00  0.00    -0.598 OA
ATOM     18  H   UNL     1       5.221   1.569  -2.379  0.00  0.00    +0.316 HD
ENDBRANCH  15  17
BRANCH  16  19
ATOM     19  C   UNL     1       8.105  -0.637  -2.502  0.00  0.00    +0.325 C 
BRANCH  19  20
ATOM     20  C   UNL     1       9.247  -1.583  -2.258  0.00  0.00    +0.023 C 
ATOM     21  C   UNL     1       9.119  -2.944  -2.547  0.00  0.00    +0.022 C 
ATOM     22  C   UNL     1      10.170  -3.821  -2.299  0.00  0.00    +0.046 C 
ATOM     23  C   UNL     1      11.360  -3.349  -1.751  0.00  0.00    +0.048 C 
ATOM     24  C   UNL     1      11.493  -1.997  -1.443  0.00  0.00    +0.048 C 
ATOM     25  C   UNL     1      10.440  -1.121  -1.691  0.00  0.00    +0.030 C 
ENDBRANCH  19  20
ENDBRANCH  16  19
ENDBRANCH   4  15
TORSDOF 6
