REMARK  Name = 
REMARK  5 active torsions:
REMARK  status: ('A' for Active; 'I' for Inactive)
REMARK    1  A    between atoms: C_2  and  C_3
REMARK    2  A    between atoms: C_3  and  C_12
REMARK    3  A    between atoms: N_4  and  C_5
REMARK    4  A    between atoms: C_5  and  C_6
REMARK    5  A    between atoms: C_18  and  N_19
REMARK                            x       y       z     vdW  Elec       q    Type
REMARK                         _______ _______ _______ _____ _____    ______ ____
ROOT
ATOM      1  C   UNL     1       4.784  -1.048   0.265  0.00  0.00    -0.006 C 
ATOM      2  C   UNL     1       5.924  -0.263  -0.411  0.00  0.00    +0.172 C 
ATOM      3  C   UNL     1       5.657  -0.094  -1.907  0.00  0.00    +0.059 C 
ATOM      4  C   UNL     1       5.375  -1.399  -2.562  0.00  0.00    +0.627 C 
ATOM      5  N   UNL     1       5.716  -1.535  -3.825  0.00  0.00    -0.906 N 
ATOM      6  N   UNL     1       4.821  -2.372  -1.868  0.00  0.00    -0.706 N 
ATOM      7  C   UNL     1       4.747  -2.425  -0.414  0.00  0.00    +0.461 C 
ATOM      8  H   UNL     1       6.179  -0.784  -4.328  0.00  0.00    +0.340 HD
ATOM      9  H   UNL     1       5.598  -2.412  -4.318  0.00  0.00    +0.354 HD
ATOM     10  H   UNL     1       4.471  -3.204  -2.328  0.00  0.00    +0.338 HD
ENDROOT
BRANCH   7  11
ATOM     11  N   UNL     1       3.700  -3.366  -0.150  0.00  0.00    -0.739 NA
ATOM     12  H   UNL     1       2.781  -2.921  -0.145  0.00  0.00    +0.321 HD
ATOM     13  H   UNL     1       3.824  -3.794   0.768  0.00  0.00    +0.305 HD
ENDBRANCH   7  11
BRANCH   1  14
ATOM     14  C   UNL     1       3.510  -0.230   0.192  0.00  0.00    +0.149 C 
ATOM     15  N   UNL     1       2.720  -0.367  -0.807  0.00  0.00    -0.354 NA
BRANCH  14  17
ATOM     16  N   UNL     1       3.118   1.639   1.977  0.00  0.00    -0.313 NA
ATOM     17  C   UNL     1       3.270   0.808   1.186  0.00  0.00    +0.189 C 
ENDBRANCH  14  17
BRANCH  15  18
ATOM     18  C   UNL     1       1.510   0.414  -1.025  0.00  0.00    +0.223 C 
BRANCH  18  19
ATOM     19  C   UNL     1       0.593  -0.409  -1.898  0.00  0.00    +0.080 A 
ATOM     20  C   UNL     1      -0.239  -1.372  -1.309  0.00  0.00    +0.058 A 
ATOM     21  C   UNL     1      -1.047  -2.189  -2.098  0.00  0.00    +0.101 A 
ATOM     22  C   UNL     1      -1.027  -2.058  -3.485  0.00  0.00    +0.091 A 
ATOM     23  C   UNL     1      -0.189  -1.120  -4.085  0.00  0.00    +0.100 A 
ATOM     24  C   UNL     1       0.624  -0.301  -3.297  0.00  0.00    +0.057 A 
ENDBRANCH  18  19
ENDBRANCH  15  18
ENDBRANCH   1  14
TORSDOF 5
