REMARK  Name = 
REMARK  5 active torsions:
REMARK  status: ('A' for Active; 'I' for Inactive)
REMARK    1  A    between atoms: N_1  and  C_2
REMARK    2  A    between atoms: C_2  and  C_4
REMARK    3  A    between atoms: C_7  and  N_8
REMARK    4  A    between atoms: N_16  and  C_17
REMARK    5  A    between atoms: C_17  and  C_18
REMARK                            x       y       z     vdW  Elec       q    Type
REMARK                         _______ _______ _______ _____ _____    ______ ____
ROOT
ATOM      1  C   UNL     1       3.234  -0.634  -1.089  0.00  0.00    -0.099 C 
ATOM      2  C   UNL     1       2.198  -0.993  -2.145  0.00  0.00    +0.154 C 
ATOM      3  C   UNL     1       1.306  -2.148  -1.711  0.00  0.00    +0.088 C 
ATOM      4  C   UNL     1       2.083  -3.369  -1.216  0.00  0.00    +0.364 C 
ATOM      5  N   UNL     1       3.255  -2.983  -0.431  0.00  0.00    -0.689 N 
ATOM      6  C   UNL     1       3.887  -1.829  -0.507  0.00  0.00    +0.538 C 
ATOM      7  N   UNL     1       5.149  -1.701  -0.118  0.00  0.00    -0.668 N 
ATOM      8  H   UNL     1       3.626  -3.665   0.211  0.00  0.00    +0.298 HD
ATOM      9  H   UNL     1       5.456  -0.726  -0.069  0.00  0.00    +0.286 HD
ENDROOT
BRANCH   4  10
ATOM     10  N   UNL     1       2.676  -4.179  -2.293  0.00  0.00    -0.400 NA
ATOM     11  C   UNL     1       1.627  -4.831  -3.120  0.00  0.00    +0.084 C 
ATOM     12  C   UNL     1       1.117  -6.257  -3.423  0.00  0.00    -0.049 C 
ATOM     13  C   UNL     1       1.842  -7.378  -2.661  0.00  0.00    -0.013 C 
ATOM     14  C   UNL     1       2.985  -6.962  -1.723  0.00  0.00    -0.056 C 
ATOM     15  C   UNL     1       3.237  -5.439  -1.702  0.00  0.00    +0.099 C 
ENDBRANCH   4  10
BRANCH   1  16
ATOM     16  C   UNL     1       2.663   0.077   0.130  0.00  0.00    +0.542 C 
ATOM     17  O   UNL     1       1.515  -0.081   0.516  0.00  0.00    -0.537 OA
BRANCH  16  18
ATOM     18  N   UNL     1       3.594   0.804   0.732  0.00  0.00    -0.646 NA
ATOM     19  H   UNL     1       3.123   1.267   1.520  0.00  0.00    +0.295 HD
ENDBRANCH  16  18
ENDBRANCH   1  16
BRANCH   7  20
ATOM     20  C   UNL     1       6.039  -2.797   0.225  0.00  0.00    +0.224 C 
BRANCH  20  21
ATOM     21  C   UNL     1       5.988  -3.093   1.697  0.00  0.00    +0.043 A 
ATOM     22  C   UNL     1       6.128  -4.410   2.164  0.00  0.00    -0.008 A 
ATOM     23  C   UNL     1       6.133  -4.676   3.533  0.00  0.00    +0.038 A 
ATOM     24  C   UNL     1       6.011  -3.632   4.451  0.00  0.00    +0.026 A 
ATOM     25  C   UNL     1       5.875  -2.322   3.998  0.00  0.00    +0.039 A 
ATOM     26  C   UNL     1       5.864  -2.054   2.635  0.00  0.00    +0.050 A 
ENDBRANCH  20  21
ENDBRANCH   7  20
TORSDOF 5
