REMARK  Name = 
REMARK  5 active torsions:
REMARK  status: ('A' for Active; 'I' for Inactive)
REMARK    1  A    between atoms: N_1  and  C_2
REMARK    2  A    between atoms: C_2  and  C_4
REMARK    3  A    between atoms: C_7  and  N_8
REMARK    4  A    between atoms: N_16  and  C_17
REMARK    5  A    between atoms: C_17  and  C_18
REMARK                            x       y       z     vdW  Elec       q    Type
REMARK                         _______ _______ _______ _____ _____    ______ ____
ROOT
ATOM      1  C   UNL     1       3.209  -0.168  -1.048  0.00  0.00    -0.096 C 
ATOM      2  C   UNL     1       2.374   0.476  -2.185  0.00  0.00    +0.137 C 
ATOM      3  C   UNL     1       1.148  -0.365  -2.584  0.00  0.00    +0.064 C 
ATOM      4  C   UNL     1       1.447  -1.857  -2.762  0.00  0.00    +0.374 C 
ATOM      5  N   UNL     1       2.332  -2.354  -1.735  0.00  0.00    -0.613 N 
ATOM      6  C   UNL     1       3.473  -1.601  -1.513  0.00  0.00    +0.421 C 
ATOM      7  N   UNL     1       4.609  -2.123  -1.853  0.00  0.00    -0.418 NA
ATOM      8  H   UNL     1       1.796  -2.316  -0.856  0.00  0.00    +0.278 HD
ENDROOT
BRANCH   4   9
ATOM      9  N   UNL     1       2.098  -2.138  -4.068  0.00  0.00    -0.606 N 
ATOM     10  C   UNL     1       1.280  -1.782  -5.256  0.00  0.00    +0.104 C 
ATOM     11  C   UNL     1       0.552  -2.525  -6.401  0.00  0.00    -0.056 C 
ATOM     12  C   UNL     1       0.766  -4.047  -6.412  0.00  0.00    -0.009 C 
ATOM     13  C   UNL     1       1.682  -4.639  -5.328  0.00  0.00    -0.052 C 
ATOM     14  C   UNL     1       2.244  -3.610  -4.322  0.00  0.00    +0.155 C 
ATOM     15  H   UNL     1       3.039  -1.727  -4.082  0.00  0.00    +0.284 HD
ENDBRANCH   4   9
BRANCH   1  16
ATOM     16  C   UNL     1       2.579  -0.148   0.342  0.00  0.00    +0.528 C 
ATOM     17  O   UNL     1       3.115  -0.696   1.293  0.00  0.00    -0.533 OA
BRANCH  16  18
ATOM     18  N   UNL     1       1.404   0.468   0.390  0.00  0.00    -0.637 NA
ATOM     19  H   UNL     1       1.177   0.597   1.384  0.00  0.00    +0.296 HD
ENDBRANCH  16  18
ENDBRANCH   1  16
BRANCH   7  20
ATOM     20  C   UNL     1       5.842  -1.403  -1.508  0.00  0.00    +0.167 C 
BRANCH  20  21
ATOM     21  C   UNL     1       7.095  -2.171  -1.900  0.00  0.00    +0.061 A 
ATOM     22  C   UNL     1       8.254  -1.473  -2.263  0.00  0.00    -0.009 A 
ATOM     23  C   UNL     1       9.433  -2.160  -2.578  0.00  0.00    +0.039 A 
ATOM     24  C   UNL     1       9.471  -3.550  -2.519  0.00  0.00    +0.027 A 
ATOM     25  C   UNL     1       8.331  -4.257  -2.138  0.00  0.00    +0.040 A 
ATOM     26  C   UNL     1       7.152  -3.567  -1.823  0.00  0.00    +0.055 A 
ENDBRANCH  20  21
ENDBRANCH   7  20
TORSDOF 5
