REMARK  Name = 
REMARK  5 active torsions:
REMARK  status: ('A' for Active; 'I' for Inactive)
REMARK    1  A    between atoms: N_3  and  C_4
REMARK    2  A    between atoms: C_10  and  C_11
REMARK    3  A    between atoms: C_11  and  O_12
REMARK    4  A    between atoms: N_13  and  C_14
REMARK    5  A    between atoms: C_14  and  C_15
REMARK                            x       y       z     vdW  Elec       q    Type
REMARK                         _______ _______ _______ _____ _____    ______ ____
ROOT
ATOM      1  C   UNL     1       4.341  -0.833   0.613  0.00  0.00    +0.401 C 
ATOM      2  N   UNL     1       5.608  -0.499  -0.017  0.00  0.00    -0.664 N 
ATOM      3  C   UNL     1       5.842  -0.889  -1.304  0.00  0.00    +0.523 C 
ATOM      4  N   UNL     1       6.441  -0.126  -2.153  0.00  0.00    -0.612 NA
ATOM      5  C   UNL     1       5.432  -2.281  -1.730  0.00  0.00    +0.101 C 
ATOM      6  C   UNL     1       4.100  -2.687  -1.114  0.00  0.00    +0.197 C 
ATOM      7  C   UNL     1       3.984  -2.308   0.365  0.00  0.00    +0.015 C 
ATOM      8  H   UNL     1       5.878   0.454   0.191  0.00  0.00    +0.305 HD
ATOM      9  H   UNL     1       6.653   0.774  -1.722  0.00  0.00    +0.299 HD
ENDROOT
BRANCH   1  12
ATOM     10  N   UNL     1       1.584   0.620   1.674  0.00  0.00    -0.163 NA
ATOM     11  N   UNL     1       2.383   0.335   0.913  0.00  0.00    -0.021 NA
ATOM     12  N   UNL     1       3.264   0.021   0.098  0.00  0.00    -0.262 NA
ENDBRANCH   1  12
BRANCH   7  13
ATOM     13  C   UNL     1       4.739  -3.181   1.339  0.00  0.00    +0.461 C 
ATOM     14  N   UNL     1       4.677  -2.911   2.598  0.00  0.00    -0.501 NA
BRANCH  13  15
ATOM     15  O   UNL     1       5.348  -4.261   0.829  0.00  0.00    -0.611 OA
ATOM     16  H   UNL     1       5.864  -4.723   1.508  0.00  0.00    +0.313 HD
ENDBRANCH  13  15
BRANCH  14  17
ATOM     17  C   UNL     1       5.052  -3.772   3.545  0.00  0.00    +0.219 C 
BRANCH  17  18
ATOM     18  C   UNL     1       5.098  -4.636   4.676  0.00  0.00    -0.059 C 
ATOM     19  C   UNL     1       5.063  -6.016   4.495  0.00  0.00    +0.012 C 
ATOM     20  C   UNL     1       4.760  -6.843   5.573  0.00  0.00    +0.005 C 
ATOM     21  C   UNL     1       4.473  -6.290   6.820  0.00  0.00    +0.010 C 
ATOM     22  C   UNL     1       4.531  -4.912   7.005  0.00  0.00    +0.006 C 
ATOM     23  C   UNL     1       4.838  -4.085   5.930  0.00  0.00    +0.027 C 
ENDBRANCH  17  18
ENDBRANCH  14  17
ENDBRANCH   7  13
TORSDOF 5
