REMARK  Name = 
REMARK  5 active torsions:
REMARK  status: ('A' for Active; 'I' for Inactive)
REMARK    1  A    between atoms: N_1  and  C_2
REMARK    2  A    between atoms: C_7  and  C_8
REMARK    3  A    between atoms: C_8  and  O_9
REMARK    4  A    between atoms: N_10  and  C_11
REMARK    5  A    between atoms: C_11  and  C_12
REMARK                            x       y       z     vdW  Elec       q    Type
REMARK                         _______ _______ _______ _____ _____    ______ ____
ROOT
ATOM      1  C   UNL     1       2.330   2.623   0.034  0.00  0.00    +0.523 C 
ATOM      2  N   UNL     1       1.105   3.008   0.065  0.00  0.00    -0.395 NA
ENDROOT
BRANCH   1   8
ATOM      3  C   UNL     1       2.509   0.110   0.518  0.00  0.00    +0.587 C 
ATOM      4  N   UNL     1       3.254  -1.002   0.384  0.00  0.00    -0.690 N 
ATOM      5  C   UNL     1       4.445  -1.054  -0.230  0.00  0.00    +0.333 C 
ATOM      6  C   UNL     1       4.957   0.093  -0.810  0.00  0.00    +0.015 C 
ATOM      7  C   UNL     1       4.204   1.253  -0.742  0.00  0.00    +0.128 C 
ATOM      8  C   UNL     1       2.970   1.292  -0.080  0.00  0.00    -0.197 C 
ATOM      9  H   UNL     1       2.898  -1.867   0.781  0.00  0.00    +0.349 HD
BRANCH   3  10
ATOM     10  N   UNL     1       1.316  -0.042   1.188  0.00  0.00    -0.809 N 
ATOM     11  H   UNL     1       1.026  -0.910   1.622  0.00  0.00    +0.362 HD
ATOM     12  H   UNL     1       0.972   0.778   1.693  0.00  0.00    +0.345 HD
ENDBRANCH   3  10
ENDBRANCH   1   8
BRANCH   1  13
ATOM     13  O   UNL     1       3.224   3.629   0.162  0.00  0.00    -0.542 OA
ATOM     14  H   UNL     1       4.167   3.425   0.117  0.00  0.00    +0.358 HD
ENDBRANCH   1  13
BRANCH   2  15
ATOM     15  C   UNL     1      -0.013   2.295  -0.064  0.00  0.00    +0.267 C 
BRANCH  15  16
ATOM     16  C   UNL     1      -1.367   1.835  -0.088  0.00  0.00    -0.041 C 
ATOM     17  C   UNL     1      -2.055   1.735  -1.293  0.00  0.00    +0.090 C 
ATOM     18  C   UNL     1      -3.428   1.490  -1.291  0.00  0.00    +0.079 C 
ATOM     19  C   UNL     1      -4.117   1.366  -0.086  0.00  0.00    +0.086 C 
ATOM     20  C   UNL     1      -3.430   1.468   1.120  0.00  0.00    +0.077 C 
ATOM     21  C   UNL     1      -2.058   1.711   1.119  0.00  0.00    +0.075 C 
ENDBRANCH  15  16
ENDBRANCH   2  15
TORSDOF 5
