REMARK  Name = 
REMARK  5 active torsions:
REMARK  status: ('A' for Active; 'I' for Inactive)
REMARK    1  A    between atoms: N_3  and  C_4
REMARK    2  A    between atoms: C_10  and  C_11
REMARK    3  A    between atoms: C_11  and  O_12
REMARK    4  A    between atoms: N_13  and  C_14
REMARK    5  A    between atoms: C_14  and  C_15
REMARK                            x       y       z     vdW  Elec       q    Type
REMARK                         _______ _______ _______ _____ _____    ______ ____
ROOT
ATOM      1  C   UNL     1       4.202  -1.125  -0.334  0.00  0.00    +0.382 C 
ATOM      2  N   UNL     1       3.601  -2.457  -0.334  0.00  0.00    -0.635 N 
ATOM      3  C   UNL     1       3.389  -3.174   0.811  0.00  0.00    +0.506 C 
ATOM      4  N   UNL     1       2.545  -4.151   0.820  0.00  0.00    -0.604 NA
ATOM      5  C   UNL     1       4.202  -2.907   2.052  0.00  0.00    +0.079 C 
ATOM      6  C   UNL     1       4.514  -1.425   2.173  0.00  0.00    +0.180 C 
ATOM      7  C   UNL     1       5.115  -0.872   0.878  0.00  0.00    +0.013 C 
ATOM      8  H   UNL     1       4.047  -3.047  -1.036  0.00  0.00    +0.296 HD
ATOM      9  H   UNL     1       2.085  -4.173  -0.095  0.00  0.00    +0.307 HD
ENDROOT
BRANCH   1  12
ATOM     10  N   UNL     1       1.926   0.113  -2.366  0.00  0.00    -0.166 NA
ATOM     11  N   UNL     1       2.522   0.024  -1.401  0.00  0.00    +0.005 NA
ATOM     12  N   UNL     1       3.192  -0.056  -0.355  0.00  0.00    -0.261 NA
ENDBRANCH   1  12
BRANCH   7  13
ATOM     13  C   UNL     1       6.498  -1.436   0.638  0.00  0.00    +0.425 C 
ATOM     14  N   UNL     1       6.706  -2.493  -0.052  0.00  0.00    -0.447 NA
BRANCH  13  15
ATOM     15  O   UNL     1       7.458  -0.721   1.252  0.00  0.00    -0.614 OA
ATOM     16  H   UNL     1       8.344  -1.088   1.124  0.00  0.00    +0.299 HD
ENDBRANCH  13  15
BRANCH  14  17
ATOM     17  C   UNL     1       8.044  -3.034  -0.227  0.00  0.00    +0.225 C 
BRANCH  17  18
ATOM     18  C   UNL     1       7.998  -4.318  -1.005  0.00  0.00    +0.019 C 
ATOM     19  C   UNL     1       8.044  -4.300  -2.401  0.00  0.00    -0.007 C 
ATOM     20  C   UNL     1       7.967  -5.488  -3.125  0.00  0.00    +0.004 C 
ATOM     21  C   UNL     1       7.833  -6.703  -2.458  0.00  0.00    +0.002 C 
ATOM     22  C   UNL     1       7.767  -6.729  -1.068  0.00  0.00    +0.004 C 
ATOM     23  C   UNL     1       7.843  -5.540  -0.345  0.00  0.00    -0.012 C 
ENDBRANCH  17  18
ENDBRANCH  14  17
ENDBRANCH   7  13
TORSDOF 5
