REMARK  Name = 
REMARK  4 active torsions:
REMARK  status: ('A' for Active; 'I' for Inactive)
REMARK    1  A    between atoms: C_5  and  C_6
REMARK    2  A    between atoms: N_8  and  C_9
REMARK    3  A    between atoms: C_9  and  C_10
REMARK    4  A    between atoms: C_10  and  C_11
REMARK                            x       y       z     vdW  Elec       q    Type
REMARK                         _______ _______ _______ _____ _____    ______ ____
ROOT
ATOM      1  C   UNL     1       6.491  -0.054  -0.046  0.00  0.00    +0.615 C 
ATOM      2  O   UNL     1       7.230  -1.033  -0.035  0.00  0.00    -0.446 OA
ATOM      3  N   UNL     1       6.948   1.246  -0.056  0.00  0.00    -0.669 N 
ATOM      4  H   UNL     1       6.256   1.987  -0.050  0.00  0.00    +0.331 HD
ENDROOT
BRANCH   1   9
ATOM      5  N   UNL     1       0.819  -0.418  -0.020  0.00  0.00    -0.485 NA
ATOM      6  C   UNL     1       2.093  -0.514   0.013  0.00  0.00    +0.507 C 
ATOM      7  C   UNL     1       2.840   0.743   0.001  0.00  0.00    -0.046 C 
ATOM      8  C   UNL     1       4.036   0.877  -0.027  0.00  0.00    +0.124 C 
ATOM      9  C   UNL     1       5.023  -0.167  -0.048  0.00  0.00    -0.155 C 
ATOM     10  C   UNL     1       4.339  -1.284  -0.020  0.00  0.00    +0.327 C 
ATOM     11  N   UNL     1       2.912  -1.636   0.040  0.00  0.00    -0.605 N 
ATOM     12  H   UNL     1       0.517   0.561  -0.037  0.00  0.00    +0.326 HD
ATOM     13  H   UNL     1       2.508  -2.556  -0.075  0.00  0.00    +0.361 HD
ENDBRANCH   1   9
BRANCH   3  14
ATOM     14  C   UNL     1       8.215   1.699  -0.046  0.00  0.00    +0.333 C 
BRANCH  14  15
ATOM     15  C   UNL     1       9.609   2.309  -0.002  0.00  0.00    +0.025 C 
BRANCH  15  16
ATOM     16  C   UNL     1      10.814   3.050   0.090  0.00  0.00    -0.027 C 
ATOM     17  C   UNL     1      10.740   4.435   0.136  0.00  0.00    +0.103 C 
ATOM     18  C   UNL     1      11.900   5.183   0.270  0.00  0.00    +0.025 C 
ATOM     19  C   UNL     1      13.123   4.521   0.357  0.00  0.00    +0.316 C 
ATOM     20  N   UNL     1      13.150   3.180   0.306  0.00  0.00    -0.618 N 
ATOM     21  C   UNL     1      12.050   2.420   0.178  0.00  0.00    +0.314 C 
ATOM     22  H   UNL     1      14.056   2.717   0.373  0.00  0.00    +0.344 HD
ENDBRANCH  15  16
ENDBRANCH  14  15
ENDBRANCH   3  14
TORSDOF 4
