REMARK  Name = 
REMARK  4 active torsions:
REMARK  status: ('A' for Active; 'I' for Inactive)
REMARK    1  A    between atoms: C_4  and  C_5
REMARK    2  A    between atoms: C_5  and  N_6
REMARK    3  A    between atoms: C_10  and  C_11
REMARK    4  A    between atoms: C_11  and  N_12
REMARK                            x       y       z     vdW  Elec       q    Type
REMARK                         _______ _______ _______ _____ _____    ______ ____
ROOT
ATOM      1  N   UNL     1       4.256   3.679  -1.563  0.00  0.00    -0.642 N 
ATOM      2  C   UNL     1       5.068   4.836  -1.587  0.00  0.00    +0.393 A 
ATOM      3  C   UNL     1       4.468   6.067  -1.840  0.00  0.00    -0.112 A 
ATOM      4  C   UNL     1       5.252   7.223  -1.828  0.00  0.00    +0.070 A 
ATOM      5  C   UNL     1       6.620   7.140  -1.559  0.00  0.00    -0.126 A 
ATOM      6  C   UNL     1       7.127   5.869  -1.337  0.00  0.00    +0.164 A 
ATOM      7  N   UNL     1       6.388   4.725  -1.354  0.00  0.00    -0.494 NA
ATOM      8  H   UNL     1       3.546   3.835  -0.853  0.00  0.00    +0.243 HD
ENDROOT
BRANCH   5   9
ATOM      9  C   UNL     1       7.434   8.400  -1.519  0.00  0.00    +0.499 C 
ATOM     10  O   UNL     1       6.846   9.451  -1.739  0.00  0.00    -0.549 OA
BRANCH   9  11
ATOM     11  N   UNL     1       8.732   8.323  -1.243  0.00  0.00    -0.660 NA
ATOM     12  H   UNL     1       9.075   7.380  -1.088  0.00  0.00    +0.253 HD
ENDBRANCH   9  11
ENDBRANCH   5   9
BRANCH   1  13
ATOM     13  C   UNL     1       5.031   2.459  -1.319  0.00  0.00    +0.190 C 
BRANCH  13  17
ATOM     14  N   UNL     1       4.025  -2.247  -0.386  0.00  0.00    -0.711 NA
ATOM     15  C   UNL     1       4.056  -1.265  -1.226  0.00  0.00    +0.477 C 
ATOM     16  C   UNL     1       4.917  -0.038  -1.016  0.00  0.00    -0.087 C 
ATOM     17  C   UNL     1       4.108   1.234  -1.318  0.00  0.00    +0.065 C 
ATOM     18  C   UNL     1       3.374   1.097  -2.667  0.00  0.00    +0.031 C 
ATOM     19  C   UNL     1       2.504  -0.152  -2.699  0.00  0.00    +0.152 C 
ATOM     20  N   UNL     1       3.288  -1.323  -2.351  0.00  0.00    -0.667 N 
ATOM     21  H   UNL     1       4.642  -2.053   0.410  0.00  0.00    +0.246 HD
ATOM     22  H   UNL     1       2.748  -2.184  -2.365  0.00  0.00    +0.264 HD
ENDBRANCH  13  17
ENDBRANCH   1  13
TORSDOF 4
