REMARK  Name = 
REMARK  4 active torsions:
REMARK  status: ('A' for Active; 'I' for Inactive)
REMARK    1  A    between atoms: C_5  and  C_6
REMARK    2  A    between atoms: N_8  and  C_9
REMARK    3  A    between atoms: C_9  and  C_10
REMARK    4  A    between atoms: N_20  and  C_21
REMARK                            x       y       z     vdW  Elec       q    Type
REMARK                         _______ _______ _______ _____ _____    ______ ____
ROOT
ATOM      1  N   UNL     1       1.184  -0.169   0.602  0.00  0.00    -0.617 NA
ATOM      2  C   UNL     1       2.387  -0.095   0.143  0.00  0.00    +0.471 C 
ATOM      3  C   UNL     1       3.087   1.228  -0.106  0.00  0.00    +0.061 C 
ATOM      4  C   UNL     1       4.151   1.203  -1.200  0.00  0.00    +0.137 C 
ATOM      5  C   UNL     1       4.982  -0.085  -1.190  0.00  0.00    -0.036 C 
ATOM      6  C   UNL     1       3.995  -1.250  -1.203  0.00  0.00    +0.257 C 
ATOM      7  N   UNL     1       3.136  -1.244  -0.040  0.00  0.00    -0.554 N 
ATOM      8  C   UNL     1       3.057  -2.410   0.736  0.00  0.00    +0.701 C 
ATOM      9  O   UNL     1       3.699  -3.430   0.506  0.00  0.00    -0.558 OA
ATOM     10  N   UNL     1       2.285  -2.280   1.862  0.00  0.00    -0.662 N 
ATOM     11  H   UNL     1       0.770   0.767   0.690  0.00  0.00    +0.286 HD
ATOM     12  H   UNL     1       1.575  -1.543   1.776  0.00  0.00    +0.365 HD
ENDROOT
BRANCH  10  13
ATOM     13  C   UNL     1       2.159  -3.310   2.881  0.00  0.00    +0.292 C 
ATOM     14  C   UNL     1       1.125  -4.378   2.506  0.00  0.00    +0.097 C 
ATOM     15  C   UNL     1      -0.245  -3.724   2.645  0.00  0.00    +0.469 C 
ATOM     16  S   UNL     1      -0.088  -2.588   4.018  0.00  0.00    -0.893 S 
ATOM     17  O   UNL     1      -0.408  -1.251   3.563  0.00  0.00    -0.179 OA
ATOM     18  O   UNL     1      -0.717  -3.174   5.183  0.00  0.00    -0.183 OA
ATOM     19  C   UNL     1       1.680  -2.723   4.206  0.00  0.00    +0.425 C 
ENDBRANCH  10  13
BRANCH   5  20
ATOM     20  C   UNL     1       5.980  -0.144  -0.030  0.00  0.00    +0.517 C 
ATOM     21  O   UNL     1       6.031   0.716   0.848  0.00  0.00    -0.516 OA
ATOM     22  N   UNL     1       6.890  -1.167  -0.005  0.00  0.00    -0.641 N 
ATOM     23  H   UNL     1       7.456  -1.196   0.834  0.00  0.00    +0.308 HD
BRANCH  22  24
ATOM     24  C   UNL     1       6.851  -2.351  -0.826  0.00  0.00    +0.225 C 
BRANCH  24  25
ATOM     25  C   UNL     1       8.165  -3.041  -0.985  0.00  0.00    +0.044 A 
ATOM     26  C   UNL     1       8.228  -4.431  -0.820  0.00  0.00    +0.014 A 
ATOM     27  C   UNL     1       9.408  -5.115  -1.095  0.00  0.00    +0.050 A 
ATOM     28  C   UNL     1      10.525  -4.413  -1.541  0.00  0.00    +0.037 A 
ATOM     29  C   UNL     1      10.468  -3.030  -1.714  0.00  0.00    +0.046 A 
ATOM     30  C   UNL     1       9.289  -2.343  -1.440  0.00  0.00    +0.034 A 
ENDBRANCH  24  25
ENDBRANCH  22  24
ENDBRANCH   5  20
TORSDOF 4
