REMARK  Name = 
REMARK  3 active torsions:
REMARK  status: ('A' for Active; 'I' for Inactive)
REMARK    1  A    between atoms: N_1  and  C_2
REMARK    2  A    between atoms: C_2  and  C_4
REMARK    3  A    between atoms: N_8  and  C_9
REMARK                            x       y       z     vdW  Elec       q    Type
REMARK                         _______ _______ _______ _____ _____    ______ ____
ROOT
ATOM      1  C   UNL     1       3.294   0.261   1.128  0.00  0.00    -0.147 C 
ATOM      2  C   UNL     1       4.413   1.072   1.260  0.00  0.00    +0.043 C 
ATOM      3  C   UNL     1       5.174   1.006   2.420  0.00  0.00    -0.125 C 
ATOM      4  C   UNL     1       4.802   0.115   3.424  0.00  0.00    +0.411 C 
ATOM      5  N   UNL     1       5.536  -0.035   4.603  0.00  0.00    -0.673 N 
ATOM      6  N   UNL     1       3.707  -0.668   3.330  0.00  0.00    -0.489 NA
ATOM      7  C   UNL     1       2.979  -0.575   2.184  0.00  0.00    +0.200 C 
ATOM      8  H   UNL     1       5.191  -0.845   5.104  0.00  0.00    +0.294 HD
ENDROOT
BRANCH   5   9
ATOM      9  C   UNL     1       6.828   0.333   4.826  0.00  0.00    +0.236 C 
ATOM     10  C   UNL     1       7.474  -0.308   5.943  0.00  0.00    -0.124 C 
ATOM     11  C   UNL     1       8.224   0.448   7.065  0.00  0.00    +0.099 C 
ATOM     12  N   UNL     1       8.505   1.888   7.309  0.00  0.00    -0.584 NA
ATOM     13  C   UNL     1       7.869   2.406   6.067  0.00  0.00    +0.101 C 
ATOM     14  C   UNL     1       7.107   1.746   4.892  0.00  0.00    -0.096 C 
ATOM     15  H   UNL     1       9.510   2.051   7.268  0.00  0.00    +0.246 HD
ENDBRANCH   5   9
BRANCH   1  16
ATOM     16  C   UNL     1       2.452   0.232  -0.084  0.00  0.00    +0.521 C 
ATOM     17  O   UNL     1       1.462  -0.487  -0.105  0.00  0.00    -0.550 OA
BRANCH  16  18
ATOM     18  N   UNL     1       2.853   1.005  -1.086  0.00  0.00    -0.643 NA
ATOM     19  H   UNL     1       2.181   0.860  -1.847  0.00  0.00    +0.278 HD
ENDBRANCH  16  18
ENDBRANCH   1  16
TORSDOF 3
