REMARK  Name = 
REMARK  6 active torsions:
REMARK  status: ('A' for Active; 'I' for Inactive)
REMARK    1  A    between atoms: C_5  and  C_6
REMARK    2  A    between atoms: C_6  and  N_8
REMARK    3  A    between atoms: C_9  and  O_10
REMARK    4  A    between atoms: C_9  and  C_11
REMARK    5  A    between atoms: C_18  and  C_20
REMARK    6  A    between atoms: N_24  and  O_25
REMARK                            x       y       z     vdW  Elec       q    Type
REMARK                         _______ _______ _______ _____ _____    ______ ____
ROOT
ATOM      1  N   UNL     1       1.068  -4.613   0.555  0.00  0.00    -0.891 N 
ATOM      2  C   UNL     1       1.988  -5.183   1.310  0.00  0.00    +0.552 C 
ATOM      3  C   UNL     1       2.846  -6.200   0.629  0.00  0.00    +0.105 C 
ATOM      4  C   UNL     1       3.241  -7.365   1.524  0.00  0.00    +0.211 C 
ATOM      5  C   UNL     1       3.710  -6.900   2.901  0.00  0.00    +0.030 C 
ATOM      6  C   UNL     1       2.664  -5.988   3.502  0.00  0.00    +0.363 C 
ATOM      7  N   UNL     1       2.266  -4.873   2.574  0.00  0.00    -0.532 N 
ATOM      8  C   UNL     1       2.190  -3.554   3.192  0.00  0.00    +0.480 C 
ATOM      9  O   UNL     1       2.296  -3.505   4.408  0.00  0.00    -0.487 OA
ATOM     10  H   UNL     1       0.940  -4.901  -0.413  0.00  0.00    +0.338 HD
ATOM     11  H   UNL     1       0.338  -4.024   0.937  0.00  0.00    +0.341 HD
ENDROOT
BRANCH   8  12
ATOM     12  C   UNL     1       2.024  -2.301   2.339  0.00  0.00    +0.039 C 
ATOM     13  C   UNL     1       2.118  -1.005   3.176  0.00  0.00    +0.204 C 
ATOM     14  C   UNL     1       3.551  -0.485   3.070  0.00  0.00    +0.155 C 
ATOM     15  C   UNL     1       4.150  -1.387   2.036  0.00  0.00    +0.261 C 
ATOM     16  N   UNL     1       5.431  -1.457   1.876  0.00  0.00    -0.175 NA
ATOM     17  C   UNL     1       3.109  -2.156   1.277  0.00  0.00    +0.176 C 
BRANCH  16  18
ATOM     18  O   UNL     1       5.777  -2.377   0.883  0.00  0.00    -0.479 OA
ATOM     19  H   UNL     1       6.750  -2.283   0.847  0.00  0.00    +0.353 HD
ENDBRANCH  16  18
ENDBRANCH   8  12
BRANCH   5  20
ATOM     20  C   UNL     1       5.050  -6.185   2.883  0.00  0.00    +0.525 C 
ATOM     21  O   UNL     1       5.635  -5.954   1.825  0.00  0.00    -0.515 OA
BRANCH  20  22
ATOM     22  N   UNL     1       5.506  -5.815   4.114  0.00  0.00    -0.503 NA
ATOM     23  C   UNL     1       6.601  -5.128   4.209  0.00  0.00    +0.480 C 
BRANCH  23  24
ATOM     24  C   UNL     1       7.107  -4.722   5.498  0.00  0.00    +0.102 A 
ATOM     25  C   UNL     1       8.257  -4.008   5.769  0.00  0.00    +0.302 A 
ATOM     26  N   UNL     1       8.285  -3.917   7.127  0.00  0.00    -0.423 N 
ATOM     27  N   UNL     1       7.218  -4.516   7.677  0.00  0.00    +0.036 NA
ATOM     28  N   UNL     1       6.487  -5.017   6.689  0.00  0.00    -0.163 NA
ATOM     29  H   UNL     1       8.972  -3.482   7.734  0.00  0.00    +0.307 HD
ENDBRANCH  23  24
BRANCH  23  30
ATOM     30  O   UNL     1       7.357  -4.726   3.157  0.00  0.00    -0.577 OA
ATOM     31  H   UNL     1       6.981  -5.059   2.320  0.00  0.00    +0.385 HD
ENDBRANCH  23  30
ENDBRANCH  20  22
ENDBRANCH   5  20
TORSDOF 6
