REMARK  Name = 
REMARK  6 active torsions:
REMARK  status: ('A' for Active; 'I' for Inactive)
REMARK    1  A    between atoms: C_5  and  C_6
REMARK    2  A    between atoms: C_6  and  O_7
REMARK    3  A    between atoms: N_8  and  C_9
REMARK    4  A    between atoms: C_9  and  C_10
REMARK    5  A    between atoms: C_18  and  N_20
REMARK    6  A    between atoms: N_20  and  C_21
REMARK                            x       y       z     vdW  Elec       q    Type
REMARK                         _______ _______ _______ _____ _____    ______ ____
ROOT
ATOM      1  N   UNL     1       0.962  -0.087  -0.058  0.00  0.00    -0.626 NA
ATOM      2  C   UNL     1       2.251  -0.112  -0.062  0.00  0.00    +0.471 C 
ATOM      3  C   UNL     1       3.082   1.162  -0.081  0.00  0.00    +0.023 C 
ATOM      4  C   UNL     1       4.106   1.128  -1.215  0.00  0.00    +0.092 C 
ATOM      5  C   UNL     1       4.952  -0.156  -1.146  0.00  0.00    -0.041 C 
ATOM      6  C   UNL     1       3.988  -1.340  -1.186  0.00  0.00    +0.223 C 
ATOM      7  N   UNL     1       3.000  -1.293  -0.118  0.00  0.00    -0.533 N 
ATOM      8  C   UNL     1       3.130  -2.239   0.919  0.00  0.00    +0.639 C 
ATOM      9  O   UNL     1       4.103  -2.999   0.927  0.00  0.00    -0.576 OA
ATOM     10  H   UNL     1       0.627   0.875   0.019  0.00  0.00    +0.258 HD
ENDROOT
BRANCH   5  11
ATOM     11  C   UNL     1       5.913  -0.129   0.031  0.00  0.00    +0.427 C 
ATOM     12  N   UNL     1       6.462   0.983   0.384  0.00  0.00    -0.452 NA
BRANCH  11  13
ATOM     13  O   UNL     1       6.239  -1.285   0.627  0.00  0.00    -0.616 OA
ATOM     14  H   UNL     1       5.566  -1.999   0.549  0.00  0.00    +0.331 HD
ENDBRANCH  11  13
BRANCH  12  15
ATOM     15  C   UNL     1       7.302   0.919   1.580  0.00  0.00    +0.250 C 
BRANCH  15  16
ATOM     16  C   UNL     1       7.816   2.286   1.946  0.00  0.00    +0.007 C 
ATOM     17  C   UNL     1       7.074   3.121   2.784  0.00  0.00    -0.028 C 
ATOM     18  C   UNL     1       7.548   4.390   3.118  0.00  0.00    -0.039 C 
ATOM     19  C   UNL     1       8.764   4.833   2.606  0.00  0.00    -0.049 C 
ATOM     20  C   UNL     1       9.500   4.016   1.753  0.00  0.00    -0.048 C 
ATOM     21  C   UNL     1       9.025   2.749   1.420  0.00  0.00    -0.046 C 
ENDBRANCH  15  16
ENDBRANCH  12  15
ENDBRANCH   5  11
BRANCH   8  22
ATOM     22  N   UNL     1       2.203  -2.144   1.873  0.00  0.00    -0.435 NA
BRANCH  22  23
ATOM     23  C   UNL     1       2.217  -3.202   2.891  0.00  0.00    +0.213 C 
ATOM     24  C   UNL     1       0.832  -3.281   3.568  0.00  0.00    +0.052 C 
ATOM     25  C   UNL     1       0.692  -2.071   4.491  0.00  0.00    +0.434 C 
ATOM     26  S   UNL     1       2.325  -1.793   5.160  0.00  0.00    -0.944 S 
ATOM     27  O   UNL     1       2.712  -0.414   4.942  0.00  0.00    -0.191 OA
ATOM     28  O   UNL     1       2.369  -2.360   6.495  0.00  0.00    -0.212 OA
ATOM     29  C   UNL     1       3.192  -2.894   4.038  0.00  0.00    +0.416 C 
ENDBRANCH  22  23
ENDBRANCH   8  22
TORSDOF 6
