REMARK  Name = 
REMARK  4 active torsions:
REMARK  status: ('A' for Active; 'I' for Inactive)
REMARK    1  A    between atoms: C_5  and  C_6
REMARK    2  A    between atoms: C_6  and  N_8
REMARK    3  A    between atoms: C_9  and  O_10
REMARK    4  A    between atoms: C_9  and  C_11
REMARK                            x       y       z     vdW  Elec       q    Type
REMARK                         _______ _______ _______ _____ _____    ______ ____
ROOT
ATOM      1  C   UNL     1       5.796  -0.119  -2.503  0.00  0.00    +0.483 C 
ATOM      2  O   UNL     1       5.746  -1.119  -3.219  0.00  0.00    -0.535 OA
ENDROOT
BRANCH   1   7
ATOM      3  N   UNL     1       1.103  -0.046   0.296  0.00  0.00    -0.611 NA
ATOM      4  C   UNL     1       2.369   0.027   0.054  0.00  0.00    +0.489 C 
ATOM      5  C   UNL     1       3.094   1.343  -0.110  0.00  0.00    +0.032 C 
ATOM      6  C   UNL     1       4.043   1.279  -1.307  0.00  0.00    +0.173 C 
ATOM      7  C   UNL     1       4.923   0.019  -1.260  0.00  0.00    +0.024 C 
ATOM      8  C   UNL     1       4.050  -1.237  -1.147  0.00  0.00    +0.316 C 
ATOM      9  N   UNL     1       3.098  -1.121  -0.053  0.00  0.00    -0.620 N 
ATOM     10  H   UNL     1       0.689   0.890   0.346  0.00  0.00    +0.279 HD
ATOM     11  H   UNL     1       2.487  -1.931   0.031  0.00  0.00    +0.303 HD
ENDBRANCH   1   7
BRANCH   1  12
ATOM     12  N   UNL     1       6.659   0.918  -2.722  0.00  0.00    -0.529 NA
ATOM     13  C   UNL     1       7.487   0.858  -3.715  0.00  0.00    +0.455 C 
BRANCH  13  14
ATOM     14  C   UNL     1       8.417   1.941  -3.989  0.00  0.00    +0.101 A 
ATOM     15  C   UNL     1       9.339   2.041  -5.056  0.00  0.00    +0.227 A 
ATOM     16  N   UNL     1      10.025   3.184  -4.977  0.00  0.00    -0.184 NA
ATOM     17  N   UNL     1       9.495   3.726  -3.871  0.00  0.00    -0.264 N 
ATOM     18  N   UNL     1       8.532   3.047  -3.228  0.00  0.00    -0.177 NA
ATOM     19  H   UNL     1       9.814   4.632  -3.528  0.00  0.00    +0.262 HD
ENDBRANCH  13  14
BRANCH  13  20
ATOM     20  O   UNL     1       7.582  -0.177  -4.585  0.00  0.00    -0.593 OA
ATOM     21  H   UNL     1       6.935  -0.872  -4.351  0.00  0.00    +0.370 HD
ENDBRANCH  13  20
ENDBRANCH   1  12
TORSDOF 4
