REMARK  Name = 
REMARK  1 active torsions:
REMARK  status: ('A' for Active; 'I' for Inactive)
REMARK    1  A    between atoms: C_5  and  C_6
REMARK                            x       y       z     vdW  Elec       q    Type
REMARK                         _______ _______ _______ _____ _____    ______ ____
ROOT
ATOM      1  C   UNL     1       6.652  -0.145   0.029  0.00  0.00    +0.547 C 
ATOM      2  O   UNL     1       7.076  -1.180  -0.485  0.00  0.00    -0.458 OA
ATOM      3  N   UNL     1       7.326   1.069  -0.069  0.00  0.00    -0.498 N 
ATOM      4  C   UNL     1       6.989   2.326   0.367  0.00  0.00    +0.209 C 
ATOM      5  C   UNL     1       7.429   3.760   0.017  0.00  0.00    +0.019 C 
ATOM      6  C   UNL     1       8.495   3.636  -1.091  0.00  0.00    +0.047 C 
ATOM      7  C   UNL     1       9.023   2.404  -1.722  0.00  0.00    +0.307 C 
ATOM      8  F   UNL     1       8.678   2.355  -3.028  0.00  0.00    -0.270 F 
ATOM      9  F   UNL     1      10.364   2.323  -1.616  0.00  0.00    -0.270 F 
ATOM     10  C   UNL     1       8.341   1.325  -0.973  0.00  0.00    +0.241 C 
ENDROOT
BRANCH   1  15
ATOM     11  N   UNL     1       1.918  -0.571   3.119  0.00  0.00    -0.544 NA
ATOM     12  C   UNL     1       2.958  -0.645   2.377  0.00  0.00    +0.490 C 
ATOM     13  C   UNL     1       3.928   0.439   2.509  0.00  0.00    -0.083 C 
ATOM     14  C   UNL     1       4.891   0.654   1.814  0.00  0.00    +0.107 C 
ATOM     15  C   UNL     1       5.338  -0.132   0.697  0.00  0.00    -0.145 C 
ATOM     16  C   UNL     1       4.475  -1.120   0.630  0.00  0.00    +0.281 C 
ATOM     17  N   UNL     1       3.292  -1.575   1.395  0.00  0.00    -0.617 N 
ATOM     18  H   UNL     1       1.967   0.247   3.736  0.00  0.00    +0.306 HD
ATOM     19  H   UNL     1       2.520  -2.083   0.981  0.00  0.00    +0.332 HD
ENDBRANCH   1  15
TORSDOF 1
