REMARK  Name = 
REMARK  5 active torsions:
REMARK  status: ('A' for Active; 'I' for Inactive)
REMARK    1  A    between atoms: C_1  and  C_2
REMARK    2  A    between atoms: C_6  and  C_7
REMARK    3  A    between atoms: C_7  and  O_8
REMARK    4  A    between atoms: N_9  and  C_10
REMARK    5  A    between atoms: C_10  and  C_11
REMARK                            x       y       z     vdW  Elec       q    Type
REMARK                         _______ _______ _______ _____ _____    ______ ____
ROOT
ATOM      1  C   UNL     1       1.195   0.649   0.299  0.00  0.00    +0.199 C 
ATOM      2  C   UNL     1       2.518  -0.055   0.132  0.00  0.00    +0.563 C 
ATOM      3  O   UNL     1       3.022  -0.658   1.085  0.00  0.00    -0.498 OA
ATOM      4  N   UNL     1       3.139  -0.004  -1.120  0.00  0.00    -0.570 N 
ATOM      5  C   UNL     1       4.299  -0.723  -1.424  0.00  0.00    +0.263 C 
ATOM      6  C   UNL     1       5.130  -0.806  -2.438  0.00  0.00    -0.177 C 
ATOM      7  C   UNL     1       4.601   0.092  -3.430  0.00  0.00    +0.060 C 
ATOM      8  C   UNL     1       3.614   0.774  -3.348  0.00  0.00    -0.103 C 
ATOM      9  C   UNL     1       2.725   0.854  -2.196  0.00  0.00    +0.448 C 
ATOM     10  N   UNL     1       1.738   1.664  -2.283  0.00  0.00    -0.608 NA
ATOM     11  H   UNL     1       1.733   2.141  -3.192  0.00  0.00    +0.292 HD
ENDROOT
BRANCH   6  12
ATOM     12  C   UNL     1       6.230  -1.765  -2.629  0.00  0.00    +0.454 C 
ATOM     13  N   UNL     1       7.323  -1.649  -3.284  0.00  0.00    -0.371 NA
BRANCH  12  14
ATOM     14  O   UNL     1       6.016  -2.954  -2.025  0.00  0.00    -0.576 OA
ATOM     15  H   UNL     1       5.172  -3.036  -1.556  0.00  0.00    +0.321 HD
ENDBRANCH  12  14
BRANCH  13  16
ATOM     16  C   UNL     1       7.637  -0.365  -3.902  0.00  0.00    +0.238 C 
BRANCH  16  17
ATOM     17  C   UNL     1       8.963  -0.391  -4.606  0.00  0.00    +0.027 C 
ATOM     18  C   UNL     1       9.028  -0.700  -5.968  0.00  0.00    +0.001 C 
ATOM     19  C   UNL     1      10.252  -0.716  -6.632  0.00  0.00    +0.011 C 
ATOM     20  C   UNL     1      11.422  -0.431  -5.934  0.00  0.00    +0.008 C 
ATOM     21  C   UNL     1      11.369  -0.139  -4.574  0.00  0.00    +0.011 C 
ATOM     22  C   UNL     1      10.144  -0.123  -3.911  0.00  0.00    +0.007 C 
ENDBRANCH  16  17
ENDBRANCH  13  16
ENDBRANCH   6  12
TORSDOF 4
