REMARK  Name = 
REMARK  4 active torsions:
REMARK  status: ('A' for Active; 'I' for Inactive)
REMARK    1  A    between atoms: C_5  and  C_6
REMARK    2  A    between atoms: C_6  and  N_7
REMARK    3  A    between atoms: N_10  and  C_11
REMARK    4  A    between atoms: C_11  and  C_12
REMARK                            x       y       z     vdW  Elec       q    Type
REMARK                         _______ _______ _______ _____ _____    ______ ____
ROOT
ATOM      1  N   UNL     1       1.117   0.072   0.417  0.00  0.00    -0.678 NA
ATOM      2  C   UNL     1       2.356   0.046   0.039  0.00  0.00    +0.487 C 
ATOM      3  C   UNL     1       3.179   1.323  -0.001  0.00  0.00    -0.051 C 
ATOM      4  C   UNL     1       4.217   1.284  -1.124  0.00  0.00    +0.054 C 
ATOM      5  C   UNL     1       5.053  -0.006  -1.096  0.00  0.00    -0.147 C 
ATOM      6  C   UNL     1       4.057  -1.169  -1.210  0.00  0.00    +0.432 C 
ATOM      7  N   UNL     1       4.079  -2.104  -2.108  0.00  0.00    -0.450 NA
ATOM      8  N   UNL     1       2.978  -1.120  -0.344  0.00  0.00    -0.701 N 
ATOM      9  H   UNL     1       0.838   1.035   0.621  0.00  0.00    +0.243 HD
ATOM     10  H   UNL     1       3.217  -1.651   0.489  0.00  0.00    +0.298 HD
ENDROOT
BRANCH   5  11
ATOM     11  C   UNL     1       5.901  -0.070   0.175  0.00  0.00    +0.520 C 
ATOM     12  O   UNL     1       5.493  -0.636   1.190  0.00  0.00    -0.546 OA
BRANCH  11  13
ATOM     13  N   UNL     1       7.064   0.571   0.078  0.00  0.00    -0.675 NA
ATOM     14  H   UNL     1       7.165   1.038  -0.829  0.00  0.00    +0.242 HD
ENDBRANCH  11  13
ENDBRANCH   5  11
BRANCH   7  15
ATOM     15  C   UNL     1       5.089  -2.054  -3.150  0.00  0.00    +0.105 C 
BRANCH  15  16
ATOM     16  C   UNL     1       4.883  -3.159  -4.163  0.00  0.00    +0.045 A 
ATOM     17  C   UNL     1       3.669  -3.271  -4.858  0.00  0.00    -0.014 A 
ATOM     18  C   UNL     1       3.489  -4.274  -5.810  0.00  0.00    -0.030 A 
ATOM     19  C   UNL     1       4.522  -5.171  -6.081  0.00  0.00    -0.047 A 
ATOM     20  C   UNL     1       5.732  -5.066  -5.398  0.00  0.00    -0.031 A 
ATOM     21  C   UNL     1       5.913  -4.066  -4.445  0.00  0.00    -0.056 A 
ENDBRANCH  15  16
ENDBRANCH   7  15
TORSDOF 4
