REMARK  Name = 
REMARK  5 active torsions:
REMARK  status: ('A' for Active; 'I' for Inactive)
REMARK    1  A    between atoms: N_1  and  C_2
REMARK    2  A    between atoms: C_5  and  C_6
REMARK    3  A    between atoms: N_8  and  C_9
REMARK    4  A    between atoms: C_9  and  C_10
REMARK    5  A    between atoms: N_20  and  C_21
REMARK                            x       y       z     vdW  Elec       q    Type
REMARK                         _______ _______ _______ _____ _____    ______ ____
ROOT
ATOM      1  C   UNL     1       2.522  -0.238  -0.186  0.00  0.00    +0.482 C 
ATOM      2  C   UNL     1       3.178   0.934  -0.201  0.00  0.00    -0.059 C 
ATOM      3  C   UNL     1       4.651   1.128  -0.083  0.00  0.00    +0.145 C 
ATOM      4  C   UNL     1       5.448  -0.158   0.092  0.00  0.00    -0.002 C 
ATOM      5  C   UNL     1       4.694  -1.420  -0.357  0.00  0.00    +0.270 C 
ATOM      6  N   UNL     1       3.232  -1.450  -0.097  0.00  0.00    -0.573 N 
ATOM      7  C   UNL     1       2.545  -2.614   0.286  0.00  0.00    +0.666 C 
ATOM      8  O   UNL     1       1.374  -2.612   0.679  0.00  0.00    -0.569 OA
ATOM      9  N   UNL     1       3.261  -3.800   0.300  0.00  0.00    -0.677 N 
ATOM     10  H   UNL     1       3.966  -3.864  -0.428  0.00  0.00    +0.332 HD
ENDROOT
BRANCH   9  11
ATOM     11  C   UNL     1       2.498  -5.028   0.573  0.00  0.00    +0.294 C 
ATOM     12  C   UNL     1       3.346  -6.213   1.059  0.00  0.00    +0.062 C 
ATOM     13  C   UNL     1       3.866  -7.003  -0.139  0.00  0.00    +0.460 C 
ATOM     14  S   UNL     1       3.038  -6.372  -1.575  0.00  0.00    -0.908 S 
ATOM     15  O   UNL     1       3.905  -5.385  -2.197  0.00  0.00    -0.191 OA
ATOM     16  O   UNL     1       2.442  -7.459  -2.313  0.00  0.00    -0.176 OA
ATOM     17  C   UNL     1       1.769  -5.494  -0.685  0.00  0.00    +0.438 C 
ENDBRANCH   9  11
BRANCH   4  18
ATOM     18  C   UNL     1       6.161  -0.225   1.458  0.00  0.00    +0.489 C 
ATOM     19  O   UNL     1       7.332   0.153   1.558  0.00  0.00    -0.514 OA
ATOM     20  N   UNL     1       5.533  -0.625   2.601  0.00  0.00    -0.637 N 
ATOM     21  H   UNL     1       6.141  -0.689   3.407  0.00  0.00    +0.300 HD
BRANCH  20  22
ATOM     22  C   UNL     1       4.214  -1.179   2.666  0.00  0.00    +0.276 C 
BRANCH  22  23
ATOM     23  C   UNL     1       3.444  -1.107   3.940  0.00  0.00    +0.041 A 
ATOM     24  C   UNL     1       2.042  -0.990   3.834  0.00  0.00    +0.030 A 
ATOM     25  C   UNL     1       1.240  -0.973   4.964  0.00  0.00    +0.056 A 
ATOM     26  C   UNL     1       1.830  -1.084   6.216  0.00  0.00    +0.041 A 
ATOM     27  C   UNL     1       3.215  -1.227   6.332  0.00  0.00    +0.050 A 
ATOM     28  C   UNL     1       4.020  -1.246   5.197  0.00  0.00    +0.033 A 
ENDBRANCH  22  23
ENDBRANCH  20  22
ENDBRANCH   4  18
BRANCH   1  29
ATOM     29  N   UNL     1       1.143  -0.193  -0.168  0.00  0.00    -0.819 N 
ATOM     30  H   UNL     1       0.762   0.646   0.257  0.00  0.00    +0.303 HD
ATOM     31  H   UNL     1       0.762  -1.038   0.273  0.00  0.00    +0.356 HD
ENDBRANCH   1  29
TORSDOF 5
