REMARK  Name = 
REMARK  5 active torsions:
REMARK  status: ('A' for Active; 'I' for Inactive)
REMARK    1  A    between atoms: N_1  and  C_2
REMARK    2  A    between atoms: C_7  and  C_8
REMARK    3  A    between atoms: C_8  and  O_9
REMARK    4  A    between atoms: N_10  and  C_11
REMARK    5  A    between atoms: C_11  and  C_12
REMARK                            x       y       z     vdW  Elec       q    Type
REMARK                         _______ _______ _______ _____ _____    ______ ____
ROOT
ATOM      1  C   UNL     1       2.317   2.432  -0.042  0.00  0.00    +0.477 C 
ATOM      2  N   UNL     1       1.049   2.633  -0.017  0.00  0.00    -0.366 NA
ENDROOT
BRANCH   1   8
ATOM      3  C   UNL     1       2.850  -0.090  -0.531  0.00  0.00    +0.566 C 
ATOM      4  N   UNL     1       3.703  -1.101  -0.279  0.00  0.00    -0.698 N 
ATOM      5  C   UNL     1       4.859  -0.990   0.377  0.00  0.00    +0.305 C 
ATOM      6  C   UNL     1       5.231   0.251   0.872  0.00  0.00    -0.011 C 
ATOM      7  C   UNL     1       4.355   1.314   0.704  0.00  0.00    +0.102 C 
ATOM      8  C   UNL     1       3.149   1.182   0.005  0.00  0.00    -0.199 C 
ATOM      9  H   UNL     1       3.457  -2.028  -0.629  0.00  0.00    +0.331 HD
BRANCH   3  10
ATOM     10  N   UNL     1       1.746  -0.444  -1.267  0.00  0.00    -0.853 N 
ATOM     11  H   UNL     1       1.551  -1.395  -1.558  0.00  0.00    +0.344 HD
ATOM     12  H   UNL     1       1.468   0.219  -1.995  0.00  0.00    +0.327 HD
ENDBRANCH   3  10
ENDBRANCH   1   8
BRANCH   1  13
ATOM     13  O   UNL     1       3.062   3.559  -0.118  0.00  0.00    -0.558 OA
ATOM     14  H   UNL     1       4.027   3.478  -0.125  0.00  0.00    +0.342 HD
ENDBRANCH   1  13
BRANCH   2  15
ATOM     15  C   UNL     1       0.113   1.535   0.065  0.00  0.00    +0.270 C 
BRANCH  15  16
ATOM     16  C   UNL     1      -1.359   1.802   0.191  0.00  0.00    +0.074 A 
ATOM     17  C   UNL     1      -1.949   3.064   0.273  0.00  0.00    +0.123 A 
ATOM     18  C   UNL     1      -3.342   3.179   0.249  0.00  0.00    +0.126 A 
ATOM     19  C   UNL     1      -4.153   2.045   0.142  0.00  0.00    +0.115 A 
ATOM     20  C   UNL     1      -3.576   0.786   0.076  0.00  0.00    +0.124 A 
ATOM     21  C   UNL     1      -2.192   0.668   0.103  0.00  0.00    +0.060 A 
ENDBRANCH  15  16
ENDBRANCH   2  15
TORSDOF 5
