REMARK  Name = 
REMARK  5 active torsions:
REMARK  status: ('A' for Active; 'I' for Inactive)
REMARK    1  A    between atoms: C_2  and  C_3
REMARK    2  A    between atoms: C_3  and  C_12
REMARK    3  A    between atoms: N_4  and  C_5
REMARK    4  A    between atoms: C_5  and  C_6
REMARK    5  A    between atoms: C_18  and  N_19
REMARK                            x       y       z     vdW  Elec       q    Type
REMARK                         _______ _______ _______ _____ _____    ______ ____
ROOT
ATOM      1  C   UNL     1       4.833  -1.031  -0.197  0.00  0.00    +0.030 C 
ATOM      2  C   UNL     1       4.523  -2.531  -0.282  0.00  0.00    +0.184 C 
ATOM      3  C   UNL     1       4.131  -3.184   1.039  0.00  0.00    +0.048 C 
ATOM      4  C   UNL     1       4.855  -2.657   2.219  0.00  0.00    +0.636 C 
ATOM      5  N   UNL     1       4.989  -3.440   3.270  0.00  0.00    -0.910 N 
ATOM      6  N   UNL     1       5.382  -1.452   2.212  0.00  0.00    -0.731 N 
ATOM      7  C   UNL     1       5.673  -0.666   1.027  0.00  0.00    +0.464 C 
ATOM      8  H   UNL     1       4.636  -4.392   3.265  0.00  0.00    +0.339 HD
ATOM      9  H   UNL     1       5.516  -3.157   4.087  0.00  0.00    +0.351 HD
ATOM     10  H   UNL     1       5.663  -1.050   3.096  0.00  0.00    +0.317 HD
ENDROOT
BRANCH   7  11
ATOM     11  N   UNL     1       7.058  -1.004   0.806  0.00  0.00    -0.739 NA
ATOM     12  H   UNL     1       7.192  -2.009   0.710  0.00  0.00    +0.318 HD
ATOM     13  H   UNL     1       7.638  -0.707   1.589  0.00  0.00    +0.320 HD
ENDBRANCH   7  11
BRANCH   1  14
ATOM     14  C   UNL     1       3.594  -0.169  -0.197  0.00  0.00    +0.133 C 
ATOM     15  N   UNL     1       2.670  -0.348   0.678  0.00  0.00    -0.350 NA
BRANCH  14  17
ATOM     16  N   UNL     1       3.451   1.780  -1.938  0.00  0.00    -0.305 NA
ATOM     17  C   UNL     1       3.484   0.908  -1.166  0.00  0.00    +0.190 C 
ENDBRANCH  14  17
BRANCH  15  18
ATOM     18  C   UNL     1       1.462   0.479   0.700  0.00  0.00    +0.227 C 
BRANCH  18  19
ATOM     19  C   UNL     1       0.644   0.114   1.913  0.00  0.00    +0.078 A 
ATOM     20  C   UNL     1       0.772   0.833   3.112  0.00  0.00    +0.059 A 
ATOM     21  C   UNL     1       0.017   0.480   4.233  0.00  0.00    +0.100 A 
ATOM     22  C   UNL     1      -0.862  -0.600   4.172  0.00  0.00    +0.089 A 
ATOM     23  C   UNL     1      -0.980  -1.335   2.994  0.00  0.00    +0.096 A 
ATOM     24  C   UNL     1      -0.226  -0.985   1.873  0.00  0.00    +0.055 A 
ENDBRANCH  18  19
ENDBRANCH  15  18
ENDBRANCH   1  14
TORSDOF 5
