REMARK  Name = 
REMARK  5 active torsions:
REMARK  status: ('A' for Active; 'I' for Inactive)
REMARK    1  A    between atoms: C_4  and  C_5
REMARK    2  A    between atoms: C_5  and  N_6
REMARK    3  A    between atoms: C_7  and  O_8
REMARK    4  A    between atoms: C_7  and  C_9
REMARK    5  A    between atoms: N_13  and  C_14
REMARK                            x       y       z     vdW  Elec       q    Type
REMARK                         _______ _______ _______ _____ _____    ______ ____
ROOT
ATOM      1  C   UNL     1       8.723  -3.338  -0.123  0.00  0.00    -0.062 A 
ATOM      2  C   UNL     1       9.215  -2.430   0.807  0.00  0.00    +0.197 A 
ATOM      3  C   UNL     1      10.590  -2.181   0.850  0.00  0.00    +0.004 A 
ATOM      4  C   UNL     1      11.456  -2.833  -0.041  0.00  0.00    +0.531 A 
ATOM      5  N   UNL     1      12.830  -2.643   0.034  0.00  0.00    -0.672 N 
ATOM      6  N   UNL     1      10.929  -3.717  -0.900  0.00  0.00    -0.663 N 
ATOM      7  C   UNL     1       9.618  -3.985  -0.974  0.00  0.00    +0.353 A 
ATOM      8  H   UNL     1      13.141  -1.719   0.325  0.00  0.00    +0.317 HD
ATOM      9  H   UNL     1      11.565  -4.204  -1.533  0.00  0.00    +0.323 HD
ENDROOT
BRANCH   5  10
ATOM     10  C   UNL     1      13.835  -3.527  -0.245  0.00  0.00    +0.259 C 
ATOM     11  C   UNL     1      13.581  -4.934  -0.055  0.00  0.00    -0.007 C 
ATOM     12  C   UNL     1      14.384  -5.992   0.731  0.00  0.00    +0.065 C 
ATOM     13  C   UNL     1      15.698  -5.499   1.364  0.00  0.00    +0.057 C 
ATOM     14  C   UNL     1      16.105  -4.031   1.130  0.00  0.00    +0.070 C 
ATOM     15  C   UNL     1      15.124  -3.178   0.297  0.00  0.00    -0.001 C 
ENDBRANCH   5  10
BRANCH   1  17
ATOM     16  N   UNL     1       6.960  -4.627  -1.087  0.00  0.00    -0.481 NA
ATOM     17  C   UNL     1       7.302  -3.683  -0.286  0.00  0.00    +0.478 C 
BRANCH  17  18
ATOM     18  O   UNL     1       6.477  -2.920   0.444  0.00  0.00    -0.584 OA
ATOM     19  H   UNL     1       5.543  -3.146   0.286  0.00  0.00    +0.338 HD
ENDBRANCH  17  18
BRANCH  16  20
ATOM     20  C   UNL     1       5.707  -5.038  -1.309  0.00  0.00    +0.246 C 
BRANCH  20  24
ATOM     21  N   UNL     1       3.724  -9.146  -0.959  0.00  0.00    -0.516 NA
ATOM     22  C   UNL     1       3.932  -8.210  -1.804  0.00  0.00    +0.484 C 
ATOM     23  C   UNL     1       4.337  -6.921  -1.241  0.00  0.00    -0.040 C 
ATOM     24  C   UNL     1       4.523  -5.708  -1.721  0.00  0.00    +0.008 C 
ATOM     25  C   UNL     1       4.138  -5.814  -3.111  0.00  0.00    -0.017 C 
ATOM     26  C   UNL     1       3.835  -6.823  -3.688  0.00  0.00    +0.258 C 
ATOM     27  N   UNL     1       3.770  -8.198  -3.187  0.00  0.00    -0.600 N 
ATOM     28  H   UNL     1       3.909  -8.833  -0.002  0.00  0.00    +0.313 HD
ATOM     29  H   UNL     1       3.121  -8.887  -3.549  0.00  0.00    +0.342 HD
ENDBRANCH  20  24
ENDBRANCH  16  20
ENDBRANCH   1  17
TORSDOF 5
