REMARK  Name = 
REMARK  5 active torsions:
REMARK  status: ('A' for Active; 'I' for Inactive)
REMARK    1  A    between atoms: C_2  and  C_3
REMARK    2  A    between atoms: C_2  and  C_6
REMARK    3  A    between atoms: C_6  and  N_8
REMARK    4  A    between atoms: N_8  and  C_9
REMARK    5  A    between atoms: C_12  and  C_13
REMARK                            x       y       z     vdW  Elec       q    Type
REMARK                         _______ _______ _______ _____ _____    ______ ____
ROOT
ATOM      1  C   UNL     1       4.776  -1.291   2.699  0.00  0.00    +0.523 A 
ATOM      2  C   UNL     1       4.204  -2.441   3.254  0.00  0.00    +0.017 A 
ATOM      3  C   UNL     1       4.639  -2.924   4.482  0.00  0.00    +0.135 A 
ATOM      4  C   UNL     1       5.627  -2.228   5.171  0.00  0.00    -0.112 A 
ATOM      5  C   UNL     1       6.164  -1.074   4.608  0.00  0.00    +0.352 A 
ATOM      6  N   UNL     1       5.746  -0.675   3.401  0.00  0.00    -0.656 N 
ATOM      7  H   UNL     1       6.182   0.115   2.906  0.00  0.00    +0.349 HD
ENDROOT
BRANCH   4   8
ATOM      8  C   UNL     1       6.114  -2.653   6.493  0.00  0.00    +0.593 C 
ATOM      9  N   UNL     1       6.007  -3.975   6.818  0.00  0.00    -0.853 N 
ATOM     10  O   UNL     1       6.618  -1.840   7.253  0.00  0.00    -0.502 OA
ATOM     11  H   UNL     1       5.767  -4.701   6.158  0.00  0.00    +0.331 HD
ATOM     12  H   UNL     1       6.389  -4.266   7.711  0.00  0.00    +0.357 HD
ENDBRANCH   4   8
BRANCH   1  13
ATOM     13  N   UNL     1       4.339  -0.869   1.505  0.00  0.00    -0.507 NA
BRANCH  13  14
ATOM     14  C   UNL     1       5.246  -0.316   0.702  0.00  0.00    +0.549 C 
ATOM     15  O   UNL     1       6.330   0.145   1.069  0.00  0.00    -0.506 OA
BRANCH  14  17
ATOM     16  C   UNL     1       5.545   0.613  -1.745  0.00  0.00    +0.072 C 
ATOM     17  C   UNL     1       4.786  -0.295  -0.749  0.00  0.00    -0.134 C 
BRANCH  17  18
ATOM     18  C   UNL     1       3.657  -1.164  -1.299  0.00  0.00    +0.613 C 
ATOM     19  N   UNL     1       3.444  -1.070  -2.653  0.00  0.00    -0.838 N 
ATOM     20  O   UNL     1       2.958  -1.942  -0.656  0.00  0.00    -0.484 OA
ATOM     21  H   UNL     1       4.030  -0.478  -3.232  0.00  0.00    +0.339 HD
ATOM     22  H   UNL     1       2.727  -1.645  -3.071  0.00  0.00    +0.361 HD
ENDBRANCH  17  18
ENDBRANCH  14  17
ENDBRANCH  13  14
ENDBRANCH   1  13
TORSDOF 5
