REMARK  Name = 
REMARK  5 active torsions:
REMARK  status: ('A' for Active; 'I' for Inactive)
REMARK    1  A    between atoms: C_2  and  N_3
REMARK    2  A    between atoms: C_2  and  C_19
REMARK    3  A    between atoms: C_4  and  O_5
REMARK    4  A    between atoms: C_4  and  C_6
REMARK    5  A    between atoms: N_10  and  C_11
REMARK                            x       y       z     vdW  Elec       q    Type
REMARK                         _______ _______ _______ _____ _____    ______ ____
ROOT
ATOM      1  C   UNL     1       1.038   2.358  -0.640  0.00  0.00    -0.055 A 
ATOM      2  C   UNL     1       0.382   1.828   0.471  0.00  0.00    +0.154 A 
ATOM      3  C   UNL     1      -1.008   1.840   0.517  0.00  0.00    -0.011 A 
ATOM      4  C   UNL     1      -1.734   2.410  -0.528  0.00  0.00    +0.443 A 
ATOM      5  N   UNL     1      -3.134   2.327  -0.429  0.00  0.00    -0.654 N 
ATOM      6  N   UNL     1      -1.120   2.978  -1.588  0.00  0.00    -0.404 NA
ATOM      7  C   UNL     1       0.243   2.927  -1.627  0.00  0.00    +0.276 A 
ATOM      8  H   UNL     1      -3.444   1.364  -0.385  0.00  0.00    +0.299 HD
ENDROOT
BRANCH   5   9
ATOM      9  C   UNL     1      -4.042   3.183  -0.993  0.00  0.00    +0.263 C 
ATOM     10  C   UNL     1      -3.991   4.525  -0.457  0.00  0.00    -0.030 C 
ATOM     11  C   UNL     1      -5.134   5.161   0.377  0.00  0.00    +0.167 C 
ATOM     12  N   UNL     1      -6.491   4.693   0.778  0.00  0.00    -0.533 NA
ATOM     13  C   UNL     1      -6.477   3.428  -0.001  0.00  0.00    +0.167 C 
ATOM     14  C   UNL     1      -5.403   2.711  -0.856  0.00  0.00    -0.064 C 
ATOM     15  H   UNL     1      -7.201   5.324   0.415  0.00  0.00    +0.286 HD
ENDBRANCH   5   9
BRANCH   1  17
ATOM     16  N   UNL     1       3.450   2.928  -1.229  0.00  0.00    -0.501 NA
ATOM     17  C   UNL     1       2.496   2.197  -0.775  0.00  0.00    +0.471 C 
BRANCH  16  19
ATOM     18  O   UNL     1       2.396   4.963  -1.052  0.00  0.00    -0.495 OA
ATOM     19  C   UNL     1       3.202   4.222  -1.600  0.00  0.00    +0.474 C 
BRANCH  19  20
ATOM     20  C   UNL     1       4.044   4.683  -2.708  0.00  0.00    +0.095 A 
ATOM     21  C   UNL     1       4.055   5.992  -3.242  0.00  0.00    +0.226 A 
ATOM     22  N   UNL     1       4.937   6.078  -4.243  0.00  0.00    -0.173 NA
ATOM     23  N   UNL     1       5.425   4.828  -4.271  0.00  0.00    -0.262 N 
ATOM     24  N   UNL     1       4.937   3.937  -3.395  0.00  0.00    -0.156 NA
ATOM     25  H   UNL     1       6.146   4.569  -4.944  0.00  0.00    +0.269 HD
ENDBRANCH  19  20
ENDBRANCH  16  19
BRANCH  17  26
ATOM     26  O   UNL     1       2.844   0.971  -0.336  0.00  0.00    -0.591 OA
ATOM     27  H   UNL     1       3.808   0.879  -0.437  0.00  0.00    +0.338 HD
ENDBRANCH  17  26
ENDBRANCH   1  17
TORSDOF 5
