REMARK  Name = 
REMARK  5 active torsions:
REMARK  status: ('A' for Active; 'I' for Inactive)
REMARK    1  A    between atoms: C_2  and  C_4
REMARK    2  A    between atoms: C_7  and  N_8
REMARK    3  A    between atoms: N_8  and  C_9
REMARK    4  A    between atoms: C_13  and  O_15
REMARK    5  A    between atoms: O_15  and  C_16
REMARK                            x       y       z     vdW  Elec       q    Type
REMARK                         _______ _______ _______ _____ _____    ______ ____
ROOT
ATOM      1  C   UNL     1       2.540  -4.773  -1.582  0.00  0.00    +0.283 C 
ATOM      2  C   UNL     1       2.671  -4.137  -2.881  0.00  0.00    +0.004 C 
ATOM      3  C   UNL     1       1.879  -4.580  -4.153  0.00  0.00    +0.315 C 
ATOM      4  N   UNL     1       0.956  -5.594  -4.295  0.00  0.00    -0.528 N 
ATOM      5  C   UNL     1      -0.114  -5.681  -5.190  0.00  0.00    +0.775 C 
ATOM      6  O   UNL     1      -1.058  -6.449  -5.029  0.00  0.00    -0.477 OA
ATOM      7  C   UNL     1       1.054  -6.289  -3.115  0.00  0.00    +0.322 C 
ATOM      8  C   UNL     1       1.788  -5.992  -1.786  0.00  0.00    +0.017 C 
ENDROOT
BRANCH   1   9
ATOM      9  N   UNL     1       2.092  -3.946  -0.511  0.00  0.00    -0.820 NA
ATOM     10  H   UNL     1       1.501  -4.530   0.112  0.00  0.00    +0.347 HD
ATOM     11  H   UNL     1       1.421  -3.246  -0.869  0.00  0.00    +0.346 HD
BRANCH   9  15
ATOM     12  C   UNL     1       4.615  -1.762   2.079  0.00  0.00    -0.149 C 
ATOM     13  C   UNL     1       3.409  -2.268   2.534  0.00  0.00    +0.177 C 
ATOM     14  C   UNL     1       2.627  -3.017   1.663  0.00  0.00    -0.015 C 
ATOM     15  C   UNL     1       3.055  -3.258   0.349  0.00  0.00    +0.509 C 
ATOM     16  N   UNL     1       4.238  -2.750  -0.047  0.00  0.00    -0.666 N 
ATOM     17  C   UNL     1       5.025  -2.019   0.772  0.00  0.00    +0.412 C 
ATOM     18  H   UNL     1       4.597  -2.875  -0.994  0.00  0.00    +0.361 HD
BRANCH  12  20
ATOM     19  N   UNL     1       5.169  -0.680   4.184  0.00  0.00    -0.767 N 
ATOM     20  C   UNL     1       5.488  -0.906   2.882  0.00  0.00    +0.693 C 
ATOM     21  O   UNL     1       6.469  -0.426   2.335  0.00  0.00    -0.422 OA
ATOM     22  H   UNL     1       5.794  -0.081   4.720  0.00  0.00    +0.420 HD
ATOM     23  H   UNL     1       4.390  -1.068   4.702  0.00  0.00    +0.394 HD
ENDBRANCH  12  20
ENDBRANCH   9  15
ENDBRANCH   1   9
BRANCH   5  24
ATOM     24  O   UNL     1      -0.036  -4.764  -6.189  0.00  0.00    -0.505 OA
BRANCH  24  25
ATOM     25  C   UNL     1      -1.137  -4.600  -7.110  0.00  0.00    +0.405 C 
ATOM     26  C   UNL     1      -1.533  -5.846  -7.913  0.00  0.00    +0.280 C 
ATOM     27  C   UNL     1      -2.795  -5.482  -8.696  0.00  0.00    +0.608 C 
ATOM     28  S   UNL     1      -3.601  -4.177  -7.768  0.00  0.00    -0.673 S 
ATOM     29  O   UNL     1      -3.495  -2.942  -8.517  0.00  0.00    -0.114 OA
ATOM     30  O   UNL     1      -4.851  -4.654  -7.221  0.00  0.00    -0.102 OA
ATOM     31  C   UNL     1      -2.412  -4.091  -6.453  0.00  0.00    +0.570 C 
ENDBRANCH  24  25
ENDBRANCH   5  24
TORSDOF 5
