REMARK  Name = 
REMARK  2 active torsions:
REMARK  status: ('A' for Active; 'I' for Inactive)
REMARK    1  A    between atoms: C_2  and  C_3
REMARK    2  A    between atoms: C_2  and  N_7
REMARK                            x       y       z     vdW  Elec       q    Type
REMARK                         _______ _______ _______ _____ _____    ______ ____
ROOT
ATOM      1  N   UNL     1       3.132   0.920  -0.753  0.00  0.00    -0.523 NA
ATOM      2  C   UNL     1       4.431   0.951  -0.720  0.00  0.00    +0.474 A 
ATOM      3  C   UNL     1       5.060   1.878  -1.706  0.00  0.00    +0.082 A 
ATOM      4  C   UNL     1       6.393   1.857  -1.809  0.00  0.00    +0.098 A 
ATOM      5  C   UNL     1       7.144   0.926  -0.939  0.00  0.00    +0.378 A 
ATOM      6  F   UNL     1       8.468   0.888  -1.130  0.00  0.00    -0.283 F 
ATOM      7  N   UNL     1       6.642   0.157  -0.025  0.00  0.00    -0.152 NA
ATOM      8  N   UNL     1       5.277   0.225   0.099  0.00  0.00    -0.451 N 
ATOM      9  H   UNL     1       4.829  -0.402   0.776  0.00  0.00    +0.349 HD
ENDROOT
BRANCH   1  11
ATOM     10  O   UNL     1       2.945  -0.652   0.937  0.00  0.00    -0.477 OA
ATOM     11  C   UNL     1       2.456   0.066   0.076  0.00  0.00    +0.599 C 
BRANCH  11  12
ATOM     12  C   UNL     1       1.018   0.124  -0.237  0.00  0.00    -0.019 C 
ATOM     13  C   UNL     1       0.112  -0.590   0.428  0.00  0.00    +0.473 C 
ATOM     14  F   UNL     1       0.452  -1.415   1.438  0.00  0.00    -0.267 F 
ATOM     15  F   UNL     1      -1.188  -0.479   0.076  0.00  0.00    -0.282 F 
ENDBRANCH  11  12
ENDBRANCH   1  11
TORSDOF 2
