REMARK  Name = 
REMARK  4 active torsions:
REMARK  status: ('A' for Active; 'I' for Inactive)
REMARK    1  A    between atoms: C_1  and  C_2
REMARK    2  A    between atoms: C_8  and  O_9
REMARK    3  A    between atoms: O_9  and  C_10
REMARK    4  A    between atoms: C_14  and  C_15
REMARK                            x       y       z     vdW  Elec       q    Type
REMARK                         _______ _______ _______ _____ _____    ______ ____
ROOT
ATOM      1  C   UNL     1       4.067  -0.914  -0.299  0.00  0.00    +0.701 C 
ATOM      2  O   UNL     1       3.356  -0.842  -1.307  0.00  0.00    -0.511 OA
ATOM      3  N   UNL     1       5.229  -1.717  -0.205  0.00  0.00    -0.550 N 
ATOM      4  C   UNL     1       5.316  -2.850  -1.024  0.00  0.00    +0.307 A 
ATOM      5  C   UNL     1       6.430  -3.604  -1.106  0.00  0.00    -0.077 A 
ATOM      6  C   UNL     1       7.594  -3.192  -0.349  0.00  0.00    +0.160 A 
ATOM      7  C   UNL     1       7.560  -2.141   0.471  0.00  0.00    -0.025 A 
ATOM      8  C   UNL     1       6.312  -1.347   0.605  0.00  0.00    +0.483 A 
ATOM      9  N   UNL     1       6.284  -0.344   1.411  0.00  0.00    -0.569 NA
ATOM     10  H   UNL     1       7.161  -0.224   1.922  0.00  0.00    +0.283 HD
ENDROOT
BRANCH   5  11
ATOM     11  C   UNL     1       6.494  -4.937  -1.812  0.00  0.00    +0.497 C 
ATOM     12  O   UNL     1       7.283  -5.791  -1.400  0.00  0.00    -0.483 OA
ATOM     13  N   UNL     1       5.666  -5.152  -2.905  0.00  0.00    -0.508 N 
ATOM     14  C   UNL     1       5.505  -6.352  -3.556  0.00  0.00    +0.235 C 
ATOM     15  C   UNL     1       4.972  -6.808  -4.925  0.00  0.00    +0.002 C 
ATOM     16  C   UNL     1       4.559  -5.522  -5.667  0.00  0.00    +0.029 C 
ATOM     17  C   UNL     1       4.641  -4.122  -5.199  0.00  0.00    +0.299 C 
ATOM     18  F   UNL     1       5.517  -3.414  -5.946  0.00  0.00    -0.285 F 
ATOM     19  F   UNL     1       3.440  -3.513  -5.229  0.00  0.00    -0.284 F 
ATOM     20  C   UNL     1       5.151  -4.247  -3.808  0.00  0.00    +0.176 C 
ENDBRANCH   5  11
BRANCH   1  21
ATOM     21  O   UNL     1       3.803  -0.206   0.867  0.00  0.00    -0.510 OA
BRANCH  21  29
ATOM     22  C   UNL     1       4.944   2.027  -0.813  0.00  0.00    +0.240 C 
ATOM     23  C   UNL     1       3.906   2.191   0.255  0.00  0.00    +0.063 A 
ATOM     24  C   UNL     1       3.517   3.492   0.617  0.00  0.00    +0.013 A 
ATOM     25  C   UNL     1       2.599   3.698   1.643  0.00  0.00    +0.235 A 
ATOM     26  F   UNL     1       2.290   4.950   2.006  0.00  0.00    -0.304 F 
ATOM     27  C   UNL     1       2.021   2.630   2.317  0.00  0.00    +0.054 A 
ATOM     28  C   UNL     1       2.378   1.330   1.963  0.00  0.00    +0.083 A 
ATOM     29  C   UNL     1       3.310   1.117   0.939  0.00  0.00    +0.247 A 
ENDBRANCH  21  29
ENDBRANCH   1  21
TORSDOF 3
