REMARK  Name = 
REMARK  5 active torsions:
REMARK  status: ('A' for Active; 'I' for Inactive)
REMARK    1  A    between atoms: N_1  and  C_2
REMARK    2  A    between atoms: C_2  and  C_4
REMARK    3  A    between atoms: N_8  and  C_9
REMARK    4  A    between atoms: N_12  and  C_13
REMARK    5  A    between atoms: N_15  and  C_16
REMARK                            x       y       z     vdW  Elec       q    Type
REMARK                         _______ _______ _______ _____ _____    ______ ____
ROOT
ATOM      1  C   UNL     1       0.401   2.868  -4.255  0.00  0.00    +0.280 C 
ATOM      2  C   UNL     1      -0.801   2.071  -4.109  0.00  0.00    -0.020 C 
ATOM      3  C   UNL     1      -0.837   0.531  -4.156  0.00  0.00    +0.208 C 
ATOM      4  N   UNL     1       0.332  -0.313  -4.391  0.00  0.00    -0.723 NA
ATOM      5  C   UNL     1       1.258   0.569  -5.152  0.00  0.00    +0.239 C 
ATOM      6  C   UNL     1       1.323   2.112  -5.078  0.00  0.00    -0.034 C 
ATOM      7  H   UNL     1       0.856  -0.306  -3.501  0.00  0.00    +0.306 HD
ENDROOT
BRANCH   1  12
ATOM      8  C   UNL     1      -0.814   2.976   0.541  0.00  0.00    +0.037 C 
ATOM      9  C   UNL     1       0.711   3.113   0.401  0.00  0.00    +0.218 C 
ATOM     10  C   UNL     1       1.085   4.036  -0.760  0.00  0.00    +0.069 C 
ATOM     11  C   UNL     1       0.322   3.652  -1.978  0.00  0.00    +0.537 C 
ATOM     12  N   UNL     1       0.975   3.420  -3.112  0.00  0.00    -0.698 N 
ATOM     13  N   UNL     1      -0.989   3.548  -1.843  0.00  0.00    -0.624 N 
ATOM     14  C   UNL     1      -1.479   2.619  -0.776  0.00  0.00    +0.333 C 
ATOM     15  H   UNL     1       1.981   3.579  -3.112  0.00  0.00    +0.312 HD
ATOM     16  H   UNL     1      -1.466   4.426  -1.637  0.00  0.00    +0.301 HD
BRANCH   8  17
ATOM     17  C   UNL     1      -1.212   1.924   1.544  0.00  0.00    +0.539 C 
ATOM     18  O   UNL     1      -1.874   2.197   2.529  0.00  0.00    -0.479 OA
BRANCH  17  19
ATOM     19  N   UNL     1      -0.806   0.709   1.178  0.00  0.00    -0.579 NA
ATOM     20  H   UNL     1      -1.087   0.086   1.944  0.00  0.00    +0.330 HD
ENDBRANCH  17  19
ENDBRANCH   8  17
ENDBRANCH   1  12
BRANCH   4  21
ATOM     21  C   UNL     1       0.383  -1.700  -4.499  0.00  0.00    +0.773 C 
ATOM     22  O   UNL     1       1.534  -2.092  -4.456  0.00  0.00    -0.521 OA
ATOM     23  N   UNL     1      -0.763  -2.441  -4.465  0.00  0.00    -0.739 N 
ATOM     24  H   UNL     1      -1.622  -2.043  -4.828  0.00  0.00    +0.331 HD
BRANCH  23  25
ATOM     25  C   UNL     1      -0.786  -3.811  -4.141  0.00  0.00    +0.338 A 
ATOM     26  C   UNL     1       0.238  -4.430  -3.408  0.00  0.00    +0.074 A 
ATOM     27  C   UNL     1       0.224  -5.810  -3.202  0.00  0.00    +0.151 A 
ATOM     28  C   UNL     1      -0.815  -6.577  -3.720  0.00  0.00    +0.100 A 
ATOM     29  C   UNL     1      -1.863  -5.951  -4.391  0.00  0.00    +0.225 A 
ATOM     30 BR   UNL     1      -3.262  -6.992  -5.120  0.00  0.00    -0.316 Br
ATOM     31  C   UNL     1      -1.873  -4.568  -4.575  0.00  0.00    +0.031 A 
ENDBRANCH  23  25
ENDBRANCH   4  21
TORSDOF 5
