REMARK  Name = 
REMARK  3 active torsions:
REMARK  status: ('A' for Active; 'I' for Inactive)
REMARK    1  A    between atoms: C_1  and  C_2
REMARK    2  A    between atoms: C_2  and  C_3
REMARK    3  A    between atoms: C_2  and  N_9
REMARK                            x       y       z     vdW  Elec       q    Type
REMARK                         _______ _______ _______ _____ _____    ______ ____
ROOT
ATOM      1  N   UNL     1       3.024  -0.730   1.288  0.00  0.00    -0.395 N 
ATOM      2  C   UNL     1       3.224  -0.087   2.592  0.00  0.00    +0.254 C 
ATOM      3  C   UNL     1       4.650  -0.303   3.107  0.00  0.00    +0.169 C 
ATOM      4  C   UNL     1       5.041  -1.784   3.104  0.00  0.00    +0.179 C 
ATOM      5  C   UNL     1       4.915  -2.345   1.700  0.00  0.00    +0.295 C 
ATOM      6  F   UNL     1       5.882  -1.788   0.921  0.00  0.00    -0.286 F 
ATOM      7  F   UNL     1       5.162  -3.684   1.710  0.00  0.00    -0.287 F 
ATOM      8  C   UNL     1       3.514  -2.027   1.124  0.00  0.00    +0.352 C 
ATOM      9  N   UNL     1       2.786  -2.898   0.470  0.00  0.00    -0.527 NA
ATOM     10  H   UNL     1       3.332  -3.781   0.463  0.00  0.00    +0.317 HD
ENDROOT
BRANCH   1  12
ATOM     11  C   UNL     1       3.208   1.401  -0.006  0.00  0.00    +0.194 C 
ATOM     12  C   UNL     1       2.545   0.024   0.117  0.00  0.00    +0.219 C 
BRANCH  12  13
ATOM     13  C   UNL     1       1.031   0.096   0.108  0.00  0.00    +0.253 A 
ATOM     14  C   UNL     1       0.316   1.308   0.098  0.00  0.00    +0.008 A 
ATOM     15  C   UNL     1      -1.068   1.312   0.082  0.00  0.00    +0.140 A 
ATOM     16  C   UNL     1      -1.739   0.097   0.060  0.00  0.00    +0.061 A 
ATOM     17  C   UNL     1      -1.010  -1.092   0.056  0.00  0.00    +0.315 A 
ATOM     18  N   UNL     1       0.341  -1.064   0.090  0.00  0.00    -0.586 N 
ATOM     19  H   UNL     1       0.886  -1.944   0.106  0.00  0.00    +0.323 HD
ENDBRANCH  12  13
ENDBRANCH   1  12
TORSDOF 2
