REMARK  Name = 
REMARK  4 active torsions:
REMARK  status: ('A' for Active; 'I' for Inactive)
REMARK    1  A    between atoms: C_2  and  O_3
REMARK    2  A    between atoms: C_2  and  C_10
REMARK    3  A    between atoms: O_3  and  C_4
REMARK    4  A    between atoms: C_4  and  C_6
REMARK                            x       y       z     vdW  Elec       q    Type
REMARK                         _______ _______ _______ _____ _____    ______ ____
ROOT
ATOM      1  C   UNL     1       3.729  -1.484  -6.182  0.00  0.00    -0.141 C 
ATOM      2  C   UNL     1       4.247  -2.612  -5.793  0.00  0.00    +0.111 C 
ATOM      3  C   UNL     1       4.894  -2.920  -4.562  0.00  0.00    -0.067 C 
ATOM      4  C   UNL     1       5.760  -3.872  -4.369  0.00  0.00    +0.075 C 
ATOM      5  C   UNL     1       6.880  -4.031  -3.343  0.00  0.00    -0.033 C 
ATOM      6  C   UNL     1       6.816  -3.023  -2.695  0.00  0.00    +0.229 C 
ATOM      7  N   UNL     1       6.036  -1.785  -2.582  0.00  0.00    -0.576 N 
ATOM      8  C   UNL     1       5.112  -1.661  -3.648  0.00  0.00    +0.383 C 
ATOM      9  N   UNL     1       4.516  -0.449  -4.053  0.00  0.00    -0.454 NA
ATOM     10  C   UNL     1       4.004  -0.586  -5.106  0.00  0.00    +0.343 C 
ATOM     11  H   UNL     1       6.508  -0.898  -2.421  0.00  0.00    +0.321 HD
ENDROOT
BRANCH   1  13
ATOM     12  N   UNL     1       2.680   0.080  -7.680  0.00  0.00    -0.533 NA
ATOM     13  C   UNL     1       3.173  -1.095  -7.475  0.00  0.00    +0.528 C 
ATOM     14  H   UNL     1       2.342   0.168  -8.653  0.00  0.00    +0.360 HD
BRANCH  13  15
ATOM     15  O   UNL     1       3.253  -2.103  -8.386  0.00  0.00    -0.557 OA
BRANCH  15  16
ATOM     16  C   UNL     1       2.808  -1.856  -9.644  0.00  0.00    +0.616 C 
ATOM     17  O   UNL     1       2.320  -0.815 -10.052  0.00  0.00    -0.492 OA
BRANCH  16  18
ATOM     18  C   UNL     1       3.012  -3.058 -10.462  0.00  0.00    -0.023 C 
ATOM     19  C   UNL     1       2.654  -3.071 -11.747  0.00  0.00    +0.466 C 
ATOM     20  F   UNL     1       2.097  -2.001 -12.346  0.00  0.00    -0.269 F 
ATOM     21  F   UNL     1       2.858  -4.195 -12.468  0.00  0.00    -0.286 F 
ENDBRANCH  16  18
ENDBRANCH  15  16
ENDBRANCH  13  15
ENDBRANCH   1  13
TORSDOF 4
