REMARK  Name = 
REMARK  3 active torsions:
REMARK  status: ('A' for Active; 'I' for Inactive)
REMARK    1  A    between atoms: C_2  and  C_4
REMARK    2  A    between atoms: N_8  and  C_9
REMARK    3  A    between atoms: C_9  and  C_10
REMARK                            x       y       z     vdW  Elec       q    Type
REMARK                         _______ _______ _______ _____ _____    ______ ____
ROOT
ATOM      1  C   UNL     1       3.059   0.751   0.945  0.00  0.00    -0.087 A 
ATOM      2  C   UNL     1       2.690   0.843   2.280  0.00  0.00    +0.170 A 
ATOM      3  C   UNL     1       3.546   1.500   3.175  0.00  0.00    +0.041 A 
ATOM      4  C   UNL     1       4.749   2.039   2.716  0.00  0.00    +0.428 A 
ATOM      5  N   UNL     1       5.605   2.682   3.652  0.00  0.00    -0.578 N 
ATOM      6  N   UNL     1       5.094   1.990   1.400  0.00  0.00    -0.393 NA
ATOM      7  C   UNL     1       4.254   1.341   0.559  0.00  0.00    +0.321 A 
ATOM      8  H   UNL     1       5.693   2.094   4.479  0.00  0.00    +0.312 HD
ENDROOT
BRANCH   1  10
ATOM      9  N   UNL     1       0.960  -0.140   0.093  0.00  0.00    -0.815 N 
ATOM     10  C   UNL     1       2.303   0.012  -0.084  0.00  0.00    +0.615 C 
ATOM     11  O   UNL     1       2.875  -0.424  -1.076  0.00  0.00    -0.469 OA
ATOM     12  H   UNL     1       0.453  -0.601  -0.656  0.00  0.00    +0.386 HD
ATOM     13  H   UNL     1       0.418   0.378   0.768  0.00  0.00    +0.356 HD
ENDBRANCH   1  10
BRANCH   5  14
ATOM     14  C   UNL     1       6.869   3.137   3.084  0.00  0.00    +0.258 C 
BRANCH  14  15
ATOM     15  C   UNL     1       7.952   3.450   2.212  0.00  0.00    -0.007 C 
ATOM     16  C   UNL     1       7.724   4.465   1.201  0.00  0.00    +0.043 C 
ATOM     17  C   UNL     1       7.793   4.234  -0.325  0.00  0.00    +0.239 C 
ATOM     18  N   UNL     1       8.183   3.037  -1.106  0.00  0.00    -0.777 N 
ATOM     19  C   UNL     1       8.631   2.158  -0.004  0.00  0.00    +0.239 C 
ATOM     20  C   UNL     1       8.590   2.340   1.528  0.00  0.00    +0.036 C 
ATOM     21  H   UNL     1       8.937   3.236  -1.769  0.00  0.00    +0.346 HD
ATOM     22  H   UNL     1       7.362   2.634  -1.571  0.00  0.00    +0.337 HD
ENDBRANCH  14  15
ENDBRANCH   5  14
TORSDOF 3
