REMARK  Name = 
REMARK  4 active torsions:
REMARK  status: ('A' for Active; 'I' for Inactive)
REMARK    1  A    between atoms: C_7  and  C_8
REMARK    2  A    between atoms: C_8  and  O_9
REMARK    3  A    between atoms: N_10  and  C_11
REMARK    4  A    between atoms: C_11  and  C_12
REMARK                            x       y       z     vdW  Elec       q    Type
REMARK                         _______ _______ _______ _____ _____    ______ ____
ROOT
ATOM      1  C   UNL     1       2.245  -2.352   0.168  0.00  0.00    +0.445 C 
ATOM      2  N   UNL     1       0.980  -2.586   0.137  0.00  0.00    -0.400 NA
ENDROOT
BRANCH   1   9
ATOM      3  N   UNL     1       5.283  -2.023   0.269  0.00  0.00    -0.639 NA
ATOM      4  C   UNL     1       4.567  -0.938   0.196  0.00  0.00    +0.466 C 
ATOM      5  N   UNL     1       5.167   0.337   0.129  0.00  0.00    -0.662 N 
ATOM      6  C   UNL     1       4.190   1.423   0.233  0.00  0.00    +0.208 C 
ATOM      7  C   UNL     1       3.002   1.528   0.284  0.00  0.00    -0.101 C 
ATOM      8  C   UNL     1       2.474   0.106   0.247  0.00  0.00    +0.021 C 
ATOM      9  C   UNL     1       3.019  -1.081   0.197  0.00  0.00    -0.155 C 
ATOM     10  H   UNL     1       6.279  -1.767   0.254  0.00  0.00    +0.293 HD
ATOM     11  H   UNL     1       6.132   0.461   0.404  0.00  0.00    +0.293 HD
ENDBRANCH   1   9
BRANCH   1  12
ATOM     12  O   UNL     1       3.050  -3.440   0.176  0.00  0.00    -0.579 OA
ATOM     13  H   UNL     1       4.006  -3.216   0.213  0.00  0.00    +0.353 HD
ENDBRANCH   1  12
BRANCH   2  14
ATOM     14  C   UNL     1       0.091  -1.425   0.126  0.00  0.00    +0.198 C 
BRANCH  14  15
ATOM     15  C   UNL     1      -1.394  -1.675   0.156  0.00  0.00    +0.058 A 
ATOM     16  C   UNL     1      -1.975  -2.943   0.111  0.00  0.00    +0.065 A 
ATOM     17  C   UNL     1      -3.366  -3.075   0.167  0.00  0.00    +0.049 A 
ATOM     18  C   UNL     1      -4.182  -1.946   0.267  0.00  0.00    +0.037 A 
ATOM     19  C   UNL     1      -3.613  -0.677   0.299  0.00  0.00    +0.048 A 
ATOM     20  C   UNL     1      -2.229  -0.545   0.239  0.00  0.00    +0.002 A 
ENDBRANCH  14  15
ENDBRANCH   2  14
TORSDOF 4
