REMARK  Name = 
REMARK  5 active torsions:
REMARK  status: ('A' for Active; 'I' for Inactive)
REMARK    1  A    between atoms: C_2  and  C_4
REMARK    2  A    between atoms: N_8  and  C_9
REMARK    3  A    between atoms: N_17  and  C_18
REMARK    4  A    between atoms: C_18  and  C_19
REMARK    5  A    between atoms: C_19  and  C_20
REMARK                            x       y       z     vdW  Elec       q    Type
REMARK                         _______ _______ _______ _____ _____    ______ ____
ROOT
ATOM      1  C   UNL     1       3.541   1.064   0.047  0.00  0.00    -0.063 C 
ATOM      2  C   UNL     1       2.862   2.113   0.903  0.00  0.00    +0.258 C 
ATOM      3  C   UNL     1       3.153   3.521   0.445  0.00  0.00    +0.142 C 
ATOM      4  C   UNL     1       3.302   3.697  -1.068  0.00  0.00    +0.505 C 
ATOM      5  N   UNL     1       3.320   5.022  -1.460  0.00  0.00    -0.641 N 
ATOM      6  N   UNL     1       3.418   2.693  -1.889  0.00  0.00    -0.464 NA
ATOM      7  C   UNL     1       3.406   1.401  -1.423  0.00  0.00    +0.545 C 
ATOM      8  N   UNL     1       3.357   0.366  -2.185  0.00  0.00    -0.671 N 
ATOM      9  H   UNL     1       2.979   5.687  -0.768  0.00  0.00    +0.319 HD
ATOM     10  H   UNL     1       3.363  -0.584  -1.816  0.00  0.00    +0.334 HD
ENDROOT
BRANCH   5  11
ATOM     11  C   UNL     1       3.781   5.626  -2.602  0.00  0.00    +0.294 C 
ATOM     12  C   UNL     1       5.050   5.179  -3.122  0.00  0.00    +0.009 C 
ATOM     13  C   UNL     1       6.271   6.112  -3.356  0.00  0.00    +0.265 C 
ATOM     14  N   UNL     1       6.448   7.570  -3.137  0.00  0.00    -0.771 N 
ATOM     15  C   UNL     1       5.062   7.939  -2.778  0.00  0.00    +0.276 C 
ATOM     16  C   UNL     1       3.805   7.069  -2.541  0.00  0.00    -0.006 C 
ATOM     17  H   UNL     1       6.772   8.060  -3.978  0.00  0.00    +0.361 HD
ATOM     18  H   UNL     1       7.086   7.741  -2.349  0.00  0.00    +0.356 HD
ENDBRANCH   5  11
BRANCH   1  20
ATOM     19  N   UNL     1       5.271   0.011   1.408  0.00  0.00    -0.813 N 
ATOM     20  C   UNL     1       5.007   0.886   0.403  0.00  0.00    +0.638 C 
ATOM     21  O   UNL     1       5.902   1.434  -0.231  0.00  0.00    -0.463 OA
ATOM     22  H   UNL     1       6.244  -0.132   1.671  0.00  0.00    +0.396 HD
ATOM     23  H   UNL     1       4.582  -0.346   2.061  0.00  0.00    +0.363 HD
ENDBRANCH   1  20
BRANCH   8  24
ATOM     24  C   UNL     1       3.480   0.451  -3.595  0.00  0.00    +0.311 C 
BRANCH  24  25
ATOM     25  C   UNL     1       3.752   0.301  -5.092  0.00  0.00    +0.035 C 
BRANCH  25  26
ATOM     26  C   UNL     1       4.124   0.027  -6.438  0.00  0.00    +0.027 C 
ATOM     27  C   UNL     1       4.256  -1.297  -6.855  0.00  0.00    +0.085 C 
ATOM     28  C   UNL     1       4.708  -1.579  -8.142  0.00  0.00    +0.100 C 
ATOM     29  C   UNL     1       5.038  -0.536  -9.003  0.00  0.00    +0.103 C 
ATOM     30  C   UNL     1       4.902   0.786  -8.585  0.00  0.00    +0.093 C 
ATOM     31  C   UNL     1       4.447   1.069  -7.300  0.00  0.00    +0.077 C 
ENDBRANCH  25  26
ENDBRANCH  24  25
ENDBRANCH   8  24
TORSDOF 5
