REMARK  Name = 
REMARK  3 active torsions:
REMARK  status: ('A' for Active; 'I' for Inactive)
REMARK    1  A    between atoms: N_1  and  C_2
REMARK    2  A    between atoms: C_2  and  C_4
REMARK    3  A    between atoms: N_8  and  C_9
REMARK                            x       y       z     vdW  Elec       q    Type
REMARK                         _______ _______ _______ _____ _____    ______ ____
ROOT
ATOM      1  C   UNL     1       2.960   1.113   0.634  0.00  0.00    -0.067 A 
ATOM      2  C   UNL     1       2.430   1.982   1.662  0.00  0.00    +0.216 A 
ATOM      3  C   UNL     1       3.062   3.132   1.938  0.00  0.00    +0.028 A 
ATOM      4  C   UNL     1       4.299   3.496   1.177  0.00  0.00    +0.574 A 
ATOM      5  N   UNL     1       4.798   4.695   1.441  0.00  0.00    -0.703 N 
ATOM      6  N   UNL     1       4.776   2.622   0.295  0.00  0.00    -0.668 N 
ATOM      7  C   UNL     1       4.110   1.432   0.022  0.00  0.00    +0.376 A 
ATOM      8  H   UNL     1       4.421   5.172   2.253  0.00  0.00    +0.328 HD
ATOM      9  H   UNL     1       5.664   2.753  -0.164  0.00  0.00    +0.337 HD
ENDROOT
BRANCH   5  10
ATOM     10  C   UNL     1       5.691   5.367   0.638  0.00  0.00    +0.289 C 
ATOM     11  C   UNL     1       6.047   6.718   1.004  0.00  0.00    -0.020 C 
ATOM     12  C   UNL     1       5.995   7.943   0.054  0.00  0.00    +0.250 C 
ATOM     13  N   UNL     1       5.606   8.052  -1.373  0.00  0.00    -0.775 N 
ATOM     14  C   UNL     1       5.430   6.615  -1.692  0.00  0.00    +0.248 C 
ATOM     15  C   UNL     1       5.498   5.350  -0.798  0.00  0.00    -0.029 C 
ATOM     16  H   UNL     1       6.337   8.488  -1.949  0.00  0.00    +0.345 HD
ATOM     17  H   UNL     1       4.722   8.566  -1.473  0.00  0.00    +0.342 HD
ENDBRANCH   5  10
BRANCH   1  18
ATOM     18  C   UNL     1       2.305  -0.130   0.141  0.00  0.00    +0.563 C 
ATOM     19  O   UNL     1       2.850  -0.840  -0.691  0.00  0.00    -0.463 OA
BRANCH  18  20
ATOM     20  N   UNL     1       1.107  -0.318   0.661  0.00  0.00    -0.517 NA
ATOM     21  H   UNL     1       0.738  -1.179   0.238  0.00  0.00    +0.347 HD
ENDBRANCH  18  20
ENDBRANCH   1  18
TORSDOF 3
