REMARK  Name = 
REMARK  5 active torsions:
REMARK  status: ('A' for Active; 'I' for Inactive)
REMARK    1  A    between atoms: N_3  and  C_4
REMARK    2  A    between atoms: C_9  and  C_10
REMARK    3  A    between atoms: C_10  and  O_11
REMARK    4  A    between atoms: N_12  and  C_13
REMARK    5  A    between atoms: C_13  and  C_14
REMARK                            x       y       z     vdW  Elec       q    Type
REMARK                         _______ _______ _______ _____ _____    ______ ____
ROOT
ATOM      1  C   UNL     1       2.559   0.864   2.442  0.00  0.00    +0.495 C 
ATOM      2  N   UNL     1       2.063  -0.222   1.982  0.00  0.00    -0.349 NA
ENDROOT
BRANCH   1   8
ATOM      3  C   UNL     1       3.970   1.300   0.409  0.00  0.00    +0.462 C 
ATOM      4  N   UNL     1       5.110   1.795  -0.102  0.00  0.00    -0.641 N 
ATOM      5  C   UNL     1       6.009   2.495   0.601  0.00  0.00    +0.334 C 
ATOM      6  C   UNL     1       5.771   2.737   1.950  0.00  0.00    +0.024 C 
ATOM      7  C   UNL     1       4.622   2.223   2.540  0.00  0.00    +0.120 C 
ATOM      8  C   UNL     1       3.711   1.493   1.779  0.00  0.00    -0.139 C 
ATOM      9  H   UNL     1       5.289   1.598  -1.086  0.00  0.00    +0.360 HD
BRANCH   3  12
ATOM     10  N   UNL     1       0.931   1.223  -0.641  0.00  0.00    -0.067 NA
ATOM     11  N   UNL     1       2.024   0.904  -0.595  0.00  0.00    +0.021 NA
ATOM     12  N   UNL     1       3.239   0.611  -0.563  0.00  0.00    -0.220 NA
ENDBRANCH   3  12
ENDBRANCH   1   8
BRANCH   1  13
ATOM     13  O   UNL     1       2.044   1.505   3.501  0.00  0.00    -0.573 OA
ATOM     14  H   UNL     1       2.478   2.327   3.778  0.00  0.00    +0.354 HD
ENDBRANCH   1  13
BRANCH   2  15
ATOM     15  C   UNL     1       0.843  -0.725   2.620  0.00  0.00    +0.385 C 
BRANCH  15  16
ATOM     16  C   UNL     1       0.346  -1.942   1.889  0.00  0.00    +0.035 C 
ATOM     17  C   UNL     1       0.305  -3.186   2.521  0.00  0.00    +0.060 C 
ATOM     18  C   UNL     1      -0.140  -4.313   1.833  0.00  0.00    +0.085 C 
ATOM     19  C   UNL     1      -0.544  -4.206   0.504  0.00  0.00    +0.085 C 
ATOM     20  C   UNL     1      -0.508  -2.971  -0.136  0.00  0.00    +0.083 C 
ATOM     21  C   UNL     1      -0.068  -1.846   0.556  0.00  0.00    +0.085 C 
ENDBRANCH  15  16
ENDBRANCH   2  15
TORSDOF 5
