REMARK  Name = 
REMARK  4 active torsions:
REMARK  status: ('A' for Active; 'I' for Inactive)
REMARK    1  A    between atoms: C_1  and  C_2
REMARK    2  A    between atoms: C_8  and  O_9
REMARK    3  A    between atoms: O_9  and  C_10
REMARK    4  A    between atoms: C_14  and  C_15
REMARK                            x       y       z     vdW  Elec       q    Type
REMARK                         _______ _______ _______ _____ _____    ______ ____
ROOT
ATOM      1  C   UNL     1       3.916  -0.935  -0.193  0.00  0.00    +0.733 C 
ATOM      2  O   UNL     1       3.914   0.274   0.030  0.00  0.00    -0.516 OA
ATOM      3  N   UNL     1       5.085  -1.694  -0.252  0.00  0.00    -0.581 N 
ATOM      4  C   UNL     1       6.297  -1.316   0.326  0.00  0.00    +0.302 C 
ATOM      5  C   UNL     1       7.548  -1.715   0.265  0.00  0.00    -0.148 C 
ATOM      6  C   UNL     1       7.534  -2.847  -0.631  0.00  0.00    +0.112 C 
ATOM      7  C   UNL     1       6.577  -3.309  -1.205  0.00  0.00    -0.087 C 
ATOM      8  C   UNL     1       5.211  -2.790  -1.150  0.00  0.00    +0.477 C 
ATOM      9  N   UNL     1       4.355  -3.321  -1.945  0.00  0.00    -0.534 NA
ATOM     10  H   UNL     1       4.779  -4.079  -2.493  0.00  0.00    +0.297 HD
ENDROOT
BRANCH   5  11
ATOM     11  C   UNL     1       8.551  -1.481   1.334  0.00  0.00    +0.537 C 
ATOM     12  O   UNL     1       8.209  -1.159   2.469  0.00  0.00    -0.474 OA
ATOM     13  N   UNL     1       9.879  -1.635   0.933  0.00  0.00    -0.501 N 
ATOM     14  C   UNL     1      10.986  -1.540   1.742  0.00  0.00    +0.239 C 
ATOM     15  C   UNL     1      12.488  -1.273   1.523  0.00  0.00    +0.010 C 
ATOM     16  C   UNL     1      12.681  -1.071   0.007  0.00  0.00    +0.035 C 
ATOM     17  C   UNL     1      11.658  -1.115  -1.059  0.00  0.00    +0.301 C 
ATOM     18  F   UNL     1      11.510   0.098  -1.636  0.00  0.00    -0.279 F 
ATOM     19  F   UNL     1      11.962  -2.020  -2.012  0.00  0.00    -0.281 F 
ATOM     20  C   UNL     1      10.414  -1.485  -0.333  0.00  0.00    +0.194 C 
ENDBRANCH   5  11
BRANCH   1  21
ATOM     21  O   UNL     1       2.766  -1.693  -0.410  0.00  0.00    -0.515 OA
BRANCH  21  29
ATOM     22  C   UNL     1       1.746  -0.251   2.040  0.00  0.00    +0.260 C 
ATOM     23  C   UNL     1       0.937  -0.537   0.812  0.00  0.00    +0.063 A 
ATOM     24  C   UNL     1      -0.422  -0.186   0.802  0.00  0.00    +0.020 A 
ATOM     25  C   UNL     1      -1.222  -0.466  -0.304  0.00  0.00    +0.239 A 
ATOM     26  F   UNL     1      -2.526  -0.166  -0.264  0.00  0.00    -0.300 F 
ATOM     27  C   UNL     1      -0.693  -1.073  -1.434  0.00  0.00    +0.061 A 
ATOM     28  C   UNL     1       0.657  -1.415  -1.456  0.00  0.00    +0.094 A 
ATOM     29  C   UNL     1       1.464  -1.145  -0.341  0.00  0.00    +0.243 A 
ENDBRANCH  21  29
ENDBRANCH   1  21
TORSDOF 3
