REMARK  Name = 
REMARK  2 active torsions:
REMARK  status: ('A' for Active; 'I' for Inactive)
REMARK    1  A    between atoms: N_3  and  C_4
REMARK    2  A    between atoms: C_10  and  C_11
REMARK                            x       y       z     vdW  Elec       q    Type
REMARK                         _______ _______ _______ _____ _____    ______ ____
ROOT
ATOM      1  C   UNL     1       4.346  -0.917  -0.980  0.00  0.00    +0.422 C 
ATOM      2  N   UNL     1       3.328  -1.814  -1.503  0.00  0.00    -0.670 N 
ATOM      3  C   UNL     1       2.874  -2.908  -0.830  0.00  0.00    +0.502 C 
ATOM      4  N   UNL     1       1.697  -3.386  -1.061  0.00  0.00    -0.602 NA
ATOM      5  C   UNL     1       3.775  -3.602   0.150  0.00  0.00    +0.065 C 
ATOM      6  C   UNL     1       4.539  -2.568   0.956  0.00  0.00    +0.162 C 
ATOM      7  C   UNL     1       5.295  -1.605   0.027  0.00  0.00    -0.028 C 
ATOM      8  H   UNL     1       3.481  -1.992  -2.493  0.00  0.00    +0.315 HD
ATOM      9  H   UNL     1       1.232  -2.760  -1.728  0.00  0.00    +0.306 HD
ENDROOT
BRANCH   7  10
ATOM     10  C   UNL     1       6.002  -0.542   0.855  0.00  0.00    +0.592 C 
ATOM     11  N   UNL     1       6.959  -0.995   1.717  0.00  0.00    -0.866 N 
ATOM     12  O   UNL     1       5.767   0.659   0.783  0.00  0.00    -0.495 OA
ATOM     13  H   UNL     1       7.242  -1.960   1.791  0.00  0.00    +0.324 HD
ATOM     14  H   UNL     1       7.451  -0.303   2.272  0.00  0.00    +0.355 HD
ENDBRANCH   7  10
BRANCH   1  17
ATOM     15  N   UNL     1       5.174   1.972  -2.347  0.00  0.00    -0.133 NA
ATOM     16  N   UNL     1       5.163   0.842  -2.209  0.00  0.00    +0.006 NA
ATOM     17  N   UNL     1       5.150  -0.398  -2.093  0.00  0.00    -0.255 NA
ENDBRANCH   1  17
TORSDOF 2
