REMARK  Name = 
REMARK  5 active torsions:
REMARK  status: ('A' for Active; 'I' for Inactive)
REMARK    1  A    between atoms: C_2  and  C_4
REMARK    2  A    between atoms: N_8  and  C_9
REMARK    3  A    between atoms: C_13  and  C_15
REMARK    4  A    between atoms: C_15  and  S_16
REMARK    5  A    between atoms: S_16  and  C_17
REMARK                            x       y       z     vdW  Elec       q    Type
REMARK                         _______ _______ _______ _____ _____    ______ ____
ROOT
ATOM      1  C   UNL     1       0.000   0.000   0.000  0.00  0.00     -nan C 
ATOM      2  C   UNL     1       0.000   0.000   0.000  0.00  0.00     -nan C 
ATOM      3  C   UNL     1       0.000   0.000   0.000  0.00  0.00     -nan C 
ATOM      4  N   UNL     1       0.000   0.000   0.000  0.00  0.00     -nan N 
ATOM      5  C   UNL     1       0.000   0.000   0.000  0.00  0.00     -nan C 
ATOM      6  O   UNL     1       0.000   0.000   0.000  0.00  0.00     -nan OA
ATOM      7  C   UNL     1       0.000   0.000   0.000  0.00  0.00     -nan C 
ATOM      8  C   UNL     1       0.000   0.000   0.000  0.00  0.00     -nan C 
ENDROOT
BRANCH   1  13
ATOM      9  C   UNL     1       0.000   0.000   0.000  0.00  0.00     -nan C 
ATOM     10  C   UNL     1       0.000   0.000   0.000  0.00  0.00     -nan C 
ATOM     11  C   UNL     1       0.000   0.000   0.000  0.00  0.00     -nan C 
ATOM     12  C   UNL     1       0.000   0.000   0.000  0.00  0.00     -nan C 
ATOM     13  N   UNL     1       0.000   0.000   0.000  0.00  0.00     -nan NA
ATOM     14  N   UNL     1       0.000   0.000   0.000  0.00  0.00     -nan NA
ATOM     15  C   UNL     1       0.000   0.000   0.000  0.00  0.00     -nan C 
BRANCH   9  17
ATOM     16  N   UNL     1       0.000   0.000   0.000  0.00  0.00     -nan NA
ATOM     17  C   UNL     1       0.000   0.000   0.000  0.00  0.00     -nan C 
ATOM     18  O   UNL     1       0.000   0.000   0.000  0.00  0.00     -nan OA
ENDBRANCH   9  17
ENDBRANCH   1  13
BRANCH   5  19
ATOM     19  C   UNL     1       0.000   0.000   0.000  0.00  0.00     -nan C 
BRANCH  19  20
ATOM     20  S   UNL     1       0.000   0.000   0.000  0.00  0.00     -nan S 
BRANCH  20  21
ATOM     21  C   UNL     1       0.000   0.000   0.000  0.00  0.00     -nan C 
ATOM     22  C   UNL     1       0.000   0.000   0.000  0.00  0.00     -nan C 
ATOM     23  C   UNL     1       0.000   0.000   0.000  0.00  0.00     -nan C 
ATOM     24  C   UNL     1       0.000   0.000   0.000  0.00  0.00     -nan C 
ENDBRANCH  20  21
ENDBRANCH  19  20
ENDBRANCH   5  19
TORSDOF 5
