REMARK  Name = 
REMARK  5 active torsions:
REMARK  status: ('A' for Active; 'I' for Inactive)
REMARK    1  A    between atoms: C_2  and  C_4
REMARK    2  A    between atoms: N_8  and  C_9
REMARK    3  A    between atoms: N_12  and  C_13
REMARK    4  A    between atoms: C_13  and  N_15
REMARK    5  A    between atoms: N_15  and  C_16
REMARK                            x       y       z     vdW  Elec       q    Type
REMARK                         _______ _______ _______ _____ _____    ______ ____
ROOT
ATOM      1  C   UNL     1       5.172   3.693  -4.131  0.00  0.00    +0.203 C 
ATOM      2  C   UNL     1       5.139   4.723  -3.103  0.00  0.00    -0.073 C 
ATOM      3  C   UNL     1       3.818   5.144  -2.437  0.00  0.00    +0.190 C 
ATOM      4  N   UNL     1       2.467   4.658  -2.795  0.00  0.00    -0.694 NA
ATOM      5  C   UNL     1       2.613   4.266  -4.206  0.00  0.00    +0.192 C 
ATOM      6  C   UNL     1       3.922   3.771  -4.875  0.00  0.00    -0.074 C 
ATOM      7  H   UNL     1       2.478   3.740  -2.309  0.00  0.00    +0.314 HD
ENDROOT
BRANCH   1  12
ATOM      8  C   UNL     1       3.874   0.520  -0.433  0.00  0.00    -0.165 C 
ATOM      9  C   UNL     1       5.128   0.221  -1.088  0.00  0.00    +0.060 C 
ATOM     10  C   UNL     1       5.518   0.731  -2.110  0.00  0.00    -0.091 C 
ATOM     11  C   UNL     1       4.862   1.804  -2.864  0.00  0.00    +0.404 C 
ATOM     12  N   UNL     1       5.633   2.462  -3.683  0.00  0.00    -0.466 NA
ATOM     13  N   UNL     1       3.578   2.086  -2.494  0.00  0.00    -0.457 NA
ATOM     14  C   UNL     1       3.293   1.384  -1.232  0.00  0.00    +0.164 C 
BRANCH   8  16
ATOM     15  N   UNL     1       2.299   0.817   1.354  0.00  0.00    -0.883 N 
ATOM     16  C   UNL     1       3.451   0.203   0.946  0.00  0.00    +0.586 C 
ATOM     17  O   UNL     1       4.061  -0.556   1.690  0.00  0.00    -0.531 OA
ATOM     18  H   UNL     1       1.959   0.660   2.289  0.00  0.00    +0.333 HD
ATOM     19  H   UNL     1       1.830   1.491   0.756  0.00  0.00    +0.321 HD
ENDBRANCH   8  16
ENDBRANCH   1  12
BRANCH   4  20
ATOM     20  C   UNL     1       1.341   5.227  -2.188  0.00  0.00    +0.701 C 
ATOM     21  O   UNL     1       1.528   5.533  -1.017  0.00  0.00    -0.548 OA
BRANCH  20  22
ATOM     22  N   UNL     1       0.237   5.276  -2.932  0.00  0.00    -0.553 NA
BRANCH  22  23
ATOM     23  C   UNL     1      -0.827   5.906  -2.385  0.00  0.00    +0.289 A 
ATOM     24  C   UNL     1      -1.430   5.517  -1.173  0.00  0.00    +0.001 A 
ATOM     25  C   UNL     1      -2.509   6.226  -0.636  0.00  0.00    +0.048 A 
ATOM     26  C   UNL     1      -3.019   7.334  -1.308  0.00  0.00    -0.002 A 
ATOM     27  C   UNL     1      -2.457   7.710  -2.522  0.00  0.00    +0.157 A 
ATOM     28 BR   UNL     1      -3.135   9.216  -3.447  0.00  0.00    -0.408 Br
ATOM     29  C   UNL     1      -1.384   7.000  -3.062  0.00  0.00    -0.015 A 
ENDBRANCH  22  23
ENDBRANCH  20  22
ENDBRANCH   4  20
TORSDOF 5
