REMARK  Name = 
REMARK  3 active torsions:
REMARK  status: ('A' for Active; 'I' for Inactive)
REMARK    1  A    between atoms: N_1  and  C_2
REMARK    2  A    between atoms: C_5  and  C_6
REMARK    3  A    between atoms: C_9  and  C_11
REMARK                            x       y       z     vdW  Elec       q    Type
REMARK                         _______ _______ _______ _____ _____    ______ ____
ROOT
ATOM      1  C   UNL     1       2.388  -0.123   0.026  0.00  0.00    +0.590 C 
ATOM      2  C   UNL     1       2.980   1.068   0.049  0.00  0.00    -0.085 C 
ATOM      3  C   UNL     1       4.473   1.194   0.057  0.00  0.00    +0.168 C 
ATOM      4  C   UNL     1       5.265  -0.114  -0.095  0.00  0.00    -0.005 C 
ATOM      5  C   UNL     1       4.491  -1.437  -0.083  0.00  0.00    +0.297 C 
ATOM      6  N   UNL     1       3.045  -1.297   0.043  0.00  0.00    -0.672 N 
ATOM      7  H   UNL     1       2.538  -2.175  -0.000  0.00  0.00    +0.292 HD
ENDROOT
BRANCH   4   8
ATOM      8  C   UNL     1       6.218  -0.071  -1.289  0.00  0.00    +0.554 C 
ATOM      9  O   UNL     1       7.420  -0.200  -1.085  0.00  0.00    -0.486 OA
ATOM     10  N   UNL     1       5.632   0.065  -2.524  0.00  0.00    -0.717 N 
ATOM     11  C   UNL     1       6.317   0.174  -3.739  0.00  0.00    +0.528 C 
ATOM     12  O   UNL     1       7.545   0.163  -3.834  0.00  0.00    -0.470 OA
ATOM     13  H   UNL     1       4.619   0.123  -2.651  0.00  0.00    +0.320 HD
BRANCH  11  14
ATOM     14  C   UNL     1       5.333   0.309  -4.775  0.00  0.00    +0.062 A 
ATOM     15  C   UNL     1       5.613   0.446  -6.113  0.00  0.00    +0.225 A 
ATOM     16  N   UNL     1       4.463   0.542  -6.795  0.00  0.00    -0.208 NA
ATOM     17  N   UNL     1       3.484   0.461  -5.848  0.00  0.00    -0.046 NA
ATOM     18  N   UNL     1       3.987   0.318  -4.597  0.00  0.00    -0.239 NA
ENDBRANCH  11  14
ENDBRANCH   4   8
BRANCH   1  19
ATOM     19  N   UNL     1       1.002  -0.172   0.010  0.00  0.00    -1.119 NA
ATOM     20  H   UNL     1       0.572   0.720  -0.259  0.00  0.00    +0.332 HD
ATOM     21  H   UNL     1       0.679  -0.854  -0.685  0.00  0.00    +0.341 HD
ATOM     22  H   UNL     1       0.628  -0.439   0.925  0.00  0.00    +0.339 HD
ENDBRANCH   1  19
TORSDOF 3
