REMARK  Name = 
REMARK  3 active torsions:
REMARK  status: ('A' for Active; 'I' for Inactive)
REMARK    1  A    between atoms: C_2  and  N_3
REMARK    2  A    between atoms: C_2  and  C_10
REMARK    3  A    between atoms: N_3  and  C_4
REMARK                            x       y       z     vdW  Elec       q    Type
REMARK                         _______ _______ _______ _____ _____    ______ ____
ROOT
ATOM      1  C   UNL     1       4.479   0.869  -1.021  0.00  0.00    -0.076 C 
ATOM      2  C   UNL     1       4.247   1.990  -1.718  0.00  0.00    +0.053 C 
ATOM      3  C   UNL     1       3.928   1.924  -3.123  0.00  0.00    -0.089 C 
ATOM      4  C   UNL     1       2.744   2.342  -3.487  0.00  0.00    +0.146 C 
ATOM      5  N   UNL     1       1.683   1.841  -4.341  0.00  0.00    -0.664 N 
ATOM      6  C   UNL     1       2.460   0.784  -4.985  0.00  0.00    +0.411 C 
ATOM      7  N   UNL     1       3.507   0.265  -5.082  0.00  0.00    -0.529 NA
ATOM      8  C   UNL     1       4.421   0.655  -3.918  0.00  0.00    +0.305 C 
ATOM      9  N   UNL     1       4.541  -0.545  -3.092  0.00  0.00    -0.393 NA
ATOM     10  C   UNL     1       4.538  -0.396  -1.813  0.00  0.00    +0.233 C 
ATOM     11  H   UNL     1       1.298   2.515  -4.993  0.00  0.00    +0.259 HD
ENDROOT
BRANCH   1  13
ATOM     12  O   UNL     1       4.335   1.987   1.076  0.00  0.00    -0.537 OA
ATOM     13  C   UNL     1       4.499   0.925   0.480  0.00  0.00    +0.479 C 
BRANCH  13  14
ATOM     14  N   UNL     1       4.673  -0.306   0.957  0.00  0.00    -0.521 NA
BRANCH  14  15
ATOM     15  C   UNL     1       4.293  -0.573   2.210  0.00  0.00    +0.233 C 
ATOM     16  C   UNL     1       4.935   0.051   3.342  0.00  0.00    -0.076 C 
ATOM     17  C   UNL     1       5.380  -0.709   4.620  0.00  0.00    +0.098 C 
ATOM     18  N   UNL     1       5.280  -2.133   5.067  0.00  0.00    -0.581 NA
ATOM     19  C   UNL     1       4.610  -2.642   3.838  0.00  0.00    +0.099 C 
ATOM     20  C   UNL     1       4.118  -1.970   2.535  0.00  0.00    -0.098 C 
ATOM     21  H   UNL     1       4.606  -2.175   5.826  0.00  0.00    +0.249 HD
ENDBRANCH  14  15
ENDBRANCH  13  14
ENDBRANCH   1  13
TORSDOF 3
