REMARK  Name = 
REMARK  5 active torsions:
REMARK  status: ('A' for Active; 'I' for Inactive)
REMARK    1  A    between atoms: C_1  and  C_2
REMARK    2  A    between atoms: C_9  and  C_10
REMARK    3  A    between atoms: N_12  and  C_13
REMARK    4  A    between atoms: C_13  and  C_14
REMARK    5  A    between atoms: C_20  and  N_21
REMARK                            x       y       z     vdW  Elec       q    Type
REMARK                         _______ _______ _______ _____ _____    ______ ____
ROOT
ATOM      1  C   UNL     1       1.291   0.248  -0.937  0.00  0.00    +0.204 C 
ATOM      2  C   UNL     1       2.621   0.050  -0.255  0.00  0.00    +0.576 C 
ATOM      3  O   UNL     1       3.280   1.020   0.136  0.00  0.00    -0.514 OA
ATOM      4  N   UNL     1       3.074  -1.252  -0.053  0.00  0.00    -0.594 N 
ATOM      5  C   UNL     1       2.625  -2.366  -0.749  0.00  0.00    +0.478 C 
ATOM      6  N   UNL     1       2.352  -2.371  -2.002  0.00  0.00    -0.601 NA
ATOM      7  C   UNL     1       2.481  -3.636   0.060  0.00  0.00    +0.104 C 
ATOM      8  C   UNL     1       3.722  -3.930   0.894  0.00  0.00    +0.147 C 
ATOM      9  C   UNL     1       4.222  -2.692   1.641  0.00  0.00    -0.068 C 
ATOM     10  C   UNL     1       4.300  -1.489   0.693  0.00  0.00    +0.477 C 
ATOM     11  H   UNL     1       2.538  -1.490  -2.483  0.00  0.00    +0.299 HD
ENDROOT
BRANCH   9  12
ATOM     12  C   UNL     1       3.349  -2.352   2.834  0.00  0.00    +0.538 C 
ATOM     13  O   UNL     1       2.562  -1.404   2.779  0.00  0.00    -0.498 OA
ATOM     14  N   UNL     1       3.484  -3.045   3.991  0.00  0.00    -0.650 N 
ATOM     15  H   UNL     1       2.862  -2.757   4.740  0.00  0.00    +0.318 HD
BRANCH  14  16
ATOM     16  C   UNL     1       4.533  -3.975   4.356  0.00  0.00    +0.240 C 
BRANCH  16  17
ATOM     17  C   UNL     1       4.050  -5.356   4.684  0.00  0.00    +0.050 A 
ATOM     18  C   UNL     1       2.797  -5.847   4.298  0.00  0.00    +0.065 A 
ATOM     19  C   UNL     1       2.450  -7.175   4.549  0.00  0.00    +0.087 A 
ATOM     20  C   UNL     1       3.355  -8.024   5.181  0.00  0.00    +0.087 A 
ATOM     21  C   UNL     1       4.602  -7.545   5.574  0.00  0.00    +0.097 A 
ATOM     22  C   UNL     1       4.942  -6.223   5.331  0.00  0.00    +0.040 A 
ENDBRANCH  16  17
ENDBRANCH  14  16
ENDBRANCH   9  12
BRANCH  10  23
ATOM     23  N   UNL     1       4.802  -0.313   1.440  0.00  0.00    -0.980 N 
ATOM     24  H   UNL     1       4.116  -0.054   2.168  0.00  0.00    +0.378 HD
ATOM     25  H   UNL     1       4.778   0.513   0.812  0.00  0.00    +0.385 HD
ATOM     26  H   UNL     1       5.739  -0.400   1.843  0.00  0.00    +0.334 HD
ENDBRANCH  10  23
TORSDOF 4
