REMARK  Name = 
REMARK  6 active torsions:
REMARK  status: ('A' for Active; 'I' for Inactive)
REMARK    1  A    between atoms: C_4  and  N_5
REMARK    2  A    between atoms: N_5  and  C_6
REMARK    3  A    between atoms: C_14  and  C_15
REMARK    4  A    between atoms: C_15  and  N_17
REMARK    5  A    between atoms: N_17  and  C_18
REMARK    6  A    between atoms: C_18  and  C_19
REMARK                            x       y       z     vdW  Elec       q    Type
REMARK                         _______ _______ _______ _____ _____    ______ ____
ROOT
ATOM      1  N   UNL     1       1.025   0.025  -0.265  0.00  0.00    -0.619 NA
ATOM      2  C   UNL     1       2.297   0.097  -0.048  0.00  0.00    +0.475 C 
ATOM      3  N   UNL     1       2.949   1.298  -0.201  0.00  0.00    -0.643 N 
ATOM      4  C   UNL     1       3.979   1.307  -1.221  0.00  0.00    +0.395 C 
ATOM      5  C   UNL     1       4.890   0.065  -1.217  0.00  0.00    +0.026 C 
ATOM      6  C   UNL     1       4.104  -1.243  -1.012  0.00  0.00    +0.127 C 
ATOM      7  C   UNL     1       3.155  -1.140   0.200  0.00  0.00    -0.059 C 
ATOM      8  H   UNL     1       0.674   0.991  -0.308  0.00  0.00    +0.298 HD
ATOM      9  H   UNL     1       3.494   1.383   0.690  0.00  0.00    +0.298 HD
ENDROOT
BRANCH   4  10
ATOM     10  N   UNL     1       3.262   1.301  -2.520  0.00  0.00    -0.823 N 
ATOM     11  H   UNL     1       3.932   1.151  -3.276  0.00  0.00    +0.284 HD
ATOM     12  H   UNL     1       2.643   0.481  -2.483  0.00  0.00    +0.307 HD
BRANCH  10  13
ATOM     13  C   UNL     1       2.471   2.444  -2.776  0.00  0.00    +0.238 C 
ATOM     14  C   UNL     1       1.708   2.378  -4.006  0.00  0.00    -0.067 C 
ATOM     15  C   UNL     1       1.660   3.333  -5.217  0.00  0.00    -0.014 C 
ATOM     16  C   UNL     1       2.463   4.638  -5.066  0.00  0.00    -0.025 C 
ATOM     17  C   UNL     1       3.197   4.885  -3.737  0.00  0.00    -0.017 C 
ATOM     18  C   UNL     1       3.090   3.748  -2.703  0.00  0.00    -0.064 C 
ENDBRANCH  10  13
ENDBRANCH   4  10
BRANCH   7  19
ATOM     19  C   UNL     1       4.009  -1.083   1.470  0.00  0.00    +0.490 C 
ATOM     20  O   UNL     1       4.406  -2.128   1.980  0.00  0.00    -0.530 OA
BRANCH  19  21
ATOM     21  N   UNL     1       4.327   0.171   1.796  0.00  0.00    -0.480 NA
BRANCH  21  22
ATOM     22  C   UNL     1       5.500   0.307   2.650  0.00  0.00    +0.206 C 
BRANCH  22  23
ATOM     23  C   UNL     1       5.347   1.586   3.445  0.00  0.00    +0.055 A 
ATOM     24  C   UNL     1       4.292   1.717   4.360  0.00  0.00    +0.040 A 
ATOM     25  C   UNL     1       4.165   2.862   5.145  0.00  0.00    +0.041 A 
ATOM     26  C   UNL     1       5.100   3.889   5.032  0.00  0.00    +0.027 A 
ATOM     27  C   UNL     1       6.152   3.774   4.124  0.00  0.00    +0.038 A 
ATOM     28  C   UNL     1       6.275   2.629   3.332  0.00  0.00    -0.006 A 
ENDBRANCH  22  23
ENDBRANCH  21  22
ENDBRANCH  19  21
ENDBRANCH   7  19
TORSDOF 6
