REMARK  Name = 
REMARK  5 active torsions:
REMARK  status: ('A' for Active; 'I' for Inactive)
REMARK    1  A    between atoms: C_4  and  C_5
REMARK    2  A    between atoms: C_5  and  N_6
REMARK    3  A    between atoms: C_7  and  O_8
REMARK    4  A    between atoms: C_7  and  C_9
REMARK    5  A    between atoms: N_13  and  C_14
REMARK                            x       y       z     vdW  Elec       q    Type
REMARK                         _______ _______ _______ _____ _____    ______ ____
ROOT
ATOM      1  C   UNL     1       8.751  -3.275  -0.105  0.00  0.00    -0.074 A 
ATOM      2  C   UNL     1       9.277  -2.378   0.823  0.00  0.00    +0.156 A 
ATOM      3  C   UNL     1      10.646  -2.122   0.828  0.00  0.00    -0.047 A 
ATOM      4  C   UNL     1      11.480  -2.762  -0.093  0.00  0.00    +0.513 A 
ATOM      5  N   UNL     1      12.859  -2.558  -0.052  0.00  0.00    -0.690 N 
ATOM      6  N   UNL     1      10.931  -3.632  -0.958  0.00  0.00    -0.678 N 
ATOM      7  C   UNL     1       9.614  -3.904  -0.993  0.00  0.00    +0.309 A 
ATOM      8  H   UNL     1      13.162  -1.667   0.335  0.00  0.00    +0.296 HD
ATOM      9  H   UNL     1      11.546  -4.106  -1.613  0.00  0.00    +0.307 HD
ENDROOT
BRANCH   5  10
ATOM     10  C   UNL     1      13.868  -3.433  -0.341  0.00  0.00    +0.245 C 
ATOM     11  C   UNL     1      13.623  -4.845  -0.191  0.00  0.00    -0.036 C 
ATOM     12  C   UNL     1      14.450  -5.920   0.546  0.00  0.00    +0.014 C 
ATOM     13  C   UNL     1      15.772  -5.439   1.174  0.00  0.00    +0.002 C 
ATOM     14  C   UNL     1      16.161  -3.960   0.987  0.00  0.00    +0.013 C 
ATOM     15  C   UNL     1      15.158  -3.089   0.201  0.00  0.00    -0.046 C 
ENDBRANCH   5  10
BRANCH   1  17
ATOM     16  N   UNL     1       6.894  -4.632  -0.846  0.00  0.00    -0.492 NA
ATOM     17  C   UNL     1       7.332  -3.652  -0.132  0.00  0.00    +0.448 C 
BRANCH  17  18
ATOM     18  O   UNL     1       6.603  -2.865   0.679  0.00  0.00    -0.602 OA
ATOM     19  H   UNL     1       5.662  -3.131   0.713  0.00  0.00    +0.314 HD
ENDBRANCH  17  18
BRANCH  16  20
ATOM     20  C   UNL     1       5.613  -4.999  -0.678  0.00  0.00    +0.208 C 
BRANCH  20  24
ATOM     21  N   UNL     1       3.756  -7.355   2.691  0.00  0.00    -0.543 NA
ATOM     22  C   UNL     1       3.514  -6.325   1.966  0.00  0.00    +0.434 C 
ATOM     23  C   UNL     1       4.215  -6.255   0.680  0.00  0.00    -0.070 C 
ATOM     24  C   UNL     1       4.297  -5.354  -0.274  0.00  0.00    -0.012 C 
ATOM     25  C   UNL     1       3.334  -4.348   0.112  0.00  0.00    -0.052 C 
ATOM     26  C   UNL     1       2.733  -4.341   1.150  0.00  0.00    +0.169 C 
ATOM     27  N   UNL     1       2.699  -5.295   2.292  0.00  0.00    -0.376 NA
ATOM     28  H   UNL     1       4.400  -7.980   2.204  0.00  0.00    +0.291 HD
ENDBRANCH  20  24
ENDBRANCH  16  20
ENDBRANCH   1  17
TORSDOF 5
