REMARK  Name = 
REMARK  3 active torsions:
REMARK  status: ('A' for Active; 'I' for Inactive)
REMARK    1  A    between atoms: C_2  and  N_3
REMARK    2  A    between atoms: C_2  and  C_10
REMARK    3  A    between atoms: N_3  and  C_4
REMARK                            x       y       z     vdW  Elec       q    Type
REMARK                         _______ _______ _______ _____ _____    ______ ____
ROOT
ATOM      1  O   UNL     1       3.226  -4.269  -7.428  0.00  0.00    -0.490 OA
ATOM      2  C   UNL     1       3.072  -3.247  -6.758  0.00  0.00    +0.534 C 
ENDROOT
BRANCH   2   3
ATOM      3  C   UNL     1       3.725  -3.093  -5.440  0.00  0.00    -0.153 C 
ATOM      4  C   UNL     1       4.502  -3.943  -4.835  0.00  0.00    +0.109 C 
ATOM      5  C   UNL     1       5.051  -3.894  -3.521  0.00  0.00    -0.132 C 
ATOM      6  C   UNL     1       6.244  -4.314  -3.188  0.00  0.00    +0.252 C 
ATOM      7  N   UNL     1       7.272  -4.011  -2.356  0.00  0.00    -0.498 NA
ATOM      8  C   UNL     1       6.800  -3.064  -1.842  0.00  0.00    +0.468 C 
ATOM      9  N   UNL     1       5.636  -2.170  -1.763  0.00  0.00    -0.647 N 
ATOM     10  C   UNL     1       4.732  -2.538  -2.792  0.00  0.00    +0.393 C 
ATOM     11  N   UNL     1       3.807  -1.661  -3.395  0.00  0.00    -0.474 NA
ATOM     12  C   UNL     1       3.537  -2.056  -4.473  0.00  0.00    +0.332 C 
ATOM     13  H   UNL     1       5.798  -1.169  -1.817  0.00  0.00    +0.319 HD
ENDBRANCH   2   3
BRANCH   2  14
ATOM     14  N   UNL     1       2.347  -2.156  -7.056  0.00  0.00    -0.456 NA
BRANCH  14  15
ATOM     15  C   UNL     1       1.496  -2.265  -8.086  0.00  0.00    +0.246 C 
ATOM     16  C   UNL     1       0.426  -3.231  -7.999  0.00  0.00    -0.035 C 
ATOM     17  C   UNL     1       0.117  -4.272  -9.085  0.00  0.00    +0.208 C 
ATOM     18  N   UNL     1       0.722  -4.496 -10.416  0.00  0.00    -0.797 N 
ATOM     19  C   UNL     1       1.673  -3.364 -10.459  0.00  0.00    +0.208 C 
ATOM     20  C   UNL     1       2.039  -2.291  -9.422  0.00  0.00    -0.029 C 
ATOM     21  H   UNL     1       0.027  -4.431 -11.159  0.00  0.00    +0.318 HD
ATOM     22  H   UNL     1       1.244  -5.376 -10.407  0.00  0.00    +0.325 HD
ENDBRANCH  14  15
ENDBRANCH   2  14
TORSDOF 3
