REMARK  Name = 
REMARK  6 active torsions:
REMARK  status: ('A' for Active; 'I' for Inactive)
REMARK    1  A    between atoms: N_3  and  C_4
REMARK    2  A    between atoms: C_9  and  C_10
REMARK    3  A    between atoms: C_10  and  O_19
REMARK    4  A    between atoms: N_11  and  C_12
REMARK    5  A    between atoms: C_12  and  C_13
REMARK    6  A    between atoms: O_19  and  C_20
REMARK                            x       y       z     vdW  Elec       q    Type
REMARK                         _______ _______ _______ _____ _____    ______ ____
ROOT
ATOM      1  C   UNL     1      -0.263   2.960  -0.773  0.00  0.00    +0.467 C 
ATOM      2  N   UNL     1      -1.425   2.518  -1.108  0.00  0.00    -0.508 NA
ENDROOT
BRANCH   1   8
ATOM      3  C   UNL     1       0.946   4.027  -2.765  0.00  0.00    +0.363 C 
ATOM      4  N   UNL     1       1.957   4.809  -3.237  0.00  0.00    -0.382 NA
ATOM      5  C   UNL     1       2.717   5.486  -2.348  0.00  0.00    +0.198 C 
ATOM      6  C   UNL     1       2.524   5.444  -0.986  0.00  0.00    -0.054 C 
ATOM      7  C   UNL     1       1.494   4.640  -0.524  0.00  0.00    +0.083 C 
ATOM      8  C   UNL     1       0.688   3.901  -1.400  0.00  0.00    -0.146 C 
BRANCH   3  11
ATOM      9  N   UNL     1       0.178   4.359  -5.897  0.00  0.00    -0.162 NA
ATOM     10  N   UNL     1       0.235   3.863  -4.865  0.00  0.00    +0.027 NA
ATOM     11  N   UNL     1       0.263   3.298  -3.752  0.00  0.00    -0.284 NA
ENDBRANCH   3  11
ENDBRANCH   1   8
BRANCH   2  12
ATOM     12  C   UNL     1      -2.165   2.898  -2.146  0.00  0.00    +0.240 C 
BRANCH  12  13
ATOM     13  C   UNL     1      -3.224   3.109  -3.079  0.00  0.00    -0.051 C 
ATOM     14  C   UNL     1      -3.665   4.397  -3.365  0.00  0.00    +0.028 C 
ATOM     15  C   UNL     1      -4.863   4.577  -4.054  0.00  0.00    +0.004 C 
ATOM     16  C   UNL     1      -5.626   3.475  -4.439  0.00  0.00    +0.006 C 
ATOM     17  C   UNL     1      -5.176   2.187  -4.167  0.00  0.00    -0.000 C 
ATOM     18  C   UNL     1      -3.978   2.005  -3.482  0.00  0.00    +0.020 C 
ENDBRANCH  12  13
ENDBRANCH   2  12
BRANCH   1  19
ATOM     19  O   UNL     1       0.297   2.518   0.401  0.00  0.00    -0.510 OA
BRANCH  19  20
ATOM     20  C   UNL     1      -0.403   1.454   1.093  0.00  0.00    +0.282 C 
ATOM     21  C   UNL     1       0.090   0.132   0.496  0.00  0.00    +0.112 C 
ATOM     22  C   UNL     1       1.218  -0.358   1.411  0.00  0.00    +0.107 C 
ATOM     23  C   UNL     1       1.346   0.662   2.539  0.00  0.00    +0.124 C 
ATOM     24  C   UNL     1      -0.014   1.335   2.569  0.00  0.00    +0.041 C 
ATOM     25 CL   UNL     1       0.011   2.874   3.444  0.00  0.00    -0.005 Cl
ENDBRANCH  19  20
ENDBRANCH   1  19
TORSDOF 6
