REMARK  Name = 
REMARK  2 active torsions:
REMARK  status: ('A' for Active; 'I' for Inactive)
REMARK    1  A    between atoms: O_1  and  C_2
REMARK    2  A    between atoms: C_4  and  C_5
REMARK                            x       y       z     vdW  Elec       q    Type
REMARK                         _______ _______ _______ _____ _____    ______ ____
ROOT
ATOM      1  C   UNL     1       8.375  -3.191  -0.876  0.00  0.00    +0.480 C 
ATOM      2  N   UNL     1       9.101  -2.175  -1.190  0.00  0.00    -0.548 NA
ATOM      3  C   UNL     1       8.384  -1.030  -1.498  0.00  0.00    +0.354 C 
ATOM      4  N   UNL     1       7.162  -0.711  -0.938  0.00  0.00    -0.495 NA
ATOM      5  C   UNL     1       6.429  -1.728  -0.622  0.00  0.00    +0.410 C 
ATOM      6  N   UNL     1       5.093  -1.558  -0.197  0.00  0.00    -0.475 NA
ATOM      7  C   UNL     1       4.566  -2.600  -0.042  0.00  0.00    +0.257 C 
ATOM      8  C   UNL     1       4.840  -4.105  -0.098  0.00  0.00    -0.091 C 
ATOM      9  C   UNL     1       5.997  -4.168  -0.407  0.00  0.00    +0.076 C 
ATOM     10  C   UNL     1       6.946  -3.152  -0.700  0.00  0.00    -0.171 C 
ENDROOT
BRANCH   3  11
ATOM     11  C   UNL     1       8.588  -0.476  -2.900  0.00  0.00    +0.047 C 
ATOM     12  C   UNL     1       8.107  -1.530  -3.916  0.00  0.00    +0.117 C 
ATOM     13  C   UNL     1       8.314  -1.088  -5.356  0.00  0.00    +0.076 C 
ATOM     14  C   UNL     1       9.767  -0.702  -5.600  0.00  0.00    +0.075 C 
ATOM     15  C   UNL     1      10.218   0.389  -4.632  0.00  0.00    +0.073 C 
ATOM     16  C   UNL     1      10.033  -0.037  -3.175  0.00  0.00    +0.107 C 
ENDBRANCH   3  11
BRANCH   1  17
ATOM     17  O   UNL     1       8.952  -4.384  -0.703  0.00  0.00    -0.605 OA
ATOM     18  H   UNL     1       9.904  -4.274  -0.872  0.00  0.00    +0.312 HD
ENDBRANCH   1  17
TORSDOF 2
