REMARK  Name = 
REMARK  4 active torsions:
REMARK  status: ('A' for Active; 'I' for Inactive)
REMARK    1  A    between atoms: N_1  and  C_2
REMARK    2  A    between atoms: C_2  and  C_4
REMARK    3  A    between atoms: N_8  and  C_9
REMARK    4  A    between atoms: N_15  and  C_16
REMARK                            x       y       z     vdW  Elec       q    Type
REMARK                         _______ _______ _______ _____ _____    ______ ____
ROOT
ATOM      1  C   UNL     1       5.070   5.174   2.807  0.00  0.00    +0.242 C 
ATOM      2  C   UNL     1       4.970   4.342   3.982  0.00  0.00    -0.103 C 
ATOM      3  C   UNL     1       3.625   4.069   4.700  0.00  0.00    +0.204 C 
ATOM      4  N   UNL     1       2.346   4.480   4.395  0.00  0.00    -0.564 N 
ATOM      5  C   UNL     1       1.181   3.812   4.792  0.00  0.00    +0.711 C 
ATOM      6  O   UNL     1       1.211   2.912   5.630  0.00  0.00    -0.549 OA
ATOM      7  N   UNL     1       0.046   4.230   4.112  0.00  0.00    -0.740 N 
ATOM      8  C   UNL     1       2.538   5.397   3.389  0.00  0.00    +0.173 C 
ATOM      9  C   UNL     1       3.789   5.803   2.577  0.00  0.00    -0.077 C 
ATOM     10  H   UNL     1       0.199   4.875   3.349  0.00  0.00    +0.303 HD
ENDROOT
BRANCH   1  15
ATOM     11  C   UNL     1       7.669   6.506  -1.322  0.00  0.00    -0.141 C 
ATOM     12  C   UNL     1       6.654   7.193  -0.670  0.00  0.00    +0.066 C 
ATOM     13  C   UNL     1       5.940   6.556   0.334  0.00  0.00    -0.102 C 
ATOM     14  C   UNL     1       6.270   5.246   0.672  0.00  0.00    +0.412 C 
ATOM     15  N   UNL     1       5.634   4.570   1.720  0.00  0.00    -0.651 N 
ATOM     16  N   UNL     1       7.221   4.541   0.025  0.00  0.00    -0.468 NA
ATOM     17  C   UNL     1       7.903   5.193  -0.956  0.00  0.00    +0.222 C 
ATOM     18  H   UNL     1       6.155   3.717   1.894  0.00  0.00    +0.304 HD
BRANCH  11  19
ATOM     19  C   UNL     1       8.531   7.138  -2.338  0.00  0.00    +0.534 C 
ATOM     20  O   UNL     1       9.382   6.458  -2.900  0.00  0.00    -0.530 OA
BRANCH  19  21
ATOM     21  N   UNL     1       8.319   8.427  -2.556  0.00  0.00    -0.615 NA
ATOM     22  H   UNL     1       9.010   8.720  -3.253  0.00  0.00    +0.291 HD
ENDBRANCH  19  21
ENDBRANCH  11  19
ENDBRANCH   1  15
BRANCH   7  23
ATOM     23  C   UNL     1      -1.238   3.646   4.191  0.00  0.00    +0.307 A 
ATOM     24  C   UNL     1      -1.617   2.762   5.205  0.00  0.00    +0.016 A 
ATOM     25  C   UNL     1      -2.869   2.144   5.180  0.00  0.00    +0.049 A 
ATOM     26  C   UNL     1      -3.758   2.413   4.144  0.00  0.00    -0.001 A 
ATOM     27  C   UNL     1      -3.400   3.323   3.153  0.00  0.00    +0.161 A 
ATOM     28 BR   UNL     1      -4.605   3.685   1.741  0.00  0.00    -0.406 Br
ATOM     29  C   UNL     1      -2.153   3.951   3.177  0.00  0.00    -0.044 A 
ENDBRANCH   7  23
TORSDOF 4
