REMARK  Name = 
REMARK  6 active torsions:
REMARK  status: ('A' for Active; 'I' for Inactive)
REMARK    1  A    between atoms: C_1  and  C_2
REMARK    2  A    between atoms: C_2  and  C_3
REMARK    3  A    between atoms: C_7  and  C_8
REMARK    4  A    between atoms: C_14  and  C_15
REMARK    5  A    between atoms: N_17  and  C_18
REMARK    6  A    between atoms: C_18  and  C_19
REMARK                            x       y       z     vdW  Elec       q    Type
REMARK                         _______ _______ _______ _____ _____    ______ ____
ROOT
ATOM      1  C   UNL     1       1.449   2.942  -0.959  0.00  0.00    +0.521 C 
ATOM      2  O   UNL     1       2.566   2.471  -0.784  0.00  0.00    -0.477 OA
ATOM      3  N   UNL     1       1.144   4.293  -1.222  0.00  0.00    -0.531 N 
ATOM      4  C   UNL     1      -0.116   4.843  -1.147  0.00  0.00    +0.218 C 
ATOM      5  C   UNL     1      -0.682   5.883  -1.308  0.00  0.00    -0.060 C 
ATOM      6  C   UNL     1       0.418   6.820  -1.741  0.00  0.00    +0.072 C 
ATOM      7  C   UNL     1       1.698   6.653  -1.937  0.00  0.00    -0.158 C 
ATOM      8  C   UNL     1       2.179   5.193  -1.712  0.00  0.00    +0.455 C 
ATOM      9  N   UNL     1       3.373   4.781  -1.962  0.00  0.00    -0.487 NA
ATOM     10  H   UNL     1       3.966   5.559  -2.307  0.00  0.00    +0.325 HD
ENDROOT
BRANCH   1  15
ATOM     11  C   UNL     1       0.325   0.658  -1.344  0.00  0.00    +0.235 A 
ATOM     12  N   UNL     1      -0.942   0.096  -1.044  0.00  0.00    -0.391 N 
ATOM     13  N   UNL     1      -1.692   1.001  -0.405  0.00  0.00    -0.349 N 
ATOM     14  C   UNL     1      -0.957   2.185  -0.249  0.00  0.00    +0.245 A 
ATOM     15  C   UNL     1       0.330   2.025  -0.859  0.00  0.00    -0.102 A 
ATOM     16  H   UNL     1      -1.247  -0.854  -1.272  0.00  0.00    +0.269 HD
ATOM     17  H   UNL     1      -2.649   0.830  -0.084  0.00  0.00    +0.269 HD
BRANCH  11  19
ATOM     18  C   UNL     1       2.305  -0.825  -1.124  0.00  0.00    +0.286 C 
ATOM     19  C   UNL     1       1.399  -0.052  -2.065  0.00  0.00    +0.157 C 
ENDBRANCH  11  19
ENDBRANCH   1  15
BRANCH   7  20
ATOM     20  C   UNL     1       2.609   7.751  -2.325  0.00  0.00    +0.546 C 
ATOM     21  O   UNL     1       3.763   7.503  -2.657  0.00  0.00    -0.507 OA
ATOM     22  N   UNL     1       2.075   9.014  -2.264  0.00  0.00    -0.627 N 
ATOM     23  H   UNL     1       1.104   9.166  -2.027  0.00  0.00    +0.300 HD
BRANCH  22  24
ATOM     24  C   UNL     1       2.848  10.186  -2.602  0.00  0.00    +0.316 C 
BRANCH  24  25
ATOM     25  C   UNL     1       2.474  11.346  -1.719  0.00  0.00    +0.056 A 
ATOM     26  C   UNL     1       3.174  11.579  -0.526  0.00  0.00    +0.072 A 
ATOM     27  C   UNL     1       2.870  12.684   0.270  0.00  0.00    +0.101 A 
ATOM     28  C   UNL     1       1.852  13.557  -0.108  0.00  0.00    +0.091 A 
ATOM     29  C   UNL     1       1.122  13.314  -1.270  0.00  0.00    +0.099 A 
ATOM     30  C   UNL     1       1.425  12.210  -2.069  0.00  0.00    +0.055 A 
ENDBRANCH  24  25
ENDBRANCH  22  24
ENDBRANCH   7  20
TORSDOF 5
