REMARK  Name = 
REMARK  5 active torsions:
REMARK  status: ('A' for Active; 'I' for Inactive)
REMARK    1  A    between atoms: C_4  and  N_5
REMARK    2  A    between atoms: N_5  and  C_6
REMARK    3  A    between atoms: C_14  and  C_15
REMARK    4  A    between atoms: N_17  and  C_18
REMARK    5  A    between atoms: C_18  and  C_19
REMARK                            x       y       z     vdW  Elec       q    Type
REMARK                         _______ _______ _______ _____ _____    ______ ____
ROOT
ATOM      1  N   UNL     1       1.127   0.057   0.271  0.00  0.00    -0.561 NA
ATOM      2  C   UNL     1       2.398   0.084   0.079  0.00  0.00    +0.499 C 
ATOM      3  N   UNL     1       3.049   1.268  -0.200  0.00  0.00    -0.660 N 
ATOM      4  C   UNL     1       4.048   1.251  -1.244  0.00  0.00    +0.446 C 
ATOM      5  C   UNL     1       4.928  -0.003  -1.217  0.00  0.00    +0.072 C 
ATOM      6  C   UNL     1       4.069  -1.264  -1.090  0.00  0.00    +0.155 C 
ATOM      7  C   UNL     1       3.218  -1.200   0.185  0.00  0.00    -0.049 C 
ATOM      8  H   UNL     1       0.738   1.004   0.204  0.00  0.00    +0.318 HD
ATOM      9  H   UNL     1       3.363   1.657   0.689  0.00  0.00    +0.318 HD
ENDROOT
BRANCH   7  10
ATOM     10  C   UNL     1       4.056  -1.173   1.467  0.00  0.00    +0.528 C 
ATOM     11  O   UNL     1       3.811  -0.384   2.377  0.00  0.00    -0.501 OA
ATOM     12  N   UNL     1       5.158  -1.995   1.491  0.00  0.00    -0.641 N 
ATOM     13  H   UNL     1       5.242  -2.756   0.829  0.00  0.00    +0.283 HD
BRANCH  12  14
ATOM     14  C   UNL     1       5.999  -2.079   2.669  0.00  0.00    +0.304 C 
BRANCH  14  15
ATOM     15  C   UNL     1       7.447  -2.221   2.295  0.00  0.00    +0.054 A 
ATOM     16  C   UNL     1       8.264  -1.092   2.171  0.00  0.00    +0.050 A 
ATOM     17  C   UNL     1       9.622  -1.223   1.884  0.00  0.00    +0.087 A 
ATOM     18  C   UNL     1      10.179  -2.494   1.710  0.00  0.00    +0.084 A 
ATOM     19  C   UNL     1       9.370  -3.620   1.799  0.00  0.00    +0.095 A 
ATOM     20  C   UNL     1       8.010  -3.491   2.080  0.00  0.00    +0.047 A 
ENDBRANCH  14  15
ENDBRANCH  12  14
ENDBRANCH   7  10
BRANCH   4  21
ATOM     21  N   UNL     1       4.926   2.430  -1.102  0.00  0.00    -0.833 N 
ATOM     22  H   UNL     1       5.691   2.355  -1.783  0.00  0.00    +0.298 HD
ATOM     23  H   UNL     1       5.371   2.411  -0.179  0.00  0.00    +0.310 HD
BRANCH  21  24
ATOM     24  C   UNL     1       4.257   3.666  -1.308  0.00  0.00    +0.243 C 
ATOM     25  C   UNL     1       3.627   3.914  -2.585  0.00  0.00    -0.032 C 
ATOM     26  C   UNL     1       3.708   5.111  -3.553  0.00  0.00    +0.041 C 
ATOM     27  C   UNL     1       4.572   6.289  -3.070  0.00  0.00    +0.033 C 
ATOM     28  C   UNL     1       5.233   6.173  -1.684  0.00  0.00    +0.042 C 
ATOM     29  C   UNL     1       4.977   4.858  -0.916  0.00  0.00    -0.032 C 
ENDBRANCH  21  24
ENDBRANCH   4  21
TORSDOF 5
