REMARK  Name = 
REMARK  4 active torsions:
REMARK  status: ('A' for Active; 'I' for Inactive)
REMARK    1  A    between atoms: C_1  and  C_2
REMARK    2  A    between atoms: C_2  and  N_4
REMARK    3  A    between atoms: C_7  and  N_8
REMARK    4  A    between atoms: C_9  and  C_11
REMARK                            x       y       z     vdW  Elec       q    Type
REMARK                         _______ _______ _______ _____ _____    ______ ____
ROOT
ATOM      1  N   UNL     1      -6.756  -2.236   4.568  0.00  0.00    -0.655 N 
ATOM      2  C   UNL     1      -6.913  -2.295   3.192  0.00  0.00    +0.571 C 
ATOM      3  O   UNL     1      -7.879  -2.844   2.656  0.00  0.00    -0.498 OA
ATOM      4  H   UNL     1      -6.051  -1.622   4.966  0.00  0.00    +0.326 HD
ENDROOT
BRANCH   2   5
ATOM      5  C   UNL     1      -5.894  -1.625   2.377  0.00  0.00    -0.159 C 
ATOM      6  C   UNL     1      -5.929  -1.580   1.075  0.00  0.00    +0.289 C 
ATOM      7  N   UNL     1      -5.163  -1.013  -0.034  0.00  0.00    -0.571 N 
ATOM      8  C   UNL     1      -4.157  -0.159   0.469  0.00  0.00    +0.413 C 
ATOM      9  N   UNL     1      -3.602   0.940  -0.219  0.00  0.00    -0.490 NA
ATOM     10  C   UNL     1      -3.078   1.639   0.572  0.00  0.00    +0.529 C 
ATOM     11  N   UNL     1      -2.718   1.925   1.850  0.00  0.00    -0.452 NA
ATOM     12  C   UNL     1      -3.156   0.957   2.357  0.00  0.00    +0.332 C 
ATOM     13  C   UNL     1      -3.842  -0.241   2.006  0.00  0.00    -0.122 C 
ATOM     14  C   UNL     1      -4.741  -0.862   2.727  0.00  0.00    +0.117 C 
ATOM     15  H   UNL     1      -5.639  -0.573  -0.820  0.00  0.00    +0.335 HD
ENDBRANCH   2   5
BRANCH   1  19
ATOM     16  N   UNL     1     -10.702  -3.881   4.285  0.00  0.00    -0.590 N 
ATOM     17  C   UNL     1      -9.445  -4.610   4.617  0.00  0.00    +0.196 C 
ATOM     18  C   UNL     1      -8.078  -4.144   5.184  0.00  0.00    +0.013 C 
ATOM     19  C   UNL     1      -7.707  -2.756   5.431  0.00  0.00    +0.274 C 
ATOM     20  C   UNL     1      -8.966  -2.024   5.441  0.00  0.00    -0.001 C 
ATOM     21  C   UNL     1     -10.308  -2.563   4.882  0.00  0.00    +0.197 C 
ATOM     22  H   UNL     1     -11.497  -4.268   4.803  0.00  0.00    +0.302 HD
BRANCH  16  24
ATOM     23  C   UNL     1     -11.209  -5.165   2.212  0.00  0.00    +0.278 C 
ATOM     24  C   UNL     1     -11.008  -3.787   2.826  0.00  0.00    +0.298 C 
ATOM     25 CL   UNL     1     -12.524  -2.863   2.682  0.00  0.00    +0.067 Cl
ENDBRANCH  16  24
ENDBRANCH   1  19
TORSDOF 3
