REMARK  Name = 
REMARK  1 active torsions:
REMARK  status: ('A' for Active; 'I' for Inactive)
REMARK    1  A    between atoms: C_7  and  C_8
REMARK                            x       y       z     vdW  Elec       q    Type
REMARK                         _______ _______ _______ _____ _____    ______ ____
ROOT
ATOM      1  O   UNL     1       6.978   5.370   2.788  0.00  0.00    -0.387 OA
ATOM      2  C   UNL     1       6.214   4.743   3.503  0.00  0.00    +0.586 C 
ATOM      3  N   UNL     1       6.441   4.547   4.831  0.00  0.00    -0.319 NA
ATOM      4  C   UNL     1       6.505   3.385   5.373  0.00  0.00    +0.180 C 
ATOM      5  C   UNL     1       7.024   3.413   6.702  0.00  0.00    +0.166 C 
ATOM      6  C   UNL     1       7.422   2.041   7.145  0.00  0.00    +0.120 C 
ATOM      7  C   UNL     1       7.313   0.875   6.586  0.00  0.00    +0.158 C 
ATOM      8  N   UNL     1       6.590   0.883   5.369  0.00  0.00    -0.269 NA
ATOM      9  C   UNL     1       6.195   1.998   4.794  0.00  0.00    +0.369 C 
ATOM     10  N   UNL     1       5.289   1.776   3.567  0.00  0.00    -0.589 N 
ATOM     11  C   UNL     1       4.742   2.676   2.851  0.00  0.00    +0.503 C 
ATOM     12  N   UNL     1       3.854   2.218   1.853  0.00  0.00    -0.381 NA
ATOM     13  C   UNL     1       3.458   3.097   1.174  0.00  0.00    +0.375 C 
ATOM     14  C   UNL     1       3.537   4.605   0.989  0.00  0.00    +0.090 C 
ATOM     15  C   UNL     1       4.261   4.883   1.904  0.00  0.00    +0.159 C 
ATOM     16  C   UNL     1       4.966   4.187   2.948  0.00  0.00    -0.102 C 
ATOM     17  H   UNL     1       5.063   0.798   3.384  0.00  0.00    +0.389 HD
ENDROOT
BRANCH   7  18
ATOM     18  C   UNL     1       7.803  -0.423   7.207  0.00  0.00    +0.607 C 
ATOM     19  F   UNL     1       7.391  -1.503   6.495  0.00  0.00    -0.215 F 
ATOM     20  F   UNL     1       9.156  -0.468   7.255  0.00  0.00    -0.220 F 
ATOM     21  F   UNL     1       7.340  -0.580   8.471  0.00  0.00    -0.221 F 
ENDBRANCH   7  18
TORSDOF 1
