MODEL 1
REMARK VINA RESULT:    -5.173      0.000      0.000
REMARK INTER + INTRA:          -6.281
REMARK INTER:                  -6.080
REMARK INTRA:                  -0.202
REMARK UNBOUND:                -0.202
REMARK  Name = 100610997
REMARK  6 active torsions:
REMARK  status: ('A' for Active; 'I' for Inactive)
REMARK    1  A    between atoms: N_2  and  C_12
REMARK    2  A    between atoms: N_2  and  C_13
REMARK    3  A    between atoms: N_3  and  C_11
REMARK    4  A    between atoms: N_3  and  C_14
REMARK    5  A    between atoms: C_5  and  C_7
REMARK    6  A    between atoms: C_11  and  C_15
REMARK                            x       y       z     vdW  Elec       q    Type
REMARK                         _______ _______ _______ _____ _____    ______ ____
ROOT
ATOM      1  N   UNL     1     -15.566  46.368 -11.901  0.00  0.00    +0.000 N 
ATOM      2  N   UNL     1     -17.608  45.145 -11.793  0.00  0.00    +0.000 NA
ATOM      3  C   UNL     1     -17.639  42.822 -12.461  0.00  0.00    +0.000 A 
ATOM      4  C   UNL     1     -16.288  45.164 -12.088  0.00  0.00    +0.000 A 
ATOM      5  C   UNL     1     -16.280  42.879 -12.753  0.00  0.00    +0.000 A 
ATOM      6  C   UNL     1     -15.585  44.070 -12.566  0.00  0.00    +0.000 A 
ATOM      7  C   UNL     1     -18.250  43.972 -11.988  0.00  0.00    +0.000 A 
ATOM      8  C   UNL     1     -14.153  46.423 -12.206  0.00  0.00    +0.000 C 
ATOM      9  C   UNL     1     -16.238  47.551 -11.413  0.00  0.00    +0.000 C 
ENDROOT
BRANCH   3  12
ATOM     10  O   UNL     1     -19.073  41.501 -13.679  0.00  0.00    +0.000 OA
ATOM     11  N   UNL     1     -18.304  40.584 -11.671  0.00  0.00    +0.000 N 
ATOM     12  C   UNL     1     -18.402  41.578 -12.650  0.00  0.00    +0.000 C 
ATOM     13  C   UNL     1     -19.010  39.316 -11.781  0.00  0.00    +0.000 C 
BRANCH  11  14
ATOM     14  C   UNL     1     -17.484  40.750 -10.473  0.00  0.00    +0.000 C 
BRANCH  14  15
ATOM     15  C   UNL     1     -18.313  40.801  -9.270  0.00  0.00    +0.000 C 
ATOM     16  C   UNL     1     -18.991  40.840  -8.280  0.00  0.00    +0.000 C 
ENDBRANCH  14  15
ENDBRANCH  11  14
ENDBRANCH   3  12
TORSDOF 3
ENDMDL
MODEL 2
REMARK VINA RESULT:    -4.240      5.264      7.094
REMARK INTER + INTRA:          -5.186
REMARK INTER:                  -5.597
REMARK INTRA:                   0.411
REMARK UNBOUND:                -0.202
REMARK  Name = 100610997
REMARK  6 active torsions:
REMARK  status: ('A' for Active; 'I' for Inactive)
REMARK    1  A    between atoms: N_2  and  C_12
REMARK    2  A    between atoms: N_2  and  C_13
REMARK    3  A    between atoms: N_3  and  C_11
REMARK    4  A    between atoms: N_3  and  C_14
REMARK    5  A    between atoms: C_5  and  C_7
REMARK    6  A    between atoms: C_11  and  C_15
REMARK                            x       y       z     vdW  Elec       q    Type
REMARK                         _______ _______ _______ _____ _____    ______ ____
ROOT
ATOM      1  N   UNL     1     -18.782  42.411 -12.733  0.00  0.00    +0.000 N 
ATOM      2  N   UNL     1     -19.750  42.491 -14.909  0.00  0.00    +0.000 NA
ATOM      3  C   UNL     1     -19.538  44.504 -16.231  0.00  0.00    +0.000 A 
ATOM      4  C   UNL     1     -19.048  43.113 -13.934  0.00  0.00    +0.000 A 
ATOM      5  C   UNL     1     -18.820  45.111 -15.206  0.00  0.00    +0.000 A 
ATOM      6  C   UNL     1     -18.567  44.408 -14.032  0.00  0.00    +0.000 A 
ATOM      7  C   UNL     1     -19.977  43.204 -16.034  0.00  0.00    +0.000 A 
ATOM      8  C   UNL     1     -18.034  43.046 -11.670  0.00  0.00    +0.000 C 
ATOM      9  C   UNL     1     -19.262  41.058 -12.559  0.00  0.00    +0.000 C 
ENDROOT
BRANCH   3  12
ATOM     10  O   UNL     1     -18.847  45.646 -18.102  0.00  0.00    +0.000 OA
ATOM     11  N   UNL     1     -21.157  45.355 -17.884  0.00  0.00    +0.000 N 
ATOM     12  C   UNL     1     -19.823  45.220 -17.484  0.00  0.00    +0.000 C 
ATOM     13  C   UNL     1     -21.532  46.034 -19.115  0.00  0.00    +0.000 C 
BRANCH  11  14
ATOM     14  C   UNL     1     -22.263  44.821 -17.092  0.00  0.00    +0.000 C 
BRANCH  14  15
ATOM     15  C   UNL     1     -23.499  45.560 -17.349  0.00  0.00    +0.000 C 
ATOM     16  C   UNL     1     -24.511  46.171 -17.560  0.00  0.00    +0.000 C 
ENDBRANCH  14  15
ENDBRANCH  11  14
ENDBRANCH   3  12
TORSDOF 3
ENDMDL
MODEL 3
REMARK VINA RESULT:    -4.060     21.349     23.425
REMARK INTER + INTRA:          -4.974
REMARK INTER:                  -4.679
REMARK INTRA:                  -0.294
REMARK UNBOUND:                -0.202
REMARK  Name = 100610997
REMARK  6 active torsions:
REMARK  status: ('A' for Active; 'I' for Inactive)
REMARK    1  A    between atoms: N_2  and  C_12
REMARK    2  A    between atoms: N_2  and  C_13
REMARK    3  A    between atoms: N_3  and  C_11
REMARK    4  A    between atoms: N_3  and  C_14
REMARK    5  A    between atoms: C_5  and  C_7
REMARK    6  A    between atoms: C_11  and  C_15
REMARK                            x       y       z     vdW  Elec       q    Type
REMARK                         _______ _______ _______ _____ _____    ______ ____
ROOT
ATOM      1  N   UNL     1     -33.188  49.295   1.574  0.00  0.00    +0.000 N 
ATOM      2  N   UNL     1     -35.198  48.020   1.692  0.00  0.00    +0.000 NA
ATOM      3  C   UNL     1     -35.195  45.902   2.858  0.00  0.00    +0.000 A 
ATOM      4  C   UNL     1     -33.888  48.141   2.006  0.00  0.00    +0.000 A 
ATOM      5  C   UNL     1     -33.848  46.062   3.161  0.00  0.00    +0.000 A 
ATOM      6  C   UNL     1     -33.174  47.200   2.730  0.00  0.00    +0.000 A 
ATOM      7  C   UNL     1     -35.819  46.902   2.128  0.00  0.00    +0.000 A 
ATOM      8  C   UNL     1     -31.787  49.456   1.891  0.00  0.00    +0.000 C 
ATOM      9  C   UNL     1     -33.869  50.313   0.807  0.00  0.00    +0.000 C 
ENDROOT
BRANCH   3  12
ATOM     10  O   UNL     1     -36.051  43.803   2.474  0.00  0.00    +0.000 OA
ATOM     11  N   UNL     1     -36.436  44.684   4.605  0.00  0.00    +0.000 N 
ATOM     12  C   UNL     1     -35.935  44.709   3.299  0.00  0.00    +0.000 C 
ATOM     13  C   UNL     1     -37.166  43.541   5.134  0.00  0.00    +0.000 C 
BRANCH  11  14
ATOM     14  C   UNL     1     -36.258  45.803   5.529  0.00  0.00    +0.000 C 
BRANCH  14  15
ATOM     15  C   UNL     1     -35.358  45.444   6.624  0.00  0.00    +0.000 C 
ATOM     16  C   UNL     1     -34.622  45.150   7.525  0.00  0.00    +0.000 C 
ENDBRANCH  14  15
ENDBRANCH  11  14
ENDBRANCH   3  12
TORSDOF 3
ENDMDL
MODEL 4
REMARK VINA RESULT:    -4.057      2.692      4.053
REMARK INTER + INTRA:          -4.971
REMARK INTER:                  -4.730
REMARK INTRA:                  -0.240
REMARK UNBOUND:                -0.202
REMARK  Name = 100610997
REMARK  6 active torsions:
REMARK  status: ('A' for Active; 'I' for Inactive)
REMARK    1  A    between atoms: N_2  and  C_12
REMARK    2  A    between atoms: N_2  and  C_13
REMARK    3  A    between atoms: N_3  and  C_11
REMARK    4  A    between atoms: N_3  and  C_14
REMARK    5  A    between atoms: C_5  and  C_7
REMARK    6  A    between atoms: C_11  and  C_15
REMARK                            x       y       z     vdW  Elec       q    Type
REMARK                         _______ _______ _______ _____ _____    ______ ____
ROOT
ATOM      1  N   UNL     1     -17.978  48.892 -13.023  0.00  0.00    +0.000 N 
ATOM      2  N   UNL     1     -17.389  46.874 -14.143  0.00  0.00    +0.000 NA
ATOM      3  C   UNL     1     -17.347  44.797 -12.906  0.00  0.00    +0.000 A 
ATOM      4  C   UNL     1     -17.759  47.493 -12.999  0.00  0.00    +0.000 A 
ATOM      5  C   UNL     1     -17.728  45.468 -11.750  0.00  0.00    +0.000 A 
ATOM      6  C   UNL     1     -17.939  46.843 -11.789  0.00  0.00    +0.000 A 
ATOM      7  C   UNL     1     -17.192  45.539 -14.067  0.00  0.00    +0.000 A 
ATOM      8  C   UNL     1     -18.375  49.586 -11.818  0.00  0.00    +0.000 C 
ATOM      9  C   UNL     1     -17.800  49.636 -14.250  0.00  0.00    +0.000 C 
ENDROOT
BRANCH   3  12
ATOM     10  O   UNL     1     -15.969  42.977 -12.637  0.00  0.00    +0.000 OA
ATOM     11  N   UNL     1     -18.194  42.497 -13.167  0.00  0.00    +0.000 N 
ATOM     12  C   UNL     1     -17.114  43.344 -12.897  0.00  0.00    +0.000 C 
ATOM     13  C   UNL     1     -18.063  41.047 -13.165  0.00  0.00    +0.000 C 
BRANCH  11  14
ATOM     14  C   UNL     1     -19.529  43.011 -13.468  0.00  0.00    +0.000 C 
BRANCH  14  15
ATOM     15  C   UNL     1     -19.759  43.064 -14.912  0.00  0.00    +0.000 C 
ATOM     16  C   UNL     1     -19.945  43.105 -16.097  0.00  0.00    +0.000 C 
ENDBRANCH  14  15
ENDBRANCH  11  14
ENDBRANCH   3  12
TORSDOF 3
ENDMDL
MODEL 5
REMARK VINA RESULT:    -3.933     15.123     16.558
REMARK INTER + INTRA:          -4.825
REMARK INTER:                  -4.520
REMARK INTRA:                  -0.305
REMARK UNBOUND:                -0.202
REMARK  Name = 100610997
REMARK  6 active torsions:
REMARK  status: ('A' for Active; 'I' for Inactive)
REMARK    1  A    between atoms: N_2  and  C_12
REMARK    2  A    between atoms: N_2  and  C_13
REMARK    3  A    between atoms: N_3  and  C_11
REMARK    4  A    between atoms: N_3  and  C_14
REMARK    5  A    between atoms: C_5  and  C_7
REMARK    6  A    between atoms: C_11  and  C_15
REMARK                            x       y       z     vdW  Elec       q    Type
REMARK                         _______ _______ _______ _____ _____    ______ ____
ROOT
ATOM      1  N   UNL     1     -33.405  44.924 -13.014  0.00  0.00    +0.000 N 
ATOM      2  N   UNL     1     -31.731  44.543 -14.666  0.00  0.00    +0.000 NA
ATOM      3  C   UNL     1     -31.961  42.675 -16.183  0.00  0.00    +0.000 A 
ATOM      4  C   UNL     1     -32.899  44.165 -14.098  0.00  0.00    +0.000 A 
ATOM      5  C   UNL     1     -33.159  42.317 -15.574  0.00  0.00    +0.000 A 
ATOM      6  C   UNL     1     -33.643  43.072 -14.510  0.00  0.00    +0.000 A 
ATOM      7  C   UNL     1     -31.292  43.787 -15.696  0.00  0.00    +0.000 A 
ATOM      8  C   UNL     1     -34.651  44.548 -12.384  0.00  0.00    +0.000 C 
ATOM      9  C   UNL     1     -32.676  46.073 -12.527  0.00  0.00    +0.000 C 
ENDROOT
BRANCH   3  12
ATOM     10  O   UNL     1     -30.567  41.056 -17.032  0.00  0.00    +0.000 OA
ATOM     11  N   UNL     1     -31.920  42.152 -18.592  0.00  0.00    +0.000 N 
ATOM     12  C   UNL     1     -31.422  41.897 -17.310  0.00  0.00    +0.000 C 
ATOM     13  C   UNL     1     -31.458  41.422 -19.763  0.00  0.00    +0.000 C 
BRANCH  11  14
ATOM     14  C   UNL     1     -32.939  43.170 -18.842  0.00  0.00    +0.000 C 
BRANCH  14  15
ATOM     15  C   UNL     1     -34.239  42.558 -19.113  0.00  0.00    +0.000 C 
ATOM     16  C   UNL     1     -35.305  42.052 -19.335  0.00  0.00    +0.000 C 
ENDBRANCH  14  15
ENDBRANCH  11  14
ENDBRANCH   3  12
TORSDOF 3
ENDMDL
