MODEL 1
REMARK VINA RESULT:    -6.458      0.000      0.000
REMARK INTER + INTRA:          -9.085
REMARK INTER:                  -8.346
REMARK INTRA:                  -0.739
REMARK UNBOUND:                -0.739
REMARK  Name = 104854617
REMARK  6 active torsions:
REMARK  status: ('A' for Active; 'I' for Inactive)
REMARK    1  A    between atoms: N_5  and  C_8
REMARK    2  A    between atoms: N_5  and  C_12
REMARK    3  A    between atoms: C_8  and  C_9
REMARK    4  A    between atoms: C_8  and  C_10
REMARK    5  A    between atoms: C_9  and  C_11
REMARK    6  A    between atoms: C_13  and  C_15
REMARK                            x       y       z     vdW  Elec       q    Type
REMARK                         _______ _______ _______ _____ _____    ______ ____
ROOT
ATOM      1  N   UNL     1     -18.520  42.362  -8.399  0.00  0.00    +0.000 NA
ATOM      2  C   UNL     1     -18.427  41.679  -9.562  0.00  0.00    +0.000 A 
ATOM      3  C   UNL     1     -19.284  40.656  -9.931  0.00  0.00    +0.000 A 
ATOM      4  C   UNL     1     -20.302  40.310  -9.050  0.00  0.00    +0.000 A 
ATOM      5  C   UNL     1     -20.431  40.988  -7.844  0.00  0.00    +0.000 A 
ATOM      6  C   UNL     1     -19.522  41.997  -7.568  0.00  0.00    +0.000 A 
ENDROOT
BRANCH   3   9
ATOM      7  O   UNL     1     -18.306  39.042 -11.342  0.00  0.00    +0.000 OA
ATOM      8  N   UNL     1     -20.031  40.272 -12.218  0.00  0.00    +0.000 N 
ATOM      9  C   UNL     1     -19.156  39.937 -11.191  0.00  0.00    +0.000 C 
ATOM     10  H   UNL     1     -20.735  40.996 -12.112  0.00  0.00    +0.000 HD
ATOM     11  H   UNL     1     -19.990  39.799 -13.114  0.00  0.00    +0.000 HD
ENDBRANCH   3   9
BRANCH   2  12
ATOM     12  N   UNL     1     -17.409  42.028 -10.431  0.00  0.00    +0.000 N 
ATOM     13  H   UNL     1     -16.598  41.416 -10.458  0.00  0.00    +0.000 HD
BRANCH  12  14
ATOM     14  C   UNL     1     -17.596  42.884 -11.584  0.00  0.00    +0.000 C 
ATOM     15  C   UNL     1     -16.757  42.344 -12.738  0.00  0.00    +0.000 C 
BRANCH  14  16
ATOM     16  C   UNL     1     -17.195  44.324 -11.243  0.00  0.00    +0.000 C 
BRANCH  16  20
ATOM     17  F   UNL     1     -17.079  45.784 -13.089  0.00  0.00    +0.000 F 
ATOM     18  F   UNL     1     -19.013  44.871 -12.674  0.00  0.00    +0.000 F 
ATOM     19  F   UNL     1     -18.243  46.445 -11.368  0.00  0.00    +0.000 F 
ATOM     20  C   UNL     1     -17.897  45.363 -12.097  0.00  0.00    +0.000 C 
ENDBRANCH  16  20
ENDBRANCH  14  16
ENDBRANCH  12  14
ENDBRANCH   2  12
TORSDOF 5
ENDMDL
MODEL 2
REMARK VINA RESULT:    -6.413      1.371      1.817
REMARK INTER + INTRA:          -9.027
REMARK INTER:                  -8.316
REMARK INTRA:                  -0.712
REMARK UNBOUND:                -0.739
REMARK  Name = 104854617
REMARK  6 active torsions:
REMARK  status: ('A' for Active; 'I' for Inactive)
REMARK    1  A    between atoms: N_5  and  C_8
REMARK    2  A    between atoms: N_5  and  C_12
REMARK    3  A    between atoms: C_8  and  C_9
REMARK    4  A    between atoms: C_8  and  C_10
REMARK    5  A    between atoms: C_9  and  C_11
REMARK    6  A    between atoms: C_13  and  C_15
REMARK                            x       y       z     vdW  Elec       q    Type
REMARK                         _______ _______ _______ _____ _____    ______ ____
ROOT
ATOM      1  N   UNL     1     -18.477  42.203  -8.343  0.00  0.00    +0.000 NA
ATOM      2  C   UNL     1     -18.361  41.505  -9.495  0.00  0.00    +0.000 A 
ATOM      3  C   UNL     1     -19.288  40.575  -9.934  0.00  0.00    +0.000 A 
ATOM      4  C   UNL     1     -20.406  40.344  -9.141  0.00  0.00    +0.000 A 
ATOM      5  C   UNL     1     -20.561  41.042  -7.949  0.00  0.00    +0.000 A 
ATOM      6  C   UNL     1     -19.577  41.952  -7.598  0.00  0.00    +0.000 A 
ENDROOT
BRANCH   3   9
ATOM      7  O   UNL     1     -18.260  38.960 -11.308  0.00  0.00    +0.000 OA
ATOM      8  N   UNL     1     -20.009  40.130 -12.219  0.00  0.00    +0.000 N 
ATOM      9  C   UNL     1     -19.132  39.836 -11.180  0.00  0.00    +0.000 C 
ATOM     10  H   UNL     1     -20.731  40.838 -12.130  0.00  0.00    +0.000 HD
ATOM     11  H   UNL     1     -19.949  39.642 -13.106  0.00  0.00    +0.000 HD
ENDBRANCH   3   9
BRANCH   2  12
ATOM     12  N   UNL     1     -17.244  41.738 -10.277  0.00  0.00    +0.000 N 
ATOM     13  H   UNL     1     -16.750  40.922 -10.627  0.00  0.00    +0.000 HD
BRANCH  12  14
ATOM     14  C   UNL     1     -17.006  42.978 -10.987  0.00  0.00    +0.000 C 
ATOM     15  C   UNL     1     -18.108  43.166 -12.026  0.00  0.00    +0.000 C 
BRANCH  14  16
ATOM     16  C   UNL     1     -15.626  42.948 -11.654  0.00  0.00    +0.000 C 
BRANCH  16  20
ATOM     17  F   UNL     1     -15.416  44.328 -13.552  0.00  0.00    +0.000 F 
ATOM     18  F   UNL     1     -15.893  45.310 -11.667  0.00  0.00    +0.000 F 
ATOM     19  F   UNL     1     -13.886  44.517 -12.010  0.00  0.00    +0.000 F 
ATOM     20  C   UNL     1     -15.201  44.291 -12.217  0.00  0.00    +0.000 C 
ENDBRANCH  16  20
ENDBRANCH  14  16
ENDBRANCH  12  14
ENDBRANCH   2  12
TORSDOF 5
ENDMDL
MODEL 3
REMARK VINA RESULT:    -6.057      3.234      5.099
REMARK INTER + INTRA:          -8.567
REMARK INTER:                  -7.796
REMARK INTRA:                  -0.770
REMARK UNBOUND:                -0.739
REMARK  Name = 104854617
REMARK  6 active torsions:
REMARK  status: ('A' for Active; 'I' for Inactive)
REMARK    1  A    between atoms: N_5  and  C_8
REMARK    2  A    between atoms: N_5  and  C_12
REMARK    3  A    between atoms: C_8  and  C_9
REMARK    4  A    between atoms: C_8  and  C_10
REMARK    5  A    between atoms: C_9  and  C_11
REMARK    6  A    between atoms: C_13  and  C_15
REMARK                            x       y       z     vdW  Elec       q    Type
REMARK                         _______ _______ _______ _____ _____    ______ ____
ROOT
ATOM      1  N   UNL     1     -16.696  42.436 -10.912  0.00  0.00    +0.000 NA
ATOM      2  C   UNL     1     -17.781  42.439 -11.720  0.00  0.00    +0.000 A 
ATOM      3  C   UNL     1     -17.834  43.083 -12.944  0.00  0.00    +0.000 A 
ATOM      4  C   UNL     1     -16.702  43.769 -13.369  0.00  0.00    +0.000 A 
ATOM      5  C   UNL     1     -15.567  43.789 -12.567  0.00  0.00    +0.000 A 
ATOM      6  C   UNL     1     -15.615  43.113 -11.359  0.00  0.00    +0.000 A 
ENDROOT
BRANCH   3   9
ATOM      7  O   UNL     1     -19.608  42.012 -14.065  0.00  0.00    +0.000 OA
ATOM      8  N   UNL     1     -19.486  44.292 -14.265  0.00  0.00    +0.000 N 
ATOM      9  C   UNL     1     -19.020  43.071 -13.790  0.00  0.00    +0.000 C 
ATOM     10  H   UNL     1     -19.022  45.168 -14.046  0.00  0.00    +0.000 HD
ATOM     11  H   UNL     1     -20.311  44.343 -14.852  0.00  0.00    +0.000 HD
ENDBRANCH   3   9
BRANCH   2  12
ATOM     12  N   UNL     1     -18.904  41.757 -11.288  0.00  0.00    +0.000 N 
ATOM     13  H   UNL     1     -19.765  41.916 -11.805  0.00  0.00    +0.000 HD
BRANCH  12  14
ATOM     14  C   UNL     1     -18.853  40.545 -10.497  0.00  0.00    +0.000 C 
ATOM     15  C   UNL     1     -18.900  39.344 -11.437  0.00  0.00    +0.000 C 
BRANCH  14  16
ATOM     16  C   UNL     1     -20.023  40.510  -9.507  0.00  0.00    +0.000 C 
BRANCH  16  20
ATOM     17  F   UNL     1     -20.824  41.738  -7.663  0.00  0.00    +0.000 F 
ATOM     18  F   UNL     1     -19.241  40.294  -7.272  0.00  0.00    +0.000 F 
ATOM     19  F   UNL     1     -18.790  42.153  -8.327  0.00  0.00    +0.000 F 
ATOM     20  C   UNL     1     -19.709  41.176  -8.180  0.00  0.00    +0.000 C 
ENDBRANCH  16  20
ENDBRANCH  14  16
ENDBRANCH  12  14
ENDBRANCH   2  12
TORSDOF 5
ENDMDL
MODEL 4
REMARK VINA RESULT:    -6.018      3.578      5.530
REMARK INTER + INTRA:          -8.516
REMARK INTER:                  -8.145
REMARK INTRA:                  -0.371
REMARK UNBOUND:                -0.739
REMARK  Name = 104854617
REMARK  6 active torsions:
REMARK  status: ('A' for Active; 'I' for Inactive)
REMARK    1  A    between atoms: N_5  and  C_8
REMARK    2  A    between atoms: N_5  and  C_12
REMARK    3  A    between atoms: C_8  and  C_9
REMARK    4  A    between atoms: C_8  and  C_10
REMARK    5  A    between atoms: C_9  and  C_11
REMARK    6  A    between atoms: C_13  and  C_15
REMARK                            x       y       z     vdW  Elec       q    Type
REMARK                         _______ _______ _______ _____ _____    ______ ____
ROOT
ATOM      1  N   UNL     1     -19.510  39.380 -10.755  0.00  0.00    +0.000 NA
ATOM      2  C   UNL     1     -18.786  40.440 -10.333  0.00  0.00    +0.000 A 
ATOM      3  C   UNL     1     -17.987  41.212 -11.159  0.00  0.00    +0.000 A 
ATOM      4  C   UNL     1     -17.925  40.875 -12.506  0.00  0.00    +0.000 A 
ATOM      5  C   UNL     1     -18.656  39.791 -12.979  0.00  0.00    +0.000 A 
ATOM      6  C   UNL     1     -19.426  39.082 -12.071  0.00  0.00    +0.000 A 
ENDROOT
BRANCH   3   9
ATOM      7  O   UNL     1     -17.771  43.353 -10.199  0.00  0.00    +0.000 OA
ATOM      8  N   UNL     1     -15.828  42.260 -10.736  0.00  0.00    +0.000 N 
ATOM      9  C   UNL     1     -17.215  42.348 -10.672  0.00  0.00    +0.000 C 
ATOM     10  H   UNL     1     -15.356  41.445 -11.113  0.00  0.00    +0.000 HD
ATOM     11  H   UNL     1     -15.242  43.019 -10.405  0.00  0.00    +0.000 HD
ENDBRANCH   3   9
BRANCH   2  12
ATOM     12  N   UNL     1     -18.849  40.767  -8.990  0.00  0.00    +0.000 N 
ATOM     13  H   UNL     1     -17.977  40.744  -8.470  0.00  0.00    +0.000 HD
BRANCH  12  14
ATOM     14  C   UNL     1     -19.917  41.551  -8.405  0.00  0.00    +0.000 C 
ATOM     15  C   UNL     1     -19.377  42.270  -7.172  0.00  0.00    +0.000 C 
BRANCH  14  16
ATOM     16  C   UNL     1     -21.097  40.644  -8.035  0.00  0.00    +0.000 C 
BRANCH  16  20
ATOM     17  F   UNL     1     -22.072  41.168  -5.955  0.00  0.00    +0.000 F 
ATOM     18  F   UNL     1     -22.166  42.700  -7.501  0.00  0.00    +0.000 F 
ATOM     19  F   UNL     1     -23.419  40.916  -7.652  0.00  0.00    +0.000 F 
ATOM     20  C   UNL     1     -22.200  41.368  -7.287  0.00  0.00    +0.000 C 
ENDBRANCH  16  20
ENDBRANCH  14  16
ENDBRANCH  12  14
ENDBRANCH   2  12
TORSDOF 5
ENDMDL
MODEL 5
REMARK VINA RESULT:    -5.901      1.860      3.015
REMARK INTER + INTRA:          -8.366
REMARK INTER:                  -7.422
REMARK INTRA:                  -0.944
REMARK UNBOUND:                -0.739
REMARK  Name = 104854617
REMARK  6 active torsions:
REMARK  status: ('A' for Active; 'I' for Inactive)
REMARK    1  A    between atoms: N_5  and  C_8
REMARK    2  A    between atoms: N_5  and  C_12
REMARK    3  A    between atoms: C_8  and  C_9
REMARK    4  A    between atoms: C_8  and  C_10
REMARK    5  A    between atoms: C_9  and  C_11
REMARK    6  A    between atoms: C_13  and  C_15
REMARK                            x       y       z     vdW  Elec       q    Type
REMARK                         _______ _______ _______ _____ _____    ______ ____
ROOT
ATOM      1  N   UNL     1     -17.337  40.627 -12.565  0.00  0.00    +0.000 NA
ATOM      2  C   UNL     1     -17.391  41.124 -11.308  0.00  0.00    +0.000 A 
ATOM      3  C   UNL     1     -18.334  40.749 -10.367  0.00  0.00    +0.000 A 
ATOM      4  C   UNL     1     -19.284  39.804 -10.736  0.00  0.00    +0.000 A 
ATOM      5  C   UNL     1     -19.261  39.269 -12.019  0.00  0.00    +0.000 A 
ATOM      6  C   UNL     1     -18.275  39.710 -12.888  0.00  0.00    +0.000 A 
ENDROOT
BRANCH   3   9
ATOM      7  O   UNL     1     -18.159  42.514  -8.816  0.00  0.00    +0.000 OA
ATOM      8  N   UNL     1     -18.665  40.443  -7.972  0.00  0.00    +0.000 N 
ATOM      9  C   UNL     1     -18.369  41.307  -9.021  0.00  0.00    +0.000 C 
ATOM     10  H   UNL     1     -18.844  39.455  -8.122  0.00  0.00    +0.000 HD
ATOM     11  H   UNL     1     -18.708  40.779  -7.016  0.00  0.00    +0.000 HD
ENDBRANCH   3   9
BRANCH   2  12
ATOM     12  N   UNL     1     -16.445  42.067 -10.950  0.00  0.00    +0.000 N 
ATOM     13  H   UNL     1     -15.771  41.796 -10.240  0.00  0.00    +0.000 HD
BRANCH  12  14
ATOM     14  C   UNL     1     -16.065  43.183 -11.792  0.00  0.00    +0.000 C 
ATOM     15  C   UNL     1     -14.650  43.617 -11.420  0.00  0.00    +0.000 C 
BRANCH  14  16
ATOM     16  C   UNL     1     -17.056  44.340 -11.616  0.00  0.00    +0.000 C 
BRANCH  16  20
ATOM     17  F   UNL     1     -17.473  44.343 -13.935  0.00  0.00    +0.000 F 
ATOM     18  F   UNL     1     -18.987  43.429 -12.662  0.00  0.00    +0.000 F 
ATOM     19  F   UNL     1     -18.748  45.601 -12.692  0.00  0.00    +0.000 F 
ATOM     20  C   UNL     1     -18.082  44.428 -12.730  0.00  0.00    +0.000 C 
ENDBRANCH  16  20
ENDBRANCH  14  16
ENDBRANCH  12  14
ENDBRANCH   2  12
TORSDOF 5
ENDMDL
