MODEL 1
REMARK VINA RESULT:    -7.129      0.000      0.000
REMARK INTER + INTRA:          -9.195
REMARK INTER:                  -8.795
REMARK INTRA:                  -0.399
REMARK UNBOUND:                -0.399
REMARK  Name = 105943045
REMARK  5 active torsions:
REMARK  status: ('A' for Active; 'I' for Inactive)
REMARK    1  A    between atoms: N_5  and  C_8
REMARK    2  A    between atoms: C_8  and  C_9
REMARK    3  A    between atoms: C_8  and  C_10
REMARK    4  A    between atoms: C_9  and  C_11
REMARK    5  A    between atoms: C_12  and  C_13
REMARK                            x       y       z     vdW  Elec       q    Type
REMARK                         _______ _______ _______ _____ _____    ______ ____
ROOT
ATOM      1  O   UNL     1     -19.655  39.069 -10.605  0.00  0.00    +0.000 OA
ATOM      2  N   UNL     1     -18.227  40.866 -10.936  0.00  0.00    +0.000 N 
ATOM      3  C   UNL     1     -19.201  40.153 -10.252  0.00  0.00    +0.000 C 
ATOM      4  H   UNL     1     -17.906  41.765 -10.590  0.00  0.00    +0.000 HD
ENDROOT
BRANCH   3   7
ATOM      5  N   UNL     1     -19.327  42.207  -7.098  0.00  0.00    +0.000 NA
ATOM      6  N   UNL     1     -21.101  42.621  -5.561  0.00  0.00    +0.000 N 
ATOM      7  C   UNL     1     -19.725  40.793  -9.018  0.00  0.00    +0.000 A 
ATOM      8  C   UNL     1     -21.043  40.608  -8.618  0.00  0.00    +0.000 A 
ATOM      9  C   UNL     1     -18.915  41.595  -8.230  0.00  0.00    +0.000 A 
ATOM     10  C   UNL     1     -21.505  41.221  -7.458  0.00  0.00    +0.000 A 
ATOM     11  C   UNL     1     -20.615  42.003  -6.740  0.00  0.00    +0.000 A 
ATOM     12  H   UNL     1     -22.087  42.844  -5.504  0.00  0.00    +0.000 HD
ATOM     13  H   UNL     1     -20.449  43.197  -5.042  0.00  0.00    +0.000 HD
ENDBRANCH   3   7
BRANCH   2  14
ATOM     14  C   UNL     1     -17.637  40.390 -12.165  0.00  0.00    +0.000 C 
ATOM     15  C   UNL     1     -16.291  39.735 -11.872  0.00  0.00    +0.000 C 
BRANCH  14  16
ATOM     16  C   UNL     1     -17.479  41.525 -13.183  0.00  0.00    +0.000 C 
BRANCH  16  20
ATOM     17  F   UNL     1     -18.828  42.662 -14.776  0.00  0.00    +0.000 F 
ATOM     18  F   UNL     1     -19.845  41.439 -13.279  0.00  0.00    +0.000 F 
ATOM     19  F   UNL     1     -18.920  43.327 -12.704  0.00  0.00    +0.000 F 
ATOM     20  C   UNL     1     -18.780  42.240 -13.496  0.00  0.00    +0.000 C 
ENDBRANCH  16  20
ENDBRANCH  14  16
ENDBRANCH   2  14
TORSDOF 4
ENDMDL
MODEL 2
REMARK VINA RESULT:    -6.289      2.836      4.167
REMARK INTER + INTRA:          -8.159
REMARK INTER:                  -7.735
REMARK INTRA:                  -0.424
REMARK UNBOUND:                -0.399
REMARK  Name = 105943045
REMARK  5 active torsions:
REMARK  status: ('A' for Active; 'I' for Inactive)
REMARK    1  A    between atoms: N_5  and  C_8
REMARK    2  A    between atoms: C_8  and  C_9
REMARK    3  A    between atoms: C_8  and  C_10
REMARK    4  A    between atoms: C_9  and  C_11
REMARK    5  A    between atoms: C_12  and  C_13
REMARK                            x       y       z     vdW  Elec       q    Type
REMARK                         _______ _______ _______ _____ _____    ______ ____
ROOT
ATOM      1  O   UNL     1     -17.241  41.800 -13.538  0.00  0.00    +0.000 OA
ATOM      2  N   UNL     1     -19.390  42.672 -13.560  0.00  0.00    +0.000 N 
ATOM      3  C   UNL     1     -18.315  42.012 -12.983  0.00  0.00    +0.000 C 
ATOM      4  H   UNL     1     -20.254  42.802 -13.044  0.00  0.00    +0.000 HD
ENDROOT
BRANCH   3   7
ATOM      5  N   UNL     1     -19.387  39.802 -10.128  0.00  0.00    +0.000 NA
ATOM      6  N   UNL     1     -19.160  40.059  -7.769  0.00  0.00    +0.000 N 
ATOM      7  C   UNL     1     -18.527  41.518 -11.597  0.00  0.00    +0.000 A 
ATOM      8  C   UNL     1     -18.094  42.252 -10.500  0.00  0.00    +0.000 A 
ATOM      9  C   UNL     1     -19.162  40.310 -11.360  0.00  0.00    +0.000 A 
ATOM     10  C   UNL     1     -18.306  41.763  -9.216  0.00  0.00    +0.000 A 
ATOM     11  C   UNL     1     -18.952  40.544  -9.084  0.00  0.00    +0.000 A 
ATOM     12  H   UNL     1     -18.510  40.337  -7.044  0.00  0.00    +0.000 HD
ATOM     13  H   UNL     1     -19.627  39.165  -7.678  0.00  0.00    +0.000 HD
ENDBRANCH   3   7
BRANCH   2  14
ATOM     14  C   UNL     1     -19.349  43.188 -14.907  0.00  0.00    +0.000 C 
ATOM     15  C   UNL     1     -18.890  44.644 -14.890  0.00  0.00    +0.000 C 
BRANCH  14  16
ATOM     16  C   UNL     1     -20.714  43.059 -15.595  0.00  0.00    +0.000 C 
BRANCH  16  20
ATOM     17  F   UNL     1     -21.398  42.096 -17.658  0.00  0.00    +0.000 F 
ATOM     18  F   UNL     1     -21.013  44.246 -17.624  0.00  0.00    +0.000 F 
ATOM     19  F   UNL     1     -19.354  42.836 -17.507  0.00  0.00    +0.000 F 
ATOM     20  C   UNL     1     -20.628  43.059 -17.110  0.00  0.00    +0.000 C 
ENDBRANCH  16  20
ENDBRANCH  14  16
ENDBRANCH   2  14
TORSDOF 4
ENDMDL
MODEL 3
REMARK VINA RESULT:    -6.230      3.655      6.131
REMARK INTER + INTRA:          -8.086
REMARK INTER:                  -7.757
REMARK INTRA:                  -0.329
REMARK UNBOUND:                -0.399
REMARK  Name = 105943045
REMARK  5 active torsions:
REMARK  status: ('A' for Active; 'I' for Inactive)
REMARK    1  A    between atoms: N_5  and  C_8
REMARK    2  A    between atoms: C_8  and  C_9
REMARK    3  A    between atoms: C_8  and  C_10
REMARK    4  A    between atoms: C_9  and  C_11
REMARK    5  A    between atoms: C_12  and  C_13
REMARK                            x       y       z     vdW  Elec       q    Type
REMARK                         _______ _______ _______ _____ _____    ______ ____
ROOT
ATOM      1  O   UNL     1     -17.537  40.304  -9.407  0.00  0.00    +0.000 OA
ATOM      2  N   UNL     1     -19.576  41.408  -9.449  0.00  0.00    +0.000 N 
ATOM      3  C   UNL     1     -18.274  41.172  -9.866  0.00  0.00    +0.000 C 
ATOM      4  H   UNL     1     -20.125  42.152  -9.866  0.00  0.00    +0.000 HD
ENDROOT
BRANCH   3   7
ATOM      5  N   UNL     1     -16.976  42.343 -13.201  0.00  0.00    +0.000 NA
ATOM      6  N   UNL     1     -16.330  44.507 -13.965  0.00  0.00    +0.000 N 
ATOM      7  C   UNL     1     -17.762  42.072 -10.932  0.00  0.00    +0.000 A 
ATOM      8  C   UNL     1     -17.587  43.431 -10.700  0.00  0.00    +0.000 A 
ATOM      9  C   UNL     1     -17.444  41.582 -12.188  0.00  0.00    +0.000 A 
ATOM     10  C   UNL     1     -17.107  44.248 -11.717  0.00  0.00    +0.000 A 
ATOM     11  C   UNL     1     -16.818  43.660 -12.939  0.00  0.00    +0.000 A 
ATOM     12  H   UNL     1     -16.600  45.482 -13.956  0.00  0.00    +0.000 HD
ATOM     13  H   UNL     1     -16.126  44.074 -14.859  0.00  0.00    +0.000 HD
ENDBRANCH   3   7
BRANCH   2  14
ATOM     14  C   UNL     1     -20.207  40.636  -8.405  0.00  0.00    +0.000 C 
ATOM     15  C   UNL     1     -20.678  39.297  -8.966  0.00  0.00    +0.000 C 
BRANCH  14  16
ATOM     16  C   UNL     1     -21.377  41.402  -7.775  0.00  0.00    +0.000 C 
BRANCH  16  20
ATOM     17  F   UNL     1     -21.224  41.583  -5.410  0.00  0.00    +0.000 F 
ATOM     18  F   UNL     1     -19.661  42.539  -6.600  0.00  0.00    +0.000 F 
ATOM     19  F   UNL     1     -21.667  43.390  -6.543  0.00  0.00    +0.000 F 
ATOM     20  C   UNL     1     -20.975  42.229  -6.568  0.00  0.00    +0.000 C 
ENDBRANCH  16  20
ENDBRANCH  14  16
ENDBRANCH   2  14
TORSDOF 4
ENDMDL
MODEL 4
REMARK VINA RESULT:    -6.055      3.762      5.456
REMARK INTER + INTRA:          -7.870
REMARK INTER:                  -7.311
REMARK INTRA:                  -0.559
REMARK UNBOUND:                -0.399
REMARK  Name = 105943045
REMARK  5 active torsions:
REMARK  status: ('A' for Active; 'I' for Inactive)
REMARK    1  A    between atoms: N_5  and  C_8
REMARK    2  A    between atoms: C_8  and  C_9
REMARK    3  A    between atoms: C_8  and  C_10
REMARK    4  A    between atoms: C_9  and  C_11
REMARK    5  A    between atoms: C_12  and  C_13
REMARK                            x       y       z     vdW  Elec       q    Type
REMARK                         _______ _______ _______ _____ _____    ______ ____
ROOT
ATOM      1  O   UNL     1     -18.576  44.518 -14.497  0.00  0.00    +0.000 OA
ATOM      2  N   UNL     1     -20.271  42.979 -14.868  0.00  0.00    +0.000 N 
ATOM      3  C   UNL     1     -19.213  43.525 -14.156  0.00  0.00    +0.000 C 
ATOM      4  H   UNL     1     -20.746  42.148 -14.532  0.00  0.00    +0.000 HD
ENDROOT
BRANCH   3   7
ATOM      5  N   UNL     1     -19.116  40.896 -11.462  0.00  0.00    +0.000 NA
ATOM      6  N   UNL     1     -17.850  40.755  -9.448  0.00  0.00    +0.000 N 
ATOM      7  C   UNL     1     -18.837  42.813 -12.908  0.00  0.00    +0.000 A 
ATOM      8  C   UNL     1     -17.898  43.347 -12.033  0.00  0.00    +0.000 A 
ATOM      9  C   UNL     1     -19.412  41.596 -12.580  0.00  0.00    +0.000 A 
ATOM     10  C   UNL     1     -17.567  42.656 -10.872  0.00  0.00    +0.000 A 
ATOM     11  C   UNL     1     -18.199  41.446 -10.635  0.00  0.00    +0.000 A 
ATOM     12  H   UNL     1     -16.924  40.894  -9.063  0.00  0.00    +0.000 HD
ATOM     13  H   UNL     1     -18.310  39.867  -9.281  0.00  0.00    +0.000 HD
ENDBRANCH   3   7
BRANCH   2  14
ATOM     14  C   UNL     1     -20.739  43.541 -16.114  0.00  0.00    +0.000 C 
ATOM     15  C   UNL     1     -22.264  43.507 -16.156  0.00  0.00    +0.000 C 
BRANCH  14  16
ATOM     16  C   UNL     1     -20.146  42.797 -17.317  0.00  0.00    +0.000 C 
BRANCH  16  20
ATOM     17  F   UNL     1     -18.363  43.050 -18.869  0.00  0.00    +0.000 F 
ATOM     18  F   UNL     1     -20.184  44.203 -19.225  0.00  0.00    +0.000 F 
ATOM     19  F   UNL     1     -18.848  44.745 -17.590  0.00  0.00    +0.000 F 
ATOM     20  C   UNL     1     -19.379  43.700 -18.265  0.00  0.00    +0.000 C 
ENDBRANCH  16  20
ENDBRANCH  14  16
ENDBRANCH   2  14
TORSDOF 4
ENDMDL
MODEL 5
REMARK VINA RESULT:    -5.891      3.817      5.986
REMARK INTER + INTRA:          -7.667
REMARK INTER:                  -7.203
REMARK INTRA:                  -0.464
REMARK UNBOUND:                -0.399
REMARK  Name = 105943045
REMARK  5 active torsions:
REMARK  status: ('A' for Active; 'I' for Inactive)
REMARK    1  A    between atoms: N_5  and  C_8
REMARK    2  A    between atoms: C_8  and  C_9
REMARK    3  A    between atoms: C_8  and  C_10
REMARK    4  A    between atoms: C_9  and  C_11
REMARK    5  A    between atoms: C_12  and  C_13
REMARK                            x       y       z     vdW  Elec       q    Type
REMARK                         _______ _______ _______ _____ _____    ______ ____
ROOT
ATOM      1  O   UNL     1     -16.714  42.343 -10.928  0.00  0.00    +0.000 OA
ATOM      2  N   UNL     1     -18.911  41.715 -11.329  0.00  0.00    +0.000 N 
ATOM      3  C   UNL     1     -17.802  42.539 -11.462  0.00  0.00    +0.000 C 
ATOM      4  H   UNL     1     -19.784  41.945 -11.791  0.00  0.00    +0.000 HD
ENDROOT
BRANCH   3   7
ATOM      5  N   UNL     1     -18.535  44.705 -14.454  0.00  0.00    +0.000 NA
ATOM      6  N   UNL     1     -18.549  47.074 -14.715  0.00  0.00    +0.000 N 
ATOM      7  C   UNL     1     -17.993  43.750 -12.300  0.00  0.00    +0.000 A 
ATOM      8  C   UNL     1     -17.826  45.024 -11.769  0.00  0.00    +0.000 A 
ATOM      9  C   UNL     1     -18.345  43.646 -13.636  0.00  0.00    +0.000 A 
ATOM     10  C   UNL     1     -18.012  46.139 -12.579  0.00  0.00    +0.000 A 
ATOM     11  C   UNL     1     -18.362  45.927 -13.903  0.00  0.00    +0.000 A 
ATOM     12  H   UNL     1     -18.846  47.934 -14.273  0.00  0.00    +0.000 HD
ATOM     13  H   UNL     1     -18.811  46.915 -15.680  0.00  0.00    +0.000 HD
ENDBRANCH   3   7
BRANCH   2  14
ATOM     14  C   UNL     1     -18.892  40.514 -10.528  0.00  0.00    +0.000 C 
ATOM     15  C   UNL     1     -19.016  39.288 -11.429  0.00  0.00    +0.000 C 
BRANCH  14  16
ATOM     16  C   UNL     1     -20.007  40.529  -9.476  0.00  0.00    +0.000 C 
BRANCH  16  20
ATOM     17  F   UNL     1     -18.646  42.108  -8.334  0.00  0.00    +0.000 F 
ATOM     18  F   UNL     1     -20.637  41.718  -7.524  0.00  0.00    +0.000 F 
ATOM     19  F   UNL     1     -19.066  40.217  -7.337  0.00  0.00    +0.000 F 
ATOM     20  C   UNL     1     -19.586  41.156  -8.160  0.00  0.00    +0.000 C 
ENDBRANCH  16  20
ENDBRANCH  14  16
ENDBRANCH   2  14
TORSDOF 4
ENDMDL
