MODEL 1
REMARK VINA RESULT:    -6.559      0.000      0.000
REMARK INTER + INTRA:          -9.165
REMARK INTER:                  -8.285
REMARK INTRA:                  -0.880
REMARK UNBOUND:                -0.880
REMARK  Name = 105943000
REMARK  6 active torsions:
REMARK  status: ('A' for Active; 'I' for Inactive)
REMARK    1  A    between atoms: N_5  and  C_8
REMARK    2  A    between atoms: N_7  and  C_14
REMARK    3  A    between atoms: C_8  and  C_9
REMARK    4  A    between atoms: C_8  and  C_10
REMARK    5  A    between atoms: C_9  and  C_11
REMARK    6  A    between atoms: C_12  and  C_13
REMARK                            x       y       z     vdW  Elec       q    Type
REMARK                         _______ _______ _______ _____ _____    ______ ____
ROOT
ATOM      1  O   UNL     1     -17.708  40.418  -8.638  0.00  0.00    +0.000 OA
ATOM      2  N   UNL     1     -18.374  42.106 -10.083  0.00  0.00    +0.000 N 
ATOM      3  C   UNL     1     -18.535  41.247  -9.006  0.00  0.00    +0.000 C 
ATOM      4  H   UNL     1     -19.095  42.793 -10.282  0.00  0.00    +0.000 HD
ENDROOT
BRANCH   3   6
ATOM      5  N   UNL     1     -22.090  40.584  -7.898  0.00  0.00    +0.000 NA
ATOM      6  C   UNL     1     -19.829  41.351  -8.283  0.00  0.00    +0.000 A 
ATOM      7  C   UNL     1     -20.901  40.511  -8.538  0.00  0.00    +0.000 A 
ATOM      8  C   UNL     1     -19.987  42.329  -7.307  0.00  0.00    +0.000 A 
ATOM      9  C   UNL     1     -21.195  42.436  -6.627  0.00  0.00    +0.000 A 
ATOM     10  C   UNL     1     -22.206  41.548  -6.957  0.00  0.00    +0.000 A 
BRANCH   7  11
ATOM     11  N   UNL     1     -20.748  39.512  -9.533  0.00  0.00    +0.000 N 
ATOM     12  H   UNL     1     -21.452  38.787  -9.605  0.00  0.00    +0.000 HD
ATOM     13  H   UNL     1     -19.799  39.273  -9.790  0.00  0.00    +0.000 HD
ENDBRANCH   7  11
ENDBRANCH   3   6
BRANCH   2  14
ATOM     14  C   UNL     1     -17.183  42.108 -10.899  0.00  0.00    +0.000 C 
ATOM     15  C   UNL     1     -16.702  43.540 -11.111  0.00  0.00    +0.000 C 
BRANCH  14  16
ATOM     16  C   UNL     1     -17.429  41.413 -12.245  0.00  0.00    +0.000 C 
BRANCH  16  20
ATOM     17  F   UNL     1     -18.171  39.221 -11.698  0.00  0.00    +0.000 F 
ATOM     18  F   UNL     1     -16.890  39.448 -13.455  0.00  0.00    +0.000 F 
ATOM     19  F   UNL     1     -16.053  39.670 -11.454  0.00  0.00    +0.000 F 
ATOM     20  C   UNL     1     -17.141  39.923 -12.216  0.00  0.00    +0.000 C 
ENDBRANCH  16  20
ENDBRANCH  14  16
ENDBRANCH   2  14
TORSDOF 5
ENDMDL
MODEL 2
REMARK VINA RESULT:    -6.046      3.424      5.828
REMARK INTER + INTRA:          -8.517
REMARK INTER:                  -8.170
REMARK INTRA:                  -0.347
REMARK UNBOUND:                -0.880
REMARK  Name = 105943000
REMARK  6 active torsions:
REMARK  status: ('A' for Active; 'I' for Inactive)
REMARK    1  A    between atoms: N_5  and  C_8
REMARK    2  A    between atoms: N_7  and  C_14
REMARK    3  A    between atoms: C_8  and  C_9
REMARK    4  A    between atoms: C_8  and  C_10
REMARK    5  A    between atoms: C_9  and  C_11
REMARK    6  A    between atoms: C_12  and  C_13
REMARK                            x       y       z     vdW  Elec       q    Type
REMARK                         _______ _______ _______ _____ _____    ______ ____
ROOT
ATOM      1  O   UNL     1     -17.861  40.442  -9.746  0.00  0.00    +0.000 OA
ATOM      2  N   UNL     1     -20.063  41.167  -9.708  0.00  0.00    +0.000 N 
ATOM      3  C   UNL     1     -18.792  41.063 -10.251  0.00  0.00    +0.000 C 
ATOM      4  H   UNL     1     -20.784  41.664 -10.225  0.00  0.00    +0.000 HD
ENDROOT
BRANCH   3   6
ATOM      5  N   UNL     1     -18.906  42.000 -13.913  0.00  0.00    +0.000 NA
ATOM      6  C   UNL     1     -18.570  41.791 -11.528  0.00  0.00    +0.000 A 
ATOM      7  C   UNL     1     -19.093  41.361 -12.737  0.00  0.00    +0.000 A 
ATOM      8  C   UNL     1     -17.806  42.952 -11.525  0.00  0.00    +0.000 A 
ATOM      9  C   UNL     1     -17.591  43.638 -12.715  0.00  0.00    +0.000 A 
ATOM     10  C   UNL     1     -18.157  43.126 -13.871  0.00  0.00    +0.000 A 
BRANCH   7  11
ATOM     11  N   UNL     1     -19.871  40.176 -12.747  0.00  0.00    +0.000 N 
ATOM     12  H   UNL     1     -20.176  39.804 -13.638  0.00  0.00    +0.000 HD
ATOM     13  H   UNL     1     -20.468  40.020 -11.945  0.00  0.00    +0.000 HD
ENDBRANCH   7  11
ENDBRANCH   3   6
BRANCH   2  14
ATOM     14  C   UNL     1     -20.427  40.537  -8.461  0.00  0.00    +0.000 C 
ATOM     15  C   UNL     1     -20.832  39.088  -8.710  0.00  0.00    +0.000 C 
BRANCH  14  16
ATOM     16  C   UNL     1     -21.556  41.303  -7.758  0.00  0.00    +0.000 C 
BRANCH  16  20
ATOM     17  F   UNL     1     -21.160  41.671  -5.443  0.00  0.00    +0.000 F 
ATOM     18  F   UNL     1     -19.777  42.588  -6.865  0.00  0.00    +0.000 F 
ATOM     19  F   UNL     1     -21.801  43.368  -6.649  0.00  0.00    +0.000 F 
ATOM     20  C   UNL     1     -21.065  42.234  -6.665  0.00  0.00    +0.000 C 
ENDBRANCH  16  20
ENDBRANCH  14  16
ENDBRANCH   2  14
TORSDOF 5
ENDMDL
MODEL 3
REMARK VINA RESULT:    -5.651      2.209      2.573
REMARK INTER + INTRA:          -8.017
REMARK INTER:                  -7.672
REMARK INTRA:                  -0.345
REMARK UNBOUND:                -0.880
REMARK  Name = 105943000
REMARK  6 active torsions:
REMARK  status: ('A' for Active; 'I' for Inactive)
REMARK    1  A    between atoms: N_5  and  C_8
REMARK    2  A    between atoms: N_7  and  C_14
REMARK    3  A    between atoms: C_8  and  C_9
REMARK    4  A    between atoms: C_8  and  C_10
REMARK    5  A    between atoms: C_9  and  C_11
REMARK    6  A    between atoms: C_12  and  C_13
REMARK                            x       y       z     vdW  Elec       q    Type
REMARK                         _______ _______ _______ _____ _____    ______ ____
ROOT
ATOM      1  O   UNL     1     -17.052  40.503 -10.609  0.00  0.00    +0.000 OA
ATOM      2  N   UNL     1     -17.799  42.651 -11.063  0.00  0.00    +0.000 N 
ATOM      3  C   UNL     1     -17.822  41.436 -10.397  0.00  0.00    +0.000 C 
ATOM      4  H   UNL     1     -18.447  43.382 -10.784  0.00  0.00    +0.000 HD
ENDROOT
BRANCH   3   6
ATOM      5  N   UNL     1     -20.901  40.197  -8.585  0.00  0.00    +0.000 NA
ATOM      6  C   UNL     1     -18.887  41.278  -9.373  0.00  0.00    +0.000 A 
ATOM      7  C   UNL     1     -19.919  40.361  -9.498  0.00  0.00    +0.000 A 
ATOM      8  C   UNL     1     -18.863  42.078  -8.236  0.00  0.00    +0.000 A 
ATOM      9  C   UNL     1     -19.857  41.940  -7.274  0.00  0.00    +0.000 A 
ATOM     10  C   UNL     1     -20.845  40.994  -7.493  0.00  0.00    +0.000 A 
BRANCH   7  11
ATOM     11  N   UNL     1     -19.951  39.542 -10.655  0.00  0.00    +0.000 N 
ATOM     12  H   UNL     1     -20.599  38.764 -10.681  0.00  0.00    +0.000 HD
ATOM     13  H   UNL     1     -19.082  39.446 -11.165  0.00  0.00    +0.000 HD
ENDBRANCH   7  11
ENDBRANCH   3   6
BRANCH   2  14
ATOM     14  C   UNL     1     -16.840  42.947 -12.102  0.00  0.00    +0.000 C 
ATOM     15  C   UNL     1     -16.492  44.432 -12.078  0.00  0.00    +0.000 C 
BRANCH  14  16
ATOM     16  C   UNL     1     -17.369  42.535 -13.482  0.00  0.00    +0.000 C 
BRANCH  16  20
ATOM     17  F   UNL     1     -19.609  41.856 -13.065  0.00  0.00    +0.000 F 
ATOM     18  F   UNL     1     -19.202  44.001 -13.156  0.00  0.00    +0.000 F 
ATOM     19  F   UNL     1     -19.171  42.803 -14.977  0.00  0.00    +0.000 F 
ATOM     20  C   UNL     1     -18.853  42.799 -13.663  0.00  0.00    +0.000 C 
ENDBRANCH  16  20
ENDBRANCH  14  16
ENDBRANCH   2  14
TORSDOF 5
ENDMDL
MODEL 4
REMARK VINA RESULT:    -5.623      2.806      3.415
REMARK INTER + INTRA:          -7.982
REMARK INTER:                  -8.301
REMARK INTRA:                   0.320
REMARK UNBOUND:                -0.880
REMARK  Name = 105943000
REMARK  6 active torsions:
REMARK  status: ('A' for Active; 'I' for Inactive)
REMARK    1  A    between atoms: N_5  and  C_8
REMARK    2  A    between atoms: N_7  and  C_14
REMARK    3  A    between atoms: C_8  and  C_9
REMARK    4  A    between atoms: C_8  and  C_10
REMARK    5  A    between atoms: C_9  and  C_11
REMARK    6  A    between atoms: C_12  and  C_13
REMARK                            x       y       z     vdW  Elec       q    Type
REMARK                         _______ _______ _______ _____ _____    ______ ____
ROOT
ATOM      1  O   UNL     1     -19.269  39.177 -10.850  0.00  0.00    +0.000 OA
ATOM      2  N   UNL     1     -18.828  41.335 -11.575  0.00  0.00    +0.000 N 
ATOM      3  C   UNL     1     -19.215  40.386 -10.642  0.00  0.00    +0.000 C 
ATOM      4  H   UNL     1     -18.767  42.310 -11.295  0.00  0.00    +0.000 HD
ENDROOT
BRANCH   3   6
ATOM      5  N   UNL     1     -19.150  42.281  -7.370  0.00  0.00    +0.000 NA
ATOM      6  C   UNL     1     -19.608  40.911  -9.308  0.00  0.00    +0.000 A 
ATOM      7  C   UNL     1     -18.818  41.790  -8.585  0.00  0.00    +0.000 A 
ATOM      8  C   UNL     1     -20.816  40.510  -8.748  0.00  0.00    +0.000 A 
ATOM      9  C   UNL     1     -21.192  40.994  -7.500  0.00  0.00    +0.000 A 
ATOM     10  C   UNL     1     -20.331  41.869  -6.858  0.00  0.00    +0.000 A 
BRANCH   7  11
ATOM     11  N   UNL     1     -17.584  42.202  -9.149  0.00  0.00    +0.000 N 
ATOM     12  H   UNL     1     -17.393  43.193  -9.226  0.00  0.00    +0.000 HD
ATOM     13  H   UNL     1     -17.179  41.590  -9.845  0.00  0.00    +0.000 HD
ENDBRANCH   7  11
ENDBRANCH   3   6
BRANCH   2  14
ATOM     14  C   UNL     1     -18.440  40.984 -12.921  0.00  0.00    +0.000 C 
ATOM     15  C   UNL     1     -17.272  40.004 -12.886  0.00  0.00    +0.000 C 
BRANCH  14  16
ATOM     16  C   UNL     1     -18.078  42.231 -13.740  0.00  0.00    +0.000 C 
BRANCH  16  20
ATOM     17  F   UNL     1     -20.427  42.394 -14.068  0.00  0.00    +0.000 F 
ATOM     18  F   UNL     1     -19.402  44.123 -13.212  0.00  0.00    +0.000 F 
ATOM     19  F   UNL     1     -19.136  43.625 -15.318  0.00  0.00    +0.000 F 
ATOM     20  C   UNL     1     -19.277  43.097 -14.081  0.00  0.00    +0.000 C 
ENDBRANCH  16  20
ENDBRANCH  14  16
ENDBRANCH   2  14
TORSDOF 5
ENDMDL
MODEL 5
REMARK VINA RESULT:    -5.485      5.115      6.566
REMARK INTER + INTRA:          -7.808
REMARK INTER:                  -7.074
REMARK INTRA:                  -0.735
REMARK UNBOUND:                -0.880
REMARK  Name = 105943000
REMARK  6 active torsions:
REMARK  status: ('A' for Active; 'I' for Inactive)
REMARK    1  A    between atoms: N_5  and  C_8
REMARK    2  A    between atoms: N_7  and  C_14
REMARK    3  A    between atoms: C_8  and  C_9
REMARK    4  A    between atoms: C_8  and  C_10
REMARK    5  A    between atoms: C_9  and  C_11
REMARK    6  A    between atoms: C_12  and  C_13
REMARK                            x       y       z     vdW  Elec       q    Type
REMARK                         _______ _______ _______ _____ _____    ______ ____
ROOT
ATOM      1  O   UNL     1     -18.769  43.936 -13.660  0.00  0.00    +0.000 OA
ATOM      2  N   UNL     1     -19.849  42.392 -15.011  0.00  0.00    +0.000 N 
ATOM      3  C   UNL     1     -19.094  42.780 -13.916  0.00  0.00    +0.000 C 
ATOM      4  H   UNL     1     -20.109  41.415 -15.114  0.00  0.00    +0.000 HD
ENDROOT
BRANCH   3   6
ATOM      5  N   UNL     1     -16.867  40.491 -11.889  0.00  0.00    +0.000 NA
ATOM      6  C   UNL     1     -18.640  41.684 -13.020  0.00  0.00    +0.000 A 
ATOM      7  C   UNL     1     -17.308  41.480 -12.698  0.00  0.00    +0.000 A 
ATOM      8  C   UNL     1     -19.581  40.816 -12.476  0.00  0.00    +0.000 A 
ATOM      9  C   UNL     1     -19.167  39.786 -11.639  0.00  0.00    +0.000 A 
ATOM     10  C   UNL     1     -17.811  39.667 -11.379  0.00  0.00    +0.000 A 
BRANCH   7  11
ATOM     11  N   UNL     1     -16.343  42.360 -13.250  0.00  0.00    +0.000 N 
ATOM     12  H   UNL     1     -16.559  42.835 -14.118  0.00  0.00    +0.000 HD
ATOM     13  H   UNL     1     -15.373  42.139 -13.065  0.00  0.00    +0.000 HD
ENDBRANCH   7  11
ENDBRANCH   3   6
BRANCH   2  14
ATOM     14  C   UNL     1     -20.342  43.337 -15.986  0.00  0.00    +0.000 C 
ATOM     15  C   UNL     1     -21.856  43.468 -15.862  0.00  0.00    +0.000 C 
BRANCH  14  16
ATOM     16  C   UNL     1     -19.947  42.925 -17.411  0.00  0.00    +0.000 C 
BRANCH  16  20
ATOM     17  F   UNL     1     -18.315  43.634 -18.987  0.00  0.00    +0.000 F 
ATOM     18  F   UNL     1     -20.261  44.628 -19.027  0.00  0.00    +0.000 F 
ATOM     19  F   UNL     1     -18.866  45.018 -17.398  0.00  0.00    +0.000 F 
ATOM     20  C   UNL     1     -19.341  44.056 -18.220  0.00  0.00    +0.000 C 
ENDBRANCH  16  20
ENDBRANCH  14  16
ENDBRANCH   2  14
TORSDOF 5
ENDMDL
