MODEL 1
REMARK VINA RESULT:    -6.954      0.000      0.000
REMARK INTER + INTRA:          -8.014
REMARK INTER:                  -8.174
REMARK INTRA:                   0.160
REMARK UNBOUND:                 0.160
REMARK  Name = 106214824
REMARK  3 active torsions:
REMARK  status: ('A' for Active; 'I' for Inactive)
REMARK    1  A    between atoms: N_5  and  C_8
REMARK    2  A    between atoms: C_8  and  C_11
REMARK    3  A    between atoms: C_16  and  C_17
REMARK                            x       y       z     vdW  Elec       q    Type
REMARK                         _______ _______ _______ _____ _____    ______ ____
ROOT
ATOM      1  N   UNL     1     -17.775  41.493  -9.902  0.00  0.00    +0.000 N 
ATOM      2  N   UNL     1     -20.065  41.002  -9.531  0.00  0.00    +0.000 NA
ATOM      3  C   UNL     1     -18.917  41.566  -9.089  0.00  0.00    +0.000 A 
ATOM      4  C   UNL     1     -18.790  42.217  -7.874  0.00  0.00    +0.000 A 
ATOM      5  C   UNL     1     -19.914  42.297  -7.057  0.00  0.00    +0.000 A 
ATOM      6  C   UNL     1     -21.135  41.100  -8.710  0.00  0.00    +0.000 A 
ATOM      7  C   UNL     1     -21.112  41.730  -7.476  0.00  0.00    +0.000 A 
ATOM      8  H   UNL     1     -16.895  41.732  -9.454  0.00  0.00    +0.000 HD
ENDROOT
BRANCH   7  11
ATOM      9  O   UNL     1     -23.227  40.972  -6.770  0.00  0.00    +0.000 OA
ATOM     10  N   UNL     1     -22.373  42.807  -5.691  0.00  0.00    +0.000 N 
ATOM     11  C   UNL     1     -22.302  41.797  -6.647  0.00  0.00    +0.000 C 
ATOM     12  H   UNL     1     -21.666  43.511  -5.526  0.00  0.00    +0.000 HD
ATOM     13  H   UNL     1     -23.192  42.873  -5.095  0.00  0.00    +0.000 HD
ENDBRANCH   7  11
BRANCH   1  14
ATOM     14  C   UNL     1     -17.744  40.832 -11.212  0.00  0.00    +0.000 C 
ATOM     15  C   UNL     1     -16.737  39.729 -11.450  0.00  0.00    +0.000 C 
ATOM     16  C   UNL     1     -18.191  39.391 -11.314  0.00  0.00    +0.000 C 
BRANCH  14  20
ATOM     17  F   UNL     1     -18.330  42.979 -11.909  0.00  0.00    +0.000 F 
ATOM     18  F   UNL     1     -17.018  41.802 -13.206  0.00  0.00    +0.000 F 
ATOM     19  F   UNL     1     -19.135  41.282 -13.028  0.00  0.00    +0.000 F 
ATOM     20  C   UNL     1     -18.063  41.743 -12.364  0.00  0.00    +0.000 C 
ENDBRANCH  14  20
ENDBRANCH   1  14
TORSDOF 3
ENDMDL
MODEL 2
REMARK VINA RESULT:    -6.202      1.680      2.144
REMARK INTER + INTRA:          -7.130
REMARK INTER:                  -7.503
REMARK INTRA:                   0.373
REMARK UNBOUND:                 0.160
REMARK  Name = 106214824
REMARK  3 active torsions:
REMARK  status: ('A' for Active; 'I' for Inactive)
REMARK    1  A    between atoms: N_5  and  C_8
REMARK    2  A    between atoms: C_8  and  C_11
REMARK    3  A    between atoms: C_16  and  C_17
REMARK                            x       y       z     vdW  Elec       q    Type
REMARK                         _______ _______ _______ _____ _____    ______ ____
ROOT
ATOM      1  N   UNL     1     -17.644  41.776 -10.622  0.00  0.00    +0.000 N 
ATOM      2  N   UNL     1     -19.776  40.996  -9.940  0.00  0.00    +0.000 NA
ATOM      3  C   UNL     1     -18.650  41.684  -9.647  0.00  0.00    +0.000 A 
ATOM      4  C   UNL     1     -18.417  42.312  -8.435  0.00  0.00    +0.000 A 
ATOM      5  C   UNL     1     -19.405  42.230  -7.459  0.00  0.00    +0.000 A 
ATOM      6  C   UNL     1     -20.714  40.937  -8.967  0.00  0.00    +0.000 A 
ATOM      7  C   UNL     1     -20.577  41.531  -7.722  0.00  0.00    +0.000 A 
ATOM      8  H   UNL     1     -16.740  42.109 -10.299  0.00  0.00    +0.000 HD
ENDROOT
BRANCH   7  11
ATOM      9  O   UNL     1     -21.404  41.652  -5.520  0.00  0.00    +0.000 OA
ATOM     10  N   UNL     1     -22.905  41.082  -7.159  0.00  0.00    +0.000 N 
ATOM     11  C   UNL     1     -21.627  41.427  -6.724  0.00  0.00    +0.000 C 
ATOM     12  H   UNL     1     -23.168  40.888  -8.116  0.00  0.00    +0.000 HD
ATOM     13  H   UNL     1     -23.659  41.008  -6.483  0.00  0.00    +0.000 HD
ENDBRANCH   7  11
BRANCH   1  14
ATOM     14  C   UNL     1     -17.734  41.161 -11.951  0.00  0.00    +0.000 C 
ATOM     15  C   UNL     1     -18.838  41.600 -12.887  0.00  0.00    +0.000 C 
ATOM     16  C   UNL     1     -17.422  42.002 -13.169  0.00  0.00    +0.000 C 
BRANCH  14  20
ATOM     17  F   UNL     1     -16.269  39.517 -11.183  0.00  0.00    +0.000 F 
ATOM     18  F   UNL     1     -18.347  38.944 -11.558  0.00  0.00    +0.000 F 
ATOM     19  F   UNL     1     -17.005  39.356 -13.235  0.00  0.00    +0.000 F 
ATOM     20  C   UNL     1     -17.330  39.713 -11.983  0.00  0.00    +0.000 C 
ENDBRANCH  14  20
ENDBRANCH   1  14
TORSDOF 3
ENDMDL
MODEL 3
REMARK VINA RESULT:    -5.754      3.945      6.043
REMARK INTER + INTRA:          -6.604
REMARK INTER:                  -6.848
REMARK INTRA:                   0.245
REMARK UNBOUND:                 0.160
REMARK  Name = 106214824
REMARK  3 active torsions:
REMARK  status: ('A' for Active; 'I' for Inactive)
REMARK    1  A    between atoms: N_5  and  C_8
REMARK    2  A    between atoms: C_8  and  C_11
REMARK    3  A    between atoms: C_16  and  C_17
REMARK                            x       y       z     vdW  Elec       q    Type
REMARK                         _______ _______ _______ _____ _____    ______ ____
ROOT
ATOM      1  N   UNL     1     -17.147  41.153 -10.190  0.00  0.00    +0.000 N 
ATOM      2  N   UNL     1     -18.013  42.955 -11.464  0.00  0.00    +0.000 NA
ATOM      3  C   UNL     1     -16.951  42.200 -11.105  0.00  0.00    +0.000 A 
ATOM      4  C   UNL     1     -15.666  42.390 -11.585  0.00  0.00    +0.000 A 
ATOM      5  C   UNL     1     -15.456  43.422 -12.493  0.00  0.00    +0.000 A 
ATOM      6  C   UNL     1     -17.771  43.950 -12.348  0.00  0.00    +0.000 A 
ATOM      7  C   UNL     1     -16.523  44.222 -12.887  0.00  0.00    +0.000 A 
ATOM      8  H   UNL     1     -16.305  40.752  -9.786  0.00  0.00    +0.000 HD
ENDROOT
BRANCH   7  11
ATOM      9  O   UNL     1     -15.472  46.185 -13.653  0.00  0.00    +0.000 OA
ATOM     10  N   UNL     1     -17.147  45.329 -14.965  0.00  0.00    +0.000 N 
ATOM     11  C   UNL     1     -16.337  45.307 -13.833  0.00  0.00    +0.000 C 
ATOM     12  H   UNL     1     -17.867  44.653 -15.186  0.00  0.00    +0.000 HD
ATOM     13  H   UNL     1     -17.034  46.074 -15.646  0.00  0.00    +0.000 HD
ENDBRANCH   7  11
BRANCH   1  14
ATOM     14  C   UNL     1     -18.444  40.828  -9.585  0.00  0.00    +0.000 C 
ATOM     15  C   UNL     1     -18.506  40.534  -8.102  0.00  0.00    +0.000 C 
ATOM     16  C   UNL     1     -19.073  41.818  -8.629  0.00  0.00    +0.000 C 
BRANCH  14  20
ATOM     17  F   UNL     1     -20.263  39.379  -9.752  0.00  0.00    +0.000 F 
ATOM     18  F   UNL     1     -20.009  40.889 -11.314  0.00  0.00    +0.000 F 
ATOM     19  F   UNL     1     -18.652  39.176 -11.217  0.00  0.00    +0.000 F 
ATOM     20  C   UNL     1     -19.362  40.051 -10.487  0.00  0.00    +0.000 C 
ENDBRANCH  14  20
ENDBRANCH   1  14
TORSDOF 3
ENDMDL
MODEL 4
REMARK VINA RESULT:    -5.694      4.223      6.432
REMARK INTER + INTRA:          -6.533
REMARK INTER:                  -6.748
REMARK INTRA:                   0.216
REMARK UNBOUND:                 0.160
REMARK  Name = 106214824
REMARK  3 active torsions:
REMARK  status: ('A' for Active; 'I' for Inactive)
REMARK    1  A    between atoms: N_5  and  C_8
REMARK    2  A    between atoms: C_8  and  C_11
REMARK    3  A    between atoms: C_16  and  C_17
REMARK                            x       y       z     vdW  Elec       q    Type
REMARK                         _______ _______ _______ _____ _____    ______ ____
ROOT
ATOM      1  N   UNL     1     -19.316  41.705 -12.167  0.00  0.00    +0.000 N 
ATOM      2  N   UNL     1     -17.155  42.677 -12.243  0.00  0.00    +0.000 NA
ATOM      3  C   UNL     1     -18.446  42.698 -12.645  0.00  0.00    +0.000 A 
ATOM      4  C   UNL     1     -18.976  43.643 -13.507  0.00  0.00    +0.000 A 
ATOM      5  C   UNL     1     -18.126  44.634 -13.989  0.00  0.00    +0.000 A 
ATOM      6  C   UNL     1     -16.359  43.655 -12.733  0.00  0.00    +0.000 A 
ATOM      7  C   UNL     1     -16.792  44.647 -13.600  0.00  0.00    +0.000 A 
ATOM      8  H   UNL     1     -20.207  41.625 -12.649  0.00  0.00    +0.000 HD
ENDROOT
BRANCH   7  11
ATOM      9  O   UNL     1     -15.356  46.490 -13.311  0.00  0.00    +0.000 OA
ATOM     10  N   UNL     1     -15.591  45.687 -15.446  0.00  0.00    +0.000 N 
ATOM     11  C   UNL     1     -15.879  45.667 -14.084  0.00  0.00    +0.000 C 
ATOM     12  H   UNL     1     -15.970  45.053 -16.137  0.00  0.00    +0.000 HD
ATOM     13  H   UNL     1     -14.951  46.387 -15.811  0.00  0.00    +0.000 HD
ENDBRANCH   7  11
BRANCH   1  14
ATOM     14  C   UNL     1     -18.908  40.630 -11.255  0.00  0.00    +0.000 C 
ATOM     15  C   UNL     1     -19.141  39.193 -11.667  0.00  0.00    +0.000 C 
ATOM     16  C   UNL     1     -17.746  39.743 -11.644  0.00  0.00    +0.000 C 
BRANCH  14  20
ATOM     17  F   UNL     1     -18.618  42.215  -9.569  0.00  0.00    +0.000 F 
ATOM     18  F   UNL     1     -20.363  40.901  -9.451  0.00  0.00    +0.000 F 
ATOM     19  F   UNL     1     -18.366  40.106  -9.049  0.00  0.00    +0.000 F 
ATOM     20  C   UNL     1     -19.067  40.970  -9.799  0.00  0.00    +0.000 C 
ENDBRANCH  14  20
ENDBRANCH   1  14
TORSDOF 3
ENDMDL
MODEL 5
REMARK VINA RESULT:    -5.640      4.393      5.820
REMARK INTER + INTRA:          -6.469
REMARK INTER:                  -6.785
REMARK INTRA:                   0.317
REMARK UNBOUND:                 0.160
REMARK  Name = 106214824
REMARK  3 active torsions:
REMARK  status: ('A' for Active; 'I' for Inactive)
REMARK    1  A    between atoms: N_5  and  C_8
REMARK    2  A    between atoms: C_8  and  C_11
REMARK    3  A    between atoms: C_16  and  C_17
REMARK                            x       y       z     vdW  Elec       q    Type
REMARK                         _______ _______ _______ _____ _____    ______ ____
ROOT
ATOM      1  N   UNL     1     -17.601  42.062 -11.231  0.00  0.00    +0.000 N 
ATOM      2  N   UNL     1     -18.316  43.114 -13.231  0.00  0.00    +0.000 NA
ATOM      3  C   UNL     1     -17.829  43.230 -11.975  0.00  0.00    +0.000 A 
ATOM      4  C   UNL     1     -17.538  44.438 -11.364  0.00  0.00    +0.000 A 
ATOM      5  C   UNL     1     -17.759  45.605 -12.089  0.00  0.00    +0.000 A 
ATOM      6  C   UNL     1     -18.518  44.269 -13.905  0.00  0.00    +0.000 A 
ATOM      7  C   UNL     1     -18.259  45.527 -13.384  0.00  0.00    +0.000 A 
ATOM      8  H   UNL     1     -17.443  42.192 -10.235  0.00  0.00    +0.000 HD
ENDROOT
BRANCH   7  11
ATOM      9  O   UNL     1     -18.517  47.854 -13.639  0.00  0.00    +0.000 OA
ATOM     10  N   UNL     1     -18.697  46.579 -15.537  0.00  0.00    +0.000 N 
ATOM     11  C   UNL     1     -18.500  46.726 -14.167  0.00  0.00    +0.000 C 
ATOM     12  H   UNL     1     -18.695  45.701 -16.040  0.00  0.00    +0.000 HD
ATOM     13  H   UNL     1     -18.862  47.401 -16.109  0.00  0.00    +0.000 HD
ENDBRANCH   7  11
BRANCH   1  14
ATOM     14  C   UNL     1     -17.865  40.708 -11.731  0.00  0.00    +0.000 C 
ATOM     15  C   UNL     1     -17.123  40.223 -12.956  0.00  0.00    +0.000 C 
ATOM     16  C   UNL     1     -16.783  39.659 -11.609  0.00  0.00    +0.000 C 
BRANCH  14  20
ATOM     17  F   UNL     1     -20.010  40.604 -12.641  0.00  0.00    +0.000 F 
ATOM     18  F   UNL     1     -19.338  38.928 -11.408  0.00  0.00    +0.000 F 
ATOM     19  F   UNL     1     -19.826  40.845 -10.476  0.00  0.00    +0.000 F 
ATOM     20  C   UNL     1     -19.291  40.261 -11.560  0.00  0.00    +0.000 C 
ENDBRANCH  14  20
ENDBRANCH   1  14
TORSDOF 3
ENDMDL
