MODEL 1
REMARK VINA RESULT:    -6.719      0.000      0.000
REMARK INTER + INTRA:          -8.649
REMARK INTER:                  -8.290
REMARK INTRA:                  -0.360
REMARK UNBOUND:                -0.360
REMARK  Name = 106295549
REMARK  5 active torsions:
REMARK  status: ('A' for Active; 'I' for Inactive)
REMARK    1  A    between atoms: N_6  and  C_9
REMARK    2  A    between atoms: N_8  and  C_18
REMARK    3  A    between atoms: C_9  and  C_10
REMARK    4  A    between atoms: C_10  and  C_11
REMARK    5  A    between atoms: C_12  and  C_13
REMARK                            x       y       z     vdW  Elec       q    Type
REMARK                         _______ _______ _______ _____ _____    ______ ____
ROOT
ATOM      1  O   UNL     1     -17.692  40.550 -10.544  0.00  0.00    +0.000 OA
ATOM      2  N   UNL     1     -19.977  40.858 -10.288  0.00  0.00    +0.000 N 
ATOM      3  C   UNL     1     -18.755  41.029 -10.928  0.00  0.00    +0.000 C 
ATOM      4  H   UNL     1     -20.806  41.335 -10.626  0.00  0.00    +0.000 HD
ENDROOT
BRANCH   3   7
ATOM      5  N   UNL     1     -19.686  42.323 -14.342  0.00  0.00    +0.000 NA
ATOM      6  N   UNL     1     -18.881  44.185 -15.590  0.00  0.00    +0.000 N 
ATOM      7  C   UNL     1     -18.771  41.876 -12.149  0.00  0.00    +0.000 A 
ATOM      8  C   UNL     1     -17.931  42.978 -12.267  0.00  0.00    +0.000 A 
ATOM      9  C   UNL     1     -19.622  41.593 -13.205  0.00  0.00    +0.000 A 
ATOM     10  C   UNL     1     -18.855  43.386 -14.420  0.00  0.00    +0.000 A 
ATOM     11  C   UNL     1     -17.968  43.753 -13.421  0.00  0.00    +0.000 A 
ATOM     12  C   UNL     1     -19.748  43.913 -16.689  0.00  0.00    +0.000 C 
ATOM     13  H   UNL     1     -18.431  45.093 -15.540  0.00  0.00    +0.000 HD
ENDBRANCH   3   7
BRANCH   2  14
ATOM     14  C   UNL     1     -20.120  40.087  -9.082  0.00  0.00    +0.000 C 
BRANCH  14  17
ATOM     15  F   UNL     1     -19.347  40.369  -6.880  0.00  0.00    +0.000 F 
ATOM     16  F   UNL     1     -19.468  42.143  -8.145  0.00  0.00    +0.000 F 
ATOM     17  C   UNL     1     -20.084  40.971  -7.848  0.00  0.00    +0.000 C 
BRANCH  17  20
ATOM     18  F   UNL     1     -21.733  42.591  -7.416  0.00  0.00    +0.000 F 
ATOM     19  F   UNL     1     -22.388  40.612  -8.044  0.00  0.00    +0.000 F 
ATOM     20  C   UNL     1     -21.461  41.268  -7.302  0.00  0.00    +0.000 C 
ENDBRANCH  17  20
ENDBRANCH  14  17
ENDBRANCH   2  14
TORSDOF 4
ENDMDL
MODEL 2
REMARK VINA RESULT:    -6.350      1.527      2.056
REMARK INTER + INTRA:          -8.194
REMARK INTER:                  -7.902
REMARK INTRA:                  -0.292
REMARK UNBOUND:                -0.360
REMARK  Name = 106295549
REMARK  5 active torsions:
REMARK  status: ('A' for Active; 'I' for Inactive)
REMARK    1  A    between atoms: N_6  and  C_9
REMARK    2  A    between atoms: N_8  and  C_18
REMARK    3  A    between atoms: C_9  and  C_10
REMARK    4  A    between atoms: C_10  and  C_11
REMARK    5  A    between atoms: C_12  and  C_13
REMARK                            x       y       z     vdW  Elec       q    Type
REMARK                         _______ _______ _______ _____ _____    ______ ____
ROOT
ATOM      1  O   UNL     1     -19.860  40.266 -12.429  0.00  0.00    +0.000 OA
ATOM      2  N   UNL     1     -19.022  41.339 -10.551  0.00  0.00    +0.000 N 
ATOM      3  C   UNL     1     -19.295  41.225 -11.909  0.00  0.00    +0.000 C 
ATOM      4  H   UNL     1     -18.495  42.131 -10.197  0.00  0.00    +0.000 HD
ENDROOT
BRANCH   3   7
ATOM      5  N   UNL     1     -17.176  44.041 -13.237  0.00  0.00    +0.000 NA
ATOM      6  N   UNL     1     -17.486  45.499 -15.096  0.00  0.00    +0.000 N 
ATOM      7  C   UNL     1     -18.838  42.350 -12.763  0.00  0.00    +0.000 A 
ATOM      8  C   UNL     1     -19.591  42.773 -13.854  0.00  0.00    +0.000 A 
ATOM      9  C   UNL     1     -17.650  43.011 -12.500  0.00  0.00    +0.000 A 
ATOM     10  C   UNL     1     -17.935  44.424 -14.289  0.00  0.00    +0.000 A 
ATOM     11  C   UNL     1     -19.137  43.829 -14.636  0.00  0.00    +0.000 A 
ATOM     12  C   UNL     1     -16.265  46.194 -14.843  0.00  0.00    +0.000 C 
ATOM     13  H   UNL     1     -17.936  45.621 -15.997  0.00  0.00    +0.000 HD
ENDBRANCH   3   7
BRANCH   2  14
ATOM     14  C   UNL     1     -19.380  40.321  -9.599  0.00  0.00    +0.000 C 
BRANCH  14  17
ATOM     15  F   UNL     1     -19.224  40.063  -7.268  0.00  0.00    +0.000 F 
ATOM     16  F   UNL     1     -18.968  42.070  -8.083  0.00  0.00    +0.000 F 
ATOM     17  C   UNL     1     -19.662  40.914  -8.230  0.00  0.00    +0.000 C 
BRANCH  17  20
ATOM     18  F   UNL     1     -21.865  40.095  -8.304  0.00  0.00    +0.000 F 
ATOM     19  F   UNL     1     -21.337  41.457  -6.690  0.00  0.00    +0.000 F 
ATOM     20  C   UNL     1     -21.129  41.193  -8.004  0.00  0.00    +0.000 C 
ENDBRANCH  17  20
ENDBRANCH  14  17
ENDBRANCH   2  14
TORSDOF 4
ENDMDL
MODEL 3
REMARK VINA RESULT:    -6.270      2.195      2.791
REMARK INTER + INTRA:          -8.096
REMARK INTER:                  -7.871
REMARK INTRA:                  -0.225
REMARK UNBOUND:                -0.360
REMARK  Name = 106295549
REMARK  5 active torsions:
REMARK  status: ('A' for Active; 'I' for Inactive)
REMARK    1  A    between atoms: N_6  and  C_9
REMARK    2  A    between atoms: N_8  and  C_18
REMARK    3  A    between atoms: C_9  and  C_10
REMARK    4  A    between atoms: C_10  and  C_11
REMARK    5  A    between atoms: C_12  and  C_13
REMARK                            x       y       z     vdW  Elec       q    Type
REMARK                         _______ _______ _______ _____ _____    ______ ____
ROOT
ATOM      1  O   UNL     1     -17.038  40.084 -11.247  0.00  0.00    +0.000 OA
ATOM      2  N   UNL     1     -17.762  41.622  -9.668  0.00  0.00    +0.000 N 
ATOM      3  C   UNL     1     -17.174  41.245 -10.870  0.00  0.00    +0.000 C 
ATOM      4  H   UNL     1     -17.785  42.597  -9.390  0.00  0.00    +0.000 HD
ENDROOT
BRANCH   3   7
ATOM      5  N   UNL     1     -17.077  43.975 -13.462  0.00  0.00    +0.000 NA
ATOM      6  N   UNL     1     -15.323  45.440 -14.138  0.00  0.00    +0.000 N 
ATOM      7  C   UNL     1     -16.664  42.350 -11.721  0.00  0.00    +0.000 A 
ATOM      8  C   UNL     1     -15.352  42.798 -11.603  0.00  0.00    +0.000 A 
ATOM      9  C   UNL     1     -17.478  42.966 -12.657  0.00  0.00    +0.000 A 
ATOM     10  C   UNL     1     -15.796  44.385 -13.319  0.00  0.00    +0.000 A 
ATOM     11  C   UNL     1     -14.902  43.834 -12.414  0.00  0.00    +0.000 A 
ATOM     12  C   UNL     1     -16.144  46.089 -15.108  0.00  0.00    +0.000 C 
ATOM     13  H   UNL     1     -14.452  45.883 -13.864  0.00  0.00    +0.000 HD
ENDBRANCH   3   7
BRANCH   2  14
ATOM     14  C   UNL     1     -18.282  40.667  -8.726  0.00  0.00    +0.000 C 
BRANCH  14  17
ATOM     15  F   UNL     1     -20.308  41.076  -9.847  0.00  0.00    +0.000 F 
ATOM     16  F   UNL     1     -20.294  39.520  -8.316  0.00  0.00    +0.000 F 
ATOM     17  C   UNL     1     -19.796  40.742  -8.635  0.00  0.00    +0.000 C 
BRANCH  17  20
ATOM     18  F   UNL     1     -20.432  41.142  -6.407  0.00  0.00    +0.000 F 
ATOM     19  F   UNL     1     -19.322  42.700  -7.446  0.00  0.00    +0.000 F 
ATOM     20  C   UNL     1     -20.271  41.745  -7.610  0.00  0.00    +0.000 C 
ENDBRANCH  17  20
ENDBRANCH  14  17
ENDBRANCH   2  14
TORSDOF 4
ENDMDL
MODEL 4
REMARK VINA RESULT:    -5.996      5.094      7.298
REMARK INTER + INTRA:          -7.757
REMARK INTER:                  -7.376
REMARK INTRA:                  -0.382
REMARK UNBOUND:                -0.360
REMARK  Name = 106295549
REMARK  5 active torsions:
REMARK  status: ('A' for Active; 'I' for Inactive)
REMARK    1  A    between atoms: N_6  and  C_9
REMARK    2  A    between atoms: N_8  and  C_18
REMARK    3  A    between atoms: C_9  and  C_10
REMARK    4  A    between atoms: C_10  and  C_11
REMARK    5  A    between atoms: C_12  and  C_13
REMARK                            x       y       z     vdW  Elec       q    Type
REMARK                         _______ _______ _______ _____ _____    ______ ____
ROOT
ATOM      1  O   UNL     1     -18.808  45.545 -15.099  0.00  0.00    +0.000 OA
ATOM      2  N   UNL     1     -19.352  43.457 -15.952  0.00  0.00    +0.000 N 
ATOM      3  C   UNL     1     -18.930  44.331 -14.957  0.00  0.00    +0.000 C 
ATOM      4  H   UNL     1     -19.369  42.457 -15.784  0.00  0.00    +0.000 HD
ENDROOT
BRANCH   3   7
ATOM      5  N   UNL     1     -18.677  41.793 -12.185  0.00  0.00    +0.000 NA
ATOM      6  N   UNL     1     -17.677  41.918 -10.027  0.00  0.00    +0.000 N 
ATOM      7  C   UNL     1     -18.588  43.715 -13.649  0.00  0.00    +0.000 A 
ATOM      8  C   UNL     1     -17.888  44.429 -12.682  0.00  0.00    +0.000 A 
ATOM      9  C   UNL     1     -18.956  42.413 -13.354  0.00  0.00    +0.000 A 
ATOM     10  C   UNL     1     -17.996  42.518 -11.269  0.00  0.00    +0.000 A 
ATOM     11  C   UNL     1     -17.582  43.826 -11.467  0.00  0.00    +0.000 A 
ATOM     12  C   UNL     1     -18.046  40.578  -9.701  0.00  0.00    +0.000 C 
ATOM     13  H   UNL     1     -16.979  42.381  -9.454  0.00  0.00    +0.000 HD
ENDBRANCH   3   7
BRANCH   2  14
ATOM     14  C   UNL     1     -19.695  43.898 -17.278  0.00  0.00    +0.000 C 
BRANCH  14  17
ATOM     15  F   UNL     1     -21.338  43.780 -18.955  0.00  0.00    +0.000 F 
ATOM     16  F   UNL     1     -21.281  42.174 -17.479  0.00  0.00    +0.000 F 
ATOM     17  C   UNL     1     -21.117  43.511 -17.643  0.00  0.00    +0.000 C 
BRANCH  17  20
ATOM     18  F   UNL     1     -23.229  44.543 -17.577  0.00  0.00    +0.000 F 
ATOM     19  F   UNL     1     -22.592  43.410 -15.830  0.00  0.00    +0.000 F 
ATOM     20  C   UNL     1     -22.151  44.234 -16.814  0.00  0.00    +0.000 C 
ENDBRANCH  17  20
ENDBRANCH  14  17
ENDBRANCH   2  14
TORSDOF 4
ENDMDL
MODEL 5
REMARK VINA RESULT:    -5.982      3.213      4.367
REMARK INTER + INTRA:          -7.740
REMARK INTER:                  -7.358
REMARK INTRA:                  -0.381
REMARK UNBOUND:                -0.360
REMARK  Name = 106295549
REMARK  5 active torsions:
REMARK  status: ('A' for Active; 'I' for Inactive)
REMARK    1  A    between atoms: N_6  and  C_9
REMARK    2  A    between atoms: N_8  and  C_18
REMARK    3  A    between atoms: C_9  and  C_10
REMARK    4  A    between atoms: C_10  and  C_11
REMARK    5  A    between atoms: C_12  and  C_13
REMARK                            x       y       z     vdW  Elec       q    Type
REMARK                         _______ _______ _______ _____ _____    ______ ____
ROOT
ATOM      1  O   UNL     1     -18.495  43.704 -12.680  0.00  0.00    +0.000 OA
ATOM      2  N   UNL     1     -19.594  41.776 -13.354  0.00  0.00    +0.000 N 
ATOM      3  C   UNL     1     -19.081  43.054 -13.541  0.00  0.00    +0.000 C 
ATOM      4  H   UNL     1     -20.123  41.321 -14.090  0.00  0.00    +0.000 HD
ENDROOT
BRANCH   3   7
ATOM      5  N   UNL     1     -20.185  43.441 -17.121  0.00  0.00    +0.000 NA
ATOM      6  N   UNL     1     -19.942  45.249 -18.654  0.00  0.00    +0.000 N 
ATOM      7  C   UNL     1     -19.297  43.653 -14.882  0.00  0.00    +0.000 A 
ATOM      8  C   UNL     1     -18.841  44.935 -15.177  0.00  0.00    +0.000 A 
ATOM      9  C   UNL     1     -19.956  42.955 -15.881  0.00  0.00    +0.000 A 
ATOM     10  C   UNL     1     -19.729  44.690 -17.370  0.00  0.00    +0.000 A 
ATOM     11  C   UNL     1     -19.058  45.470 -16.441  0.00  0.00    +0.000 A 
ATOM     12  C   UNL     1     -20.619  44.548 -19.697  0.00  0.00    +0.000 C 
ATOM     13  H   UNL     1     -19.805  46.249 -18.752  0.00  0.00    +0.000 HD
ENDBRANCH   3   7
BRANCH   2  14
ATOM     14  C   UNL     1     -19.486  41.072 -12.103  0.00  0.00    +0.000 C 
BRANCH  14  17
ATOM     15  F   UNL     1     -19.061  38.804 -11.656  0.00  0.00    +0.000 F 
ATOM     16  F   UNL     1     -18.249  39.642 -13.500  0.00  0.00    +0.000 F 
ATOM     17  C   UNL     1     -18.504  39.918 -12.196  0.00  0.00    +0.000 C 
BRANCH  17  20
ATOM     18  F   UNL     1     -17.358  40.096 -10.151  0.00  0.00    +0.000 F 
ATOM     19  F   UNL     1     -16.283  39.268 -11.854  0.00  0.00    +0.000 F 
ATOM     20  C   UNL     1     -17.198  40.203 -11.493  0.00  0.00    +0.000 C 
ENDBRANCH  17  20
ENDBRANCH  14  17
ENDBRANCH   2  14
TORSDOF 4
ENDMDL
