MODEL 1
REMARK VINA RESULT:    -6.177      0.000      0.000
REMARK INTER + INTRA:          -7.000
REMARK INTER:                  -7.261
REMARK INTRA:                   0.261
REMARK UNBOUND:                 0.261
REMARK  Name = 106218137
REMARK  3 active torsions:
REMARK  status: ('A' for Active; 'I' for Inactive)
REMARK    1  A    between atoms: N_5  and  C_8
REMARK    2  A    between atoms: C_8  and  C_11
REMARK    3  A    between atoms: C_12  and  C_13
REMARK                            x       y       z     vdW  Elec       q    Type
REMARK                         _______ _______ _______ _____ _____    ______ ____
ROOT
ATOM      1  O   UNL     1     -20.784  39.454  -8.448  0.00  0.00    +0.000 OA
ATOM      2  N   UNL     1     -20.604  41.745  -8.135  0.00  0.00    +0.000 N 
ATOM      3  C   UNL     1     -20.299  40.540  -8.758  0.00  0.00    +0.000 C 
ATOM      4  H   UNL     1     -20.139  42.606  -8.409  0.00  0.00    +0.000 HD
ENDROOT
BRANCH   3   7
ATOM      5  N   UNL     1     -18.493  39.674 -11.948  0.00  0.00    +0.000 NA
ATOM      6  N   UNL     1     -16.669  40.731 -13.059  0.00  0.00    +0.000 N 
ATOM      7  C   UNL     1     -19.331  40.610  -9.883  0.00  0.00    +0.000 A 
ATOM      8  C   UNL     1     -18.383  41.625  -9.950  0.00  0.00    +0.000 A 
ATOM      9  C   UNL     1     -19.345  39.668 -10.898  0.00  0.00    +0.000 A 
ATOM     10  C   UNL     1     -17.491  41.666 -11.015  0.00  0.00    +0.000 A 
ATOM     11  C   UNL     1     -17.586  40.675 -11.980  0.00  0.00    +0.000 A 
ATOM     12  H   UNL     1     -16.303  41.634 -13.335  0.00  0.00    +0.000 HD
ATOM     13  H   UNL     1     -16.747  40.008 -13.764  0.00  0.00    +0.000 HD
ENDBRANCH   3   7
BRANCH   2  14
ATOM     14  C   UNL     1     -21.533  41.834  -7.052  0.00  0.00    +0.000 C 
ATOM     15  C   UNL     1     -22.865  42.515  -7.284  0.00  0.00    +0.000 C 
ATOM     16  C   UNL     1     -22.812  41.028  -7.116  0.00  0.00    +0.000 C 
BRANCH  14  20
ATOM     17  F   UNL     1     -19.611  42.397  -5.858  0.00  0.00    +0.000 F 
ATOM     18  F   UNL     1     -21.547  42.947  -5.003  0.00  0.00    +0.000 F 
ATOM     19  F   UNL     1     -20.919  40.852  -5.027  0.00  0.00    +0.000 F 
ATOM     20  C   UNL     1     -20.888  42.011  -5.705  0.00  0.00    +0.000 C 
ENDBRANCH  14  20
ENDBRANCH   2  14
TORSDOF 3
ENDMDL
MODEL 2
REMARK VINA RESULT:    -6.043      7.072      8.402
REMARK INTER + INTRA:          -6.841
REMARK INTER:                  -6.918
REMARK INTRA:                   0.076
REMARK UNBOUND:                 0.261
REMARK  Name = 106218137
REMARK  3 active torsions:
REMARK  status: ('A' for Active; 'I' for Inactive)
REMARK    1  A    between atoms: N_5  and  C_8
REMARK    2  A    between atoms: C_8  and  C_11
REMARK    3  A    between atoms: C_12  and  C_13
REMARK                            x       y       z     vdW  Elec       q    Type
REMARK                         _______ _______ _______ _____ _____    ______ ____
ROOT
ATOM      1  O   UNL     1     -18.929  44.634 -15.503  0.00  0.00    +0.000 OA
ATOM      2  N   UNL     1     -20.730  43.180 -15.382  0.00  0.00    +0.000 N 
ATOM      3  C   UNL     1     -19.544  43.741 -14.925  0.00  0.00    +0.000 C 
ATOM      4  H   UNL     1     -21.172  42.414 -14.881  0.00  0.00    +0.000 HD
ENDROOT
BRANCH   3   7
ATOM      5  N   UNL     1     -18.954  41.423 -12.014  0.00  0.00    +0.000 NA
ATOM      6  N   UNL     1     -17.611  41.663 -10.061  0.00  0.00    +0.000 N 
ATOM      7  C   UNL     1     -19.021  43.213 -13.638  0.00  0.00    +0.000 A 
ATOM      8  C   UNL     1     -18.143  43.960 -12.862  0.00  0.00    +0.000 A 
ATOM      9  C   UNL     1     -19.392  41.962 -13.175  0.00  0.00    +0.000 A 
ATOM     10  C   UNL     1     -17.670  43.441 -11.662  0.00  0.00    +0.000 A 
ATOM     11  C   UNL     1     -18.102  42.178 -11.286  0.00  0.00    +0.000 A 
ATOM     12  H   UNL     1     -16.704  41.974  -9.736  0.00  0.00    +0.000 HD
ATOM     13  H   UNL     1     -17.925  40.737  -9.794  0.00  0.00    +0.000 HD
ENDBRANCH   3   7
BRANCH   2  14
ATOM     14  C   UNL     1     -21.362  43.601 -16.593  0.00  0.00    +0.000 C 
ATOM     15  C   UNL     1     -22.814  44.028 -16.552  0.00  0.00    +0.000 C 
ATOM     16  C   UNL     1     -21.744  45.057 -16.752  0.00  0.00    +0.000 C 
BRANCH  14  20
ATOM     17  F   UNL     1     -21.372  41.616 -17.817  0.00  0.00    +0.000 F 
ATOM     18  F   UNL     1     -21.314  43.502 -18.923  0.00  0.00    +0.000 F 
ATOM     19  F   UNL     1     -19.545  42.820 -17.831  0.00  0.00    +0.000 F 
ATOM     20  C   UNL     1     -20.888  42.869 -17.818  0.00  0.00    +0.000 C 
ENDBRANCH  14  20
ENDBRANCH   2  14
TORSDOF 3
ENDMDL
MODEL 3
REMARK VINA RESULT:    -5.981      3.824      5.227
REMARK INTER + INTRA:          -6.769
REMARK INTER:                  -6.739
REMARK INTRA:                  -0.029
REMARK UNBOUND:                 0.261
REMARK  Name = 106218137
REMARK  3 active torsions:
REMARK  status: ('A' for Active; 'I' for Inactive)
REMARK    1  A    between atoms: N_5  and  C_8
REMARK    2  A    between atoms: C_8  and  C_11
REMARK    3  A    between atoms: C_12  and  C_13
REMARK                            x       y       z     vdW  Elec       q    Type
REMARK                         _______ _______ _______ _____ _____    ______ ____
ROOT
ATOM      1  O   UNL     1     -16.649  42.539 -10.915  0.00  0.00    +0.000 OA
ATOM      2  N   UNL     1     -18.763  41.835 -11.553  0.00  0.00    +0.000 N 
ATOM      3  C   UNL     1     -17.706  42.736 -11.508  0.00  0.00    +0.000 C 
ATOM      4  H   UNL     1     -19.631  42.071 -12.026  0.00  0.00    +0.000 HD
ENDROOT
BRANCH   3   7
ATOM      5  N   UNL     1     -18.447  45.119 -14.331  0.00  0.00    +0.000 NA
ATOM      6  N   UNL     1     -18.445  47.499 -14.420  0.00  0.00    +0.000 N 
ATOM      7  C   UNL     1     -17.895  44.006 -12.257  0.00  0.00    +0.000 A 
ATOM      8  C   UNL     1     -17.713  45.237 -11.637  0.00  0.00    +0.000 A 
ATOM      9  C   UNL     1     -18.260  44.001 -13.593  0.00  0.00    +0.000 A 
ATOM     10  C   UNL     1     -17.897  46.408 -12.362  0.00  0.00    +0.000 A 
ATOM     11  C   UNL     1     -18.261  46.296 -13.695  0.00  0.00    +0.000 A 
ATOM     12  H   UNL     1     -18.732  48.329 -13.915  0.00  0.00    +0.000 HD
ATOM     13  H   UNL     1     -18.717  47.412 -15.392  0.00  0.00    +0.000 HD
ENDBRANCH   3   7
BRANCH   2  14
ATOM     14  C   UNL     1     -18.716  40.565 -10.897  0.00  0.00    +0.000 C 
ATOM     15  C   UNL     1     -19.142  39.330 -11.662  0.00  0.00    +0.000 C 
ATOM     16  C   UNL     1     -17.693  39.545 -11.349  0.00  0.00    +0.000 C 
BRANCH  14  20
ATOM     17  F   UNL     1     -17.930  40.412  -8.707  0.00  0.00    +0.000 F 
ATOM     18  F   UNL     1     -19.546  41.826  -9.120  0.00  0.00    +0.000 F 
ATOM     19  F   UNL     1     -19.947  39.676  -9.127  0.00  0.00    +0.000 F 
ATOM     20  C   UNL     1     -19.042  40.621  -9.431  0.00  0.00    +0.000 C 
ENDBRANCH  14  20
ENDBRANCH   2  14
TORSDOF 3
ENDMDL
MODEL 4
REMARK VINA RESULT:    -5.965      4.582      6.357
REMARK INTER + INTRA:          -6.750
REMARK INTER:                  -6.802
REMARK INTRA:                   0.052
REMARK UNBOUND:                 0.261
REMARK  Name = 106218137
REMARK  3 active torsions:
REMARK  status: ('A' for Active; 'I' for Inactive)
REMARK    1  A    between atoms: N_5  and  C_8
REMARK    2  A    between atoms: C_8  and  C_11
REMARK    3  A    between atoms: C_12  and  C_13
REMARK                            x       y       z     vdW  Elec       q    Type
REMARK                         _______ _______ _______ _____ _____    ______ ____
ROOT
ATOM      1  O   UNL     1     -17.961  43.464 -11.859  0.00  0.00    +0.000 OA
ATOM      2  N   UNL     1     -18.246  41.445 -12.962  0.00  0.00    +0.000 N 
ATOM      3  C   UNL     1     -18.294  42.830 -12.857  0.00  0.00    +0.000 C 
ATOM      4  H   UNL     1     -18.573  40.973 -13.800  0.00  0.00    +0.000 HD
ENDROOT
BRANCH   3   7
ATOM      5  N   UNL     1     -18.798  45.601 -15.358  0.00  0.00    +0.000 NA
ATOM      6  N   UNL     1     -20.039  45.678 -17.391  0.00  0.00    +0.000 N 
ATOM      7  C   UNL     1     -18.767  43.562 -14.061  0.00  0.00    +0.000 A 
ATOM      8  C   UNL     1     -19.588  42.945 -14.998  0.00  0.00    +0.000 A 
ATOM      9  C   UNL     1     -18.403  44.879 -14.286  0.00  0.00    +0.000 A 
ATOM     10  C   UNL     1     -20.015  43.654 -16.114  0.00  0.00    +0.000 A 
ATOM     11  C   UNL     1     -19.596  44.969 -16.247  0.00  0.00    +0.000 A 
ATOM     12  H   UNL     1     -20.247  45.155 -18.233  0.00  0.00    +0.000 HD
ATOM     13  H   UNL     1     -19.724  46.636 -17.486  0.00  0.00    +0.000 HD
ENDBRANCH   3   7
BRANCH   2  14
ATOM     14  C   UNL     1     -17.793  40.610 -11.892  0.00  0.00    +0.000 C 
ATOM     15  C   UNL     1     -16.619  39.685 -12.132  0.00  0.00    +0.000 C 
ATOM     16  C   UNL     1     -16.446  40.893 -11.263  0.00  0.00    +0.000 C 
BRANCH  14  20
ATOM     17  F   UNL     1     -19.308  38.908 -11.398  0.00  0.00    +0.000 F 
ATOM     18  F   UNL     1     -18.442  40.026  -9.730  0.00  0.00    +0.000 F 
ATOM     19  F   UNL     1     -19.928  40.973 -11.025  0.00  0.00    +0.000 F 
ATOM     20  C   UNL     1     -18.892  40.119 -10.992  0.00  0.00    +0.000 C 
ENDBRANCH  14  20
ENDBRANCH   2  14
TORSDOF 3
ENDMDL
MODEL 5
REMARK VINA RESULT:    -5.901      4.386      6.194
REMARK INTER + INTRA:          -6.675
REMARK INTER:                  -6.641
REMARK INTRA:                  -0.034
REMARK UNBOUND:                 0.261
REMARK  Name = 106218137
REMARK  3 active torsions:
REMARK  status: ('A' for Active; 'I' for Inactive)
REMARK    1  A    between atoms: N_5  and  C_8
REMARK    2  A    between atoms: C_8  and  C_11
REMARK    3  A    between atoms: C_12  and  C_13
REMARK                            x       y       z     vdW  Elec       q    Type
REMARK                         _______ _______ _______ _____ _____    ______ ____
ROOT
ATOM      1  O   UNL     1     -17.573  43.001 -10.267  0.00  0.00    +0.000 OA
ATOM      2  N   UNL     1     -17.822  42.000 -12.344  0.00  0.00    +0.000 N 
ATOM      3  C   UNL     1     -17.743  43.087 -11.481  0.00  0.00    +0.000 C 
ATOM      4  H   UNL     1     -18.005  42.133 -13.334  0.00  0.00    +0.000 HD
ENDROOT
BRANCH   3   7
ATOM      5  N   UNL     1     -18.298  45.761 -14.075  0.00  0.00    +0.000 NA
ATOM      6  N   UNL     1     -18.196  48.137 -13.931  0.00  0.00    +0.000 N 
ATOM      7  C   UNL     1     -17.857  44.430 -12.106  0.00  0.00    +0.000 A 
ATOM      8  C   UNL     1     -17.643  45.586 -11.364  0.00  0.00    +0.000 A 
ATOM      9  C   UNL     1     -18.180  44.570 -13.446  0.00  0.00    +0.000 A 
ATOM     10  C   UNL     1     -17.757  46.829 -11.976  0.00  0.00    +0.000 A 
ATOM     11  C   UNL     1     -18.084  46.863 -13.322  0.00  0.00    +0.000 A 
ATOM     12  H   UNL     1     -18.464  48.926 -13.354  0.00  0.00    +0.000 HD
ATOM     13  H   UNL     1     -18.441  48.156 -14.914  0.00  0.00    +0.000 HD
ENDBRANCH   3   7
BRANCH   2  14
ATOM     14  C   UNL     1     -17.709  40.650 -11.888  0.00  0.00    +0.000 C 
ATOM     15  C   UNL     1     -16.857  39.680 -12.678  0.00  0.00    +0.000 C 
ATOM     16  C   UNL     1     -16.381  40.169 -11.345  0.00  0.00    +0.000 C 
BRANCH  14  20
ATOM     17  F   UNL     1     -19.237  38.895 -11.736  0.00  0.00    +0.000 F 
ATOM     18  F   UNL     1     -18.786  40.022  -9.917  0.00  0.00    +0.000 F 
ATOM     19  F   UNL     1     -19.991  40.935 -11.498  0.00  0.00    +0.000 F 
ATOM     20  C   UNL     1     -18.958  40.114 -11.246  0.00  0.00    +0.000 C 
ENDBRANCH  14  20
ENDBRANCH   2  14
TORSDOF 3
ENDMDL
