MODEL 1
REMARK VINA RESULT:    -5.775      0.000      0.000
REMARK INTER + INTRA:          -8.442
REMARK INTER:                  -7.970
REMARK INTRA:                  -0.472
REMARK UNBOUND:                -0.472
REMARK  Name = 107494247
REMARK  7 active torsions:
REMARK  status: ('A' for Active; 'I' for Inactive)
REMARK    1  A    between atoms: N_5  and  C_9
REMARK    2  A    between atoms: N_5  and  C_10
REMARK    3  A    between atoms: N_5  and  C_11
REMARK    4  A    between atoms: N_7  and  C_12
REMARK    5  A    between atoms: C_9  and  C_12
REMARK    6  A    between atoms: C_10  and  C_14
REMARK    7  A    between atoms: C_13  and  C_16
REMARK                            x       y       z     vdW  Elec       q    Type
REMARK                         _______ _______ _______ _____ _____    ______ ____
ROOT
ATOM      1  N   UNL     1     -17.639  42.202 -10.916  0.00  0.00    +0.000 N 
ENDROOT
BRANCH   1   3
ATOM      2  N   UNL     1     -18.419  42.469  -8.708  0.00  0.00    +0.000 NA
ATOM      3  C   UNL     1     -18.451  41.764  -9.860  0.00  0.00    +0.000 A 
ATOM      4  C   UNL     1     -19.231  40.636 -10.058  0.00  0.00    +0.000 A 
ATOM      5  C   UNL     1     -20.032  40.205  -9.006  0.00  0.00    +0.000 A 
ATOM      6  C   UNL     1     -19.210  42.019  -7.707  0.00  0.00    +0.000 A 
ATOM      7  C   UNL     1     -20.027  40.904  -7.805  0.00  0.00    +0.000 A 
BRANCH   4  10
ATOM      8  O   UNL     1     -18.523  38.895 -11.477  0.00  0.00    +0.000 OA
ATOM      9  N   UNL     1     -20.099  40.334 -12.316  0.00  0.00    +0.000 N 
ATOM     10  C   UNL     1     -19.241  39.895 -11.312  0.00  0.00    +0.000 C 
ATOM     11  H   UNL     1     -20.701  41.143 -12.195  0.00  0.00    +0.000 HD
ATOM     12  H   UNL     1     -20.151  39.852 -13.206  0.00  0.00    +0.000 HD
ENDBRANCH   4  10
ENDBRANCH   1   3
BRANCH   1  13
ATOM     13  C   UNL     1     -16.229  41.899 -10.957  0.00  0.00    +0.000 C 
BRANCH  13  14
ATOM     14  C   UNL     1     -15.928  41.028 -12.169  0.00  0.00    +0.000 C 
BRANCH  14  15
ATOM     15  N   UNL     1     -15.607  39.669 -11.750  0.00  0.00    +0.000 NA
ATOM     16  H   UNL     1     -15.896  39.530 -10.783  0.00  0.00    +0.000 HD
ATOM     17  H   UNL     1     -14.596  39.538 -11.768  0.00  0.00    +0.000 HD
ENDBRANCH  14  15
ENDBRANCH  13  14
ENDBRANCH   1  13
BRANCH   1  18
ATOM     18  C   UNL     1     -18.221  42.980 -12.012  0.00  0.00    +0.000 C 
BRANCH  18  22
ATOM     19  F   UNL     1     -17.619  44.790 -10.636  0.00  0.00    +0.000 F 
ATOM     20  F   UNL     1     -16.577  44.593 -12.542  0.00  0.00    +0.000 F 
ATOM     21  F   UNL     1     -18.661  45.252 -12.496  0.00  0.00    +0.000 F 
ATOM     22  C   UNL     1     -17.766  44.416 -11.928  0.00  0.00    +0.000 C 
ENDBRANCH  18  22
ENDBRANCH   1  18
TORSDOF 7
ENDMDL
MODEL 2
REMARK VINA RESULT:    -5.650      2.804      4.610
REMARK INTER + INTRA:          -8.269
REMARK INTER:                  -7.927
REMARK INTRA:                  -0.342
REMARK UNBOUND:                -0.472
REMARK  Name = 107494247
REMARK  7 active torsions:
REMARK  status: ('A' for Active; 'I' for Inactive)
REMARK    1  A    between atoms: N_5  and  C_9
REMARK    2  A    between atoms: N_5  and  C_10
REMARK    3  A    between atoms: N_5  and  C_11
REMARK    4  A    between atoms: N_7  and  C_12
REMARK    5  A    between atoms: C_9  and  C_12
REMARK    6  A    between atoms: C_10  and  C_14
REMARK    7  A    between atoms: C_13  and  C_16
REMARK                            x       y       z     vdW  Elec       q    Type
REMARK                         _______ _______ _______ _____ _____    ______ ____
ROOT
ATOM      1  N   UNL     1     -18.080  41.075 -11.335  0.00  0.00    +0.000 N 
ENDROOT
BRANCH   1   3
ATOM      2  N   UNL     1     -15.943  42.030 -11.062  0.00  0.00    +0.000 NA
ATOM      3  C   UNL     1     -17.115  42.010 -11.735  0.00  0.00    +0.000 A 
ATOM      4  C   UNL     1     -17.420  42.857 -12.787  0.00  0.00    +0.000 A 
ATOM      5  C   UNL     1     -16.460  43.784 -13.176  0.00  0.00    +0.000 A 
ATOM      6  C   UNL     1     -15.035  42.946 -11.468  0.00  0.00    +0.000 A 
ATOM      7  C   UNL     1     -15.242  43.837 -12.509  0.00  0.00    +0.000 A 
BRANCH   4  10
ATOM      8  O   UNL     1     -18.943  41.929 -14.326  0.00  0.00    +0.000 OA
ATOM      9  N   UNL     1     -19.638  43.790 -13.181  0.00  0.00    +0.000 N 
ATOM     10  C   UNL     1     -18.695  42.814 -13.491  0.00  0.00    +0.000 C 
ATOM     11  H   UNL     1     -19.457  44.515 -12.494  0.00  0.00    +0.000 HD
ATOM     12  H   UNL     1     -20.544  43.803 -13.636  0.00  0.00    +0.000 HD
ENDBRANCH   4  10
ENDBRANCH   1   3
BRANCH   1  13
ATOM     13  C   UNL     1     -18.034  39.705 -11.786  0.00  0.00    +0.000 C 
BRANCH  13  14
ATOM     14  C   UNL     1     -19.378  39.319 -12.389  0.00  0.00    +0.000 C 
BRANCH  14  15
ATOM     15  N   UNL     1     -19.951  38.188 -11.669  0.00  0.00    +0.000 NA
ATOM     16  H   UNL     1     -19.243  37.466 -11.543  0.00  0.00    +0.000 HD
ATOM     17  H   UNL     1     -20.690  37.767 -12.231  0.00  0.00    +0.000 HD
ENDBRANCH  14  15
ENDBRANCH  13  14
ENDBRANCH   1  13
BRANCH   1  18
ATOM     18  C   UNL     1     -19.163  41.479 -10.435  0.00  0.00    +0.000 C 
BRANCH  18  22
ATOM     19  F   UNL     1     -19.292  41.711  -8.098  0.00  0.00    +0.000 F 
ATOM     20  F   UNL     1     -19.774  39.757  -8.937  0.00  0.00    +0.000 F 
ATOM     21  F   UNL     1     -17.700  40.447  -8.890  0.00  0.00    +0.000 F 
ATOM     22  C   UNL     1     -18.979  40.838  -9.082  0.00  0.00    +0.000 C 
ENDBRANCH  18  22
ENDBRANCH   1  18
TORSDOF 7
ENDMDL
MODEL 3
REMARK VINA RESULT:    -5.300      2.392      4.104
REMARK INTER + INTRA:          -7.787
REMARK INTER:                  -7.512
REMARK INTRA:                  -0.275
REMARK UNBOUND:                -0.472
REMARK  Name = 107494247
REMARK  7 active torsions:
REMARK  status: ('A' for Active; 'I' for Inactive)
REMARK    1  A    between atoms: N_5  and  C_9
REMARK    2  A    between atoms: N_5  and  C_10
REMARK    3  A    between atoms: N_5  and  C_11
REMARK    4  A    between atoms: N_7  and  C_12
REMARK    5  A    between atoms: C_9  and  C_12
REMARK    6  A    between atoms: C_10  and  C_14
REMARK    7  A    between atoms: C_13  and  C_16
REMARK                            x       y       z     vdW  Elec       q    Type
REMARK                         _______ _______ _______ _____ _____    ______ ____
ROOT
ATOM      1  N   UNL     1     -17.728  42.071 -11.426  0.00  0.00    +0.000 N 
ENDROOT
BRANCH   1   3
ATOM      2  N   UNL     1     -17.388  44.384 -11.128  0.00  0.00    +0.000 NA
ATOM      3  C   UNL     1     -17.889  43.385 -11.888  0.00  0.00    +0.000 A 
ATOM      4  C   UNL     1     -18.554  43.581 -13.087  0.00  0.00    +0.000 A 
ATOM      5  C   UNL     1     -18.713  44.887 -13.537  0.00  0.00    +0.000 A 
ATOM      6  C   UNL     1     -17.562  45.640 -11.598  0.00  0.00    +0.000 A 
ATOM      7  C   UNL     1     -18.211  45.942 -12.784  0.00  0.00    +0.000 A 
BRANCH   4  10
ATOM      8  O   UNL     1     -18.351  41.582 -14.316  0.00  0.00    +0.000 OA
ATOM      9  N   UNL     1     -20.458  42.467 -14.124  0.00  0.00    +0.000 N 
ATOM     10  C   UNL     1     -19.087  42.483 -13.882  0.00  0.00    +0.000 C 
ATOM     11  H   UNL     1     -21.077  43.188 -13.769  0.00  0.00    +0.000 HD
ATOM     12  H   UNL     1     -20.883  41.723 -14.666  0.00  0.00    +0.000 HD
ENDBRANCH   4  10
ENDBRANCH   1   3
BRANCH   1  13
ATOM     13  C   UNL     1     -16.463  41.386 -11.530  0.00  0.00    +0.000 C 
BRANCH  13  14
ATOM     14  C   UNL     1     -16.701  39.919 -11.864  0.00  0.00    +0.000 C 
BRANCH  14  15
ATOM     15  N   UNL     1     -16.545  39.691 -13.295  0.00  0.00    +0.000 NA
ATOM     16  H   UNL     1     -16.080  38.798 -13.453  0.00  0.00    +0.000 HD
ATOM     17  H   UNL     1     -15.931  40.406 -13.687  0.00  0.00    +0.000 HD
ENDBRANCH  14  15
ENDBRANCH  13  14
ENDBRANCH   1  13
BRANCH   1  18
ATOM     18  C   UNL     1     -18.858  41.366 -10.816  0.00  0.00    +0.000 C 
BRANCH  18  22
ATOM     19  F   UNL     1     -19.974  41.290  -8.747  0.00  0.00    +0.000 F 
ATOM     20  F   UNL     1     -17.974  40.427  -8.836  0.00  0.00    +0.000 F 
ATOM     21  F   UNL     1     -18.234  42.596  -8.895  0.00  0.00    +0.000 F 
ATOM     22  C   UNL     1     -18.753  41.421  -9.312  0.00  0.00    +0.000 C 
ENDBRANCH  18  22
ENDBRANCH   1  18
TORSDOF 7
ENDMDL
MODEL 4
REMARK VINA RESULT:    -5.034      3.261      5.176
REMARK INTER + INTRA:          -7.419
REMARK INTER:                  -6.851
REMARK INTRA:                  -0.568
REMARK UNBOUND:                -0.472
REMARK  Name = 107494247
REMARK  7 active torsions:
REMARK  status: ('A' for Active; 'I' for Inactive)
REMARK    1  A    between atoms: N_5  and  C_9
REMARK    2  A    between atoms: N_5  and  C_10
REMARK    3  A    between atoms: N_5  and  C_11
REMARK    4  A    between atoms: N_7  and  C_12
REMARK    5  A    between atoms: C_9  and  C_12
REMARK    6  A    between atoms: C_10  and  C_14
REMARK    7  A    between atoms: C_13  and  C_16
REMARK                            x       y       z     vdW  Elec       q    Type
REMARK                         _______ _______ _______ _____ _____    ______ ____
ROOT
ATOM      1  N   UNL     1     -17.347  42.121 -11.830  0.00  0.00    +0.000 N 
ENDROOT
BRANCH   1   3
ATOM      2  N   UNL     1     -15.066  42.357 -11.285  0.00  0.00    +0.000 NA
ATOM      3  C   UNL     1     -16.186  42.907 -11.805  0.00  0.00    +0.000 A 
ATOM      4  C   UNL     1     -16.255  44.195 -12.310  0.00  0.00    +0.000 A 
ATOM      5  C   UNL     1     -15.101  44.969 -12.280  0.00  0.00    +0.000 A 
ATOM      6  C   UNL     1     -13.964  43.140 -11.272  0.00  0.00    +0.000 A 
ATOM      7  C   UNL     1     -13.929  44.440 -11.753  0.00  0.00    +0.000 A 
BRANCH   4  10
ATOM      8  O   UNL     1     -18.364  45.228 -12.126  0.00  0.00    +0.000 OA
ATOM      9  N   UNL     1     -17.617  44.777 -14.246  0.00  0.00    +0.000 N 
ATOM     10  C   UNL     1     -17.479  44.761 -12.861  0.00  0.00    +0.000 C 
ATOM     11  H   UNL     1     -16.900  44.409 -14.864  0.00  0.00    +0.000 HD
ATOM     12  H   UNL     1     -18.446  45.164 -14.684  0.00  0.00    +0.000 HD
ENDBRANCH   4  10
ENDBRANCH   1   3
BRANCH   1  13
ATOM     13  C   UNL     1     -17.799  41.482 -13.041  0.00  0.00    +0.000 C 
BRANCH  13  14
ATOM     14  C   UNL     1     -19.300  41.687 -13.199  0.00  0.00    +0.000 C 
BRANCH  14  15
ATOM     15  N   UNL     1     -19.593  42.335 -14.472  0.00  0.00    +0.000 NA
ATOM     16  H   UNL     1     -19.253  43.296 -14.454  0.00  0.00    +0.000 HD
ATOM     17  H   UNL     1     -20.603  42.391 -14.599  0.00  0.00    +0.000 HD
ENDBRANCH  14  15
ENDBRANCH  13  14
ENDBRANCH   1  13
BRANCH   1  18
ATOM     18  C   UNL     1     -18.126  41.931 -10.604  0.00  0.00    +0.000 C 
BRANCH  18  22
ATOM     19  F   UNL     1     -17.938  40.495  -8.750  0.00  0.00    +0.000 F 
ATOM     20  F   UNL     1     -18.989  39.733 -10.502  0.00  0.00    +0.000 F 
ATOM     21  F   UNL     1     -16.816  39.963 -10.543  0.00  0.00    +0.000 F 
ATOM     22  C   UNL     1     -17.966  40.517 -10.102  0.00  0.00    +0.000 C 
ENDBRANCH  18  22
ENDBRANCH   1  18
TORSDOF 7
ENDMDL
MODEL 5
REMARK VINA RESULT:    -4.730      5.613      7.128
REMARK INTER + INTRA:          -7.000
REMARK INTER:                  -6.423
REMARK INTRA:                  -0.577
REMARK UNBOUND:                -0.472
REMARK  Name = 107494247
REMARK  7 active torsions:
REMARK  status: ('A' for Active; 'I' for Inactive)
REMARK    1  A    between atoms: N_5  and  C_9
REMARK    2  A    between atoms: N_5  and  C_10
REMARK    3  A    between atoms: N_5  and  C_11
REMARK    4  A    between atoms: N_7  and  C_12
REMARK    5  A    between atoms: C_9  and  C_12
REMARK    6  A    between atoms: C_10  and  C_14
REMARK    7  A    between atoms: C_13  and  C_16
REMARK                            x       y       z     vdW  Elec       q    Type
REMARK                         _______ _______ _______ _____ _____    ______ ____
ROOT
ATOM      1  N   UNL     1     -20.027  44.110 -16.635  0.00  0.00    +0.000 N 
ENDROOT
BRANCH   1   3
ATOM      2  N   UNL     1     -19.980  42.669 -14.771  0.00  0.00    +0.000 NA
ATOM      3  C   UNL     1     -19.548  43.810 -15.352  0.00  0.00    +0.000 A 
ATOM      4  C   UNL     1     -18.668  44.699 -14.757  0.00  0.00    +0.000 A 
ATOM      5  C   UNL     1     -18.200  44.397 -13.483  0.00  0.00    +0.000 A 
ATOM      6  C   UNL     1     -19.504  42.409 -13.532  0.00  0.00    +0.000 A 
ATOM      7  C   UNL     1     -18.621  43.232 -12.851  0.00  0.00    +0.000 A 
BRANCH   4  10
ATOM      8  O   UNL     1     -18.815  47.002 -15.230  0.00  0.00    +0.000 OA
ATOM      9  N   UNL     1     -17.099  45.850 -16.224  0.00  0.00    +0.000 N 
ATOM     10  C   UNL     1     -18.224  45.924 -15.408  0.00  0.00    +0.000 C 
ATOM     11  H   UNL     1     -16.597  44.981 -16.373  0.00  0.00    +0.000 HD
ATOM     12  H   UNL     1     -16.743  46.673 -16.697  0.00  0.00    +0.000 HD
ENDBRANCH   4  10
ENDBRANCH   1   3
BRANCH   1  13
ATOM     13  C   UNL     1     -19.562  43.395 -17.799  0.00  0.00    +0.000 C 
BRANCH  13  14
ATOM     14  C   UNL     1     -19.120  44.388 -18.866  0.00  0.00    +0.000 C 
BRANCH  14  15
ATOM     15  N   UNL     1     -17.669  44.528 -18.860  0.00  0.00    +0.000 NA
ATOM     16  H   UNL     1     -17.319  44.434 -17.907  0.00  0.00    +0.000 HD
ATOM     17  H   UNL     1     -17.418  45.468 -19.165  0.00  0.00    +0.000 HD
ENDBRANCH  14  15
ENDBRANCH  13  14
ENDBRANCH   1  13
BRANCH   1  18
ATOM     18  C   UNL     1     -21.027  45.165 -16.814  0.00  0.00    +0.000 C 
BRANCH  18  22
ATOM     19  F   UNL     1     -23.363  45.428 -16.735  0.00  0.00    +0.000 F 
ATOM     20  F   UNL     1     -22.546  44.239 -18.370  0.00  0.00    +0.000 F 
ATOM     21  F   UNL     1     -22.568  43.437 -16.336  0.00  0.00    +0.000 F 
ATOM     22  C   UNL     1     -22.384  44.557 -17.068  0.00  0.00    +0.000 C 
ENDBRANCH  18  22
ENDBRANCH   1  18
TORSDOF 7
ENDMDL
