MODEL 1
REMARK VINA RESULT:    -5.693      0.000      0.000
REMARK INTER + INTRA:          -7.261
REMARK INTER:                  -6.858
REMARK INTRA:                  -0.402
REMARK UNBOUND:                -0.402
REMARK  Name = 108069606
REMARK  6 active torsions:
REMARK  status: ('A' for Active; 'I' for Inactive)
REMARK    1  A    between atoms: N_3  and  C_6
REMARK    2  A    between atoms: N_3  and  C_10
REMARK    3  A    between atoms: N_5  and  C_12
REMARK    4  A    between atoms: C_6  and  C_7
REMARK    5  A    between atoms: C_7  and  C_11
REMARK    6  A    between atoms: C_8  and  C_9
REMARK                            x       y       z     vdW  Elec       q    Type
REMARK                         _______ _______ _______ _____ _____    ______ ____
ROOT
ATOM      1  F   UNL     1     -19.551  42.334  -6.786  0.00  0.00    +0.000 F 
ATOM      2  N   UNL     1     -20.543  39.909  -9.294  0.00  0.00    +0.000 NA
ATOM      3  C   UNL     1     -18.435  40.903  -9.935  0.00  0.00    +0.000 A 
ATOM      4  C   UNL     1     -19.496  40.036 -10.139  0.00  0.00    +0.000 A 
ATOM      5  C   UNL     1     -18.449  41.691  -8.790  0.00  0.00    +0.000 A 
ATOM      6  C   UNL     1     -19.510  41.589  -7.896  0.00  0.00    +0.000 A 
ATOM      7  C   UNL     1     -20.522  40.690  -8.192  0.00  0.00    +0.000 A 
ENDROOT
BRANCH   3  10
ATOM      8  O   UNL     1     -16.415  40.183 -10.760  0.00  0.00    +0.000 OA
ATOM      9  N   UNL     1     -17.356  42.064 -11.826  0.00  0.00    +0.000 N 
ATOM     10  C   UNL     1     -17.309  41.020 -10.875  0.00  0.00    +0.000 C 
ATOM     11  C   UNL     1     -18.476  43.012 -11.877  0.00  0.00    +0.000 C 
BRANCH   9  12
ATOM     12  C   UNL     1     -16.312  42.253 -12.794  0.00  0.00    +0.000 C 
BRANCH  12  13
ATOM     13  C   UNL     1     -15.513  43.525 -12.545  0.00  0.00    +0.000 C 
ATOM     14  C   UNL     1     -14.454  43.353 -11.465  0.00  0.00    +0.000 C 
ENDBRANCH  12  13
ENDBRANCH   9  12
ENDBRANCH   3  10
BRANCH   4  15
ATOM     15  N   UNL     1     -19.488  39.230 -11.306  0.00  0.00    +0.000 N 
ATOM     16  H   UNL     1     -19.460  39.686 -12.209  0.00  0.00    +0.000 HD
ATOM     17  H   UNL     1     -19.968  38.340 -11.244  0.00  0.00    +0.000 HD
ENDBRANCH   4  15
TORSDOF 4
ENDMDL
MODEL 2
REMARK VINA RESULT:    -5.233      1.664      2.222
REMARK INTER + INTRA:          -6.706
REMARK INTER:                  -6.324
REMARK INTRA:                  -0.382
REMARK UNBOUND:                -0.402
REMARK  Name = 108069606
REMARK  6 active torsions:
REMARK  status: ('A' for Active; 'I' for Inactive)
REMARK    1  A    between atoms: N_3  and  C_6
REMARK    2  A    between atoms: N_3  and  C_10
REMARK    3  A    between atoms: N_5  and  C_12
REMARK    4  A    between atoms: C_6  and  C_7
REMARK    5  A    between atoms: C_7  and  C_11
REMARK    6  A    between atoms: C_8  and  C_9
REMARK                            x       y       z     vdW  Elec       q    Type
REMARK                         _______ _______ _______ _____ _____    ______ ____
ROOT
ATOM      1  F   UNL     1     -19.846  41.468  -8.621  0.00  0.00    +0.000 F 
ATOM      2  N   UNL     1     -18.498  39.413 -11.289  0.00  0.00    +0.000 NA
ATOM      3  C   UNL     1     -17.289  41.504 -11.204  0.00  0.00    +0.000 A 
ATOM      4  C   UNL     1     -17.538  40.252 -11.739  0.00  0.00    +0.000 A 
ATOM      5  C   UNL     1     -18.076  41.925 -10.137  0.00  0.00    +0.000 A 
ATOM      6  C   UNL     1     -19.074  41.090  -9.645  0.00  0.00    +0.000 A 
ATOM      7  C   UNL     1     -19.242  39.855 -10.251  0.00  0.00    +0.000 A 
ENDROOT
BRANCH   3  10
ATOM      8  O   UNL     1     -15.105  42.217 -11.267  0.00  0.00    +0.000 OA
ATOM      9  N   UNL     1     -16.608  43.361 -12.679  0.00  0.00    +0.000 N 
ATOM     10  C   UNL     1     -16.236  42.396 -11.717  0.00  0.00    +0.000 C 
ATOM     11  C   UNL     1     -17.992  43.489 -13.148  0.00  0.00    +0.000 C 
BRANCH   9  12
ATOM     12  C   UNL     1     -15.651  44.267 -13.249  0.00  0.00    +0.000 C 
BRANCH  12  13
ATOM     13  C   UNL     1     -15.511  45.550 -12.439  0.00  0.00    +0.000 C 
ATOM     14  C   UNL     1     -14.140  45.691 -11.793  0.00  0.00    +0.000 C 
ENDBRANCH  12  13
ENDBRANCH   9  12
ENDBRANCH   3  10
BRANCH   4  15
ATOM     15  N   UNL     1     -16.740  39.817 -12.827  0.00  0.00    +0.000 N 
ATOM     16  H   UNL     1     -17.056  39.026 -13.375  0.00  0.00    +0.000 HD
ATOM     17  H   UNL     1     -15.740  39.956 -12.739  0.00  0.00    +0.000 HD
ENDBRANCH   4  15
TORSDOF 4
ENDMDL
MODEL 3
REMARK VINA RESULT:    -4.547      3.197      5.434
REMARK INTER + INTRA:          -5.880
REMARK INTER:                  -5.570
REMARK INTRA:                  -0.310
REMARK UNBOUND:                -0.402
REMARK  Name = 108069606
REMARK  6 active torsions:
REMARK  status: ('A' for Active; 'I' for Inactive)
REMARK    1  A    between atoms: N_3  and  C_6
REMARK    2  A    between atoms: N_3  and  C_10
REMARK    3  A    between atoms: N_5  and  C_12
REMARK    4  A    between atoms: C_6  and  C_7
REMARK    5  A    between atoms: C_7  and  C_11
REMARK    6  A    between atoms: C_8  and  C_9
REMARK                            x       y       z     vdW  Elec       q    Type
REMARK                         _______ _______ _______ _____ _____    ______ ____
ROOT
ATOM      1  F   UNL     1     -18.233  47.351 -10.930  0.00  0.00    +0.000 F 
ATOM      2  N   UNL     1     -15.228  46.007 -12.452  0.00  0.00    +0.000 NA
ATOM      3  C   UNL     1     -16.765  44.199 -11.990  0.00  0.00    +0.000 A 
ATOM      4  C   UNL     1     -15.563  44.697 -12.467  0.00  0.00    +0.000 A 
ATOM      5  C   UNL     1     -17.681  45.103 -11.463  0.00  0.00    +0.000 A 
ATOM      6  C   UNL     1     -17.372  46.458 -11.431  0.00  0.00    +0.000 A 
ATOM      7  C   UNL     1     -16.142  46.855 -11.934  0.00  0.00    +0.000 A 
ENDROOT
BRANCH   3  10
ATOM      8  O   UNL     1     -16.575  42.066 -11.155  0.00  0.00    +0.000 OA
ATOM      9  N   UNL     1     -18.001  42.327 -13.015  0.00  0.00    +0.000 N 
ATOM     10  C   UNL     1     -17.102  42.767 -12.019  0.00  0.00    +0.000 C 
ATOM     11  C   UNL     1     -18.575  43.251 -14.000  0.00  0.00    +0.000 C 
BRANCH   9  12
ATOM     12  C   UNL     1     -18.402  40.951 -13.118  0.00  0.00    +0.000 C 
BRANCH  12  13
ATOM     13  C   UNL     1     -19.526  40.601 -12.151  0.00  0.00    +0.000 C 
ATOM     14  C   UNL     1     -19.225  39.358 -11.324  0.00  0.00    +0.000 C 
ENDBRANCH  12  13
ENDBRANCH   9  12
ENDBRANCH   3  10
BRANCH   4  15
ATOM     15  N   UNL     1     -14.624  43.781 -13.005  0.00  0.00    +0.000 N 
ATOM     16  H   UNL     1     -14.933  43.135 -13.721  0.00  0.00    +0.000 HD
ATOM     17  H   UNL     1     -13.885  43.475 -12.385  0.00  0.00    +0.000 HD
ENDBRANCH   4  15
TORSDOF 4
ENDMDL
MODEL 4
REMARK VINA RESULT:    -4.315      3.144      4.250
REMARK INTER + INTRA:          -5.600
REMARK INTER:                  -5.354
REMARK INTRA:                  -0.246
REMARK UNBOUND:                -0.402
REMARK  Name = 108069606
REMARK  6 active torsions:
REMARK  status: ('A' for Active; 'I' for Inactive)
REMARK    1  A    between atoms: N_3  and  C_6
REMARK    2  A    between atoms: N_3  and  C_10
REMARK    3  A    between atoms: N_5  and  C_12
REMARK    4  A    between atoms: C_6  and  C_7
REMARK    5  A    between atoms: C_7  and  C_11
REMARK    6  A    between atoms: C_8  and  C_9
REMARK                            x       y       z     vdW  Elec       q    Type
REMARK                         _______ _______ _______ _____ _____    ______ ____
ROOT
ATOM      1  F   UNL     1     -18.443  40.851 -10.206  0.00  0.00    +0.000 F 
ATOM      2  N   UNL     1     -19.470  41.836 -13.542  0.00  0.00    +0.000 NA
ATOM      3  C   UNL     1     -17.670  43.271 -12.805  0.00  0.00    +0.000 A 
ATOM      4  C   UNL     1     -18.609  42.861 -13.737  0.00  0.00    +0.000 A 
ATOM      5  C   UNL     1     -17.609  42.587 -11.596  0.00  0.00    +0.000 A 
ATOM      6  C   UNL     1     -18.478  41.527 -11.359  0.00  0.00    +0.000 A 
ATOM      7  C   UNL     1     -19.381  41.195 -12.356  0.00  0.00    +0.000 A 
ENDROOT
BRANCH   3  10
ATOM      8  O   UNL     1     -15.651  44.102 -13.525  0.00  0.00    +0.000 OA
ATOM      9  N   UNL     1     -17.196  45.691 -12.720  0.00  0.00    +0.000 N 
ATOM     10  C   UNL     1     -16.746  44.392 -13.045  0.00  0.00    +0.000 C 
ATOM     11  C   UNL     1     -18.528  45.927 -12.150  0.00  0.00    +0.000 C 
BRANCH   9  12
ATOM     12  C   UNL     1     -16.374  46.850 -12.929  0.00  0.00    +0.000 C 
BRANCH  12  13
ATOM     13  C   UNL     1     -16.327  47.758 -11.707  0.00  0.00    +0.000 C 
ATOM     14  C   UNL     1     -14.976  47.732 -11.006  0.00  0.00    +0.000 C 
ENDBRANCH  12  13
ENDBRANCH   9  12
ENDBRANCH   3  10
BRANCH   4  15
ATOM     15  N   UNL     1     -18.677  43.555 -14.971  0.00  0.00    +0.000 N 
ATOM     16  H   UNL     1     -19.391  43.289 -15.638  0.00  0.00    +0.000 HD
ATOM     17  H   UNL     1     -17.803  43.911 -15.338  0.00  0.00    +0.000 HD
ENDBRANCH   4  15
TORSDOF 4
ENDMDL
MODEL 5
REMARK VINA RESULT:    -4.100     14.924     15.978
REMARK INTER + INTRA:          -5.341
REMARK INTER:                  -5.057
REMARK INTRA:                  -0.284
REMARK UNBOUND:                -0.402
REMARK  Name = 108069606
REMARK  6 active torsions:
REMARK  status: ('A' for Active; 'I' for Inactive)
REMARK    1  A    between atoms: N_3  and  C_6
REMARK    2  A    between atoms: N_3  and  C_10
REMARK    3  A    between atoms: N_5  and  C_12
REMARK    4  A    between atoms: C_6  and  C_7
REMARK    5  A    between atoms: C_7  and  C_11
REMARK    6  A    between atoms: C_8  and  C_9
REMARK                            x       y       z     vdW  Elec       q    Type
REMARK                         _______ _______ _______ _____ _____    ______ ____
ROOT
ATOM      1  F   UNL     1     -34.910  41.344 -11.264  0.00  0.00    +0.000 F 
ATOM      2  N   UNL     1     -35.380  44.598 -12.794  0.00  0.00    +0.000 NA
ATOM      3  C   UNL     1     -33.390  43.569 -13.703  0.00  0.00    +0.000 A 
ATOM      4  C   UNL     1     -34.304  44.607 -13.613  0.00  0.00    +0.000 A 
ATOM      5  C   UNL     1     -33.593  42.451 -12.902  0.00  0.00    +0.000 A 
ATOM      6  C   UNL     1     -34.689  42.406 -12.047  0.00  0.00    +0.000 A 
ATOM      7  C   UNL     1     -35.545  43.496 -12.032  0.00  0.00    +0.000 A 
ENDROOT
BRANCH   3  10
ATOM      8  O   UNL     1     -31.227  44.185 -14.178  0.00  0.00    +0.000 OA
ATOM      9  N   UNL     1     -32.351  42.974 -15.860  0.00  0.00    +0.000 N 
ATOM     10  C   UNL     1     -32.227  43.608 -14.604  0.00  0.00    +0.000 C 
ATOM     11  C   UNL     1     -33.594  42.310 -16.270  0.00  0.00    +0.000 C 
BRANCH   9  12
ATOM     12  C   UNL     1     -31.268  42.945 -16.803  0.00  0.00    +0.000 C 
BRANCH  12  13
ATOM     13  C   UNL     1     -30.824  41.527 -17.135  0.00  0.00    +0.000 C 
ATOM     14  C   UNL     1     -31.055  41.163 -18.595  0.00  0.00    +0.000 C 
ENDBRANCH  12  13
ENDBRANCH   9  12
ENDBRANCH   3  10
BRANCH   4  15
ATOM     15  N   UNL     1     -34.102  45.750 -14.427  0.00  0.00    +0.000 N 
ATOM     16  H   UNL     1     -33.691  46.575 -14.010  0.00  0.00    +0.000 HD
ATOM     17  H   UNL     1     -34.759  45.886 -15.186  0.00  0.00    +0.000 HD
ENDBRANCH   4  15
TORSDOF 4
ENDMDL
