MODEL 1
REMARK VINA RESULT:    -6.121      0.000      0.000
REMARK INTER + INTRA:          -6.946
REMARK INTER:                  -7.015
REMARK INTRA:                   0.069
REMARK UNBOUND:                 0.069
REMARK  Name = 108069175
REMARK  6 active torsions:
REMARK  status: ('A' for Active; 'I' for Inactive)
REMARK    1  A    between atoms: N_3  and  C_6
REMARK    2  A    between atoms: N_5  and  C_12
REMARK    3  A    between atoms: C_6  and  C_7
REMARK    4  A    between atoms: C_6  and  C_8
REMARK    5  A    between atoms: C_6  and  C_9
REMARK    6  A    between atoms: C_10  and  C_11
REMARK                            x       y       z     vdW  Elec       q    Type
REMARK                         _______ _______ _______ _____ _____    ______ ____
ROOT
ATOM      1  F   UNL     1     -19.976  42.304  -6.290  0.00  0.00    +0.000 F 
ATOM      2  N   UNL     1     -20.733  39.955  -8.949  0.00  0.00    +0.000 NA
ATOM      3  C   UNL     1     -18.757  41.217  -9.537  0.00  0.00    +0.000 A 
ATOM      4  C   UNL     1     -19.719  40.253  -9.791  0.00  0.00    +0.000 A 
ATOM      5  C   UNL     1     -18.842  41.921  -8.340  0.00  0.00    +0.000 A 
ATOM      6  C   UNL     1     -19.871  41.643  -7.448  0.00  0.00    +0.000 A 
ATOM      7  C   UNL     1     -20.783  40.660  -7.796  0.00  0.00    +0.000 A 
ENDROOT
BRANCH   3  10
ATOM      8  O   UNL     1     -16.943  40.606 -10.893  0.00  0.00    +0.000 OA
ATOM      9  N   UNL     1     -17.530  42.848 -10.851  0.00  0.00    +0.000 N 
ATOM     10  C   UNL     1     -17.653  41.522 -10.483  0.00  0.00    +0.000 C 
ATOM     11  H   UNL     1     -18.169  43.534 -10.457  0.00  0.00    +0.000 HD
BRANCH   9  12
ATOM     12  C   UNL     1     -16.517  43.301 -11.787  0.00  0.00    +0.000 C 
ATOM     13  C   UNL     1     -15.131  42.911 -11.263  0.00  0.00    +0.000 C 
ATOM     14  C   UNL     1     -16.762  42.641 -13.148  0.00  0.00    +0.000 C 
ATOM     15  C   UNL     1     -16.603  44.825 -11.927  0.00  0.00    +0.000 C 
ENDBRANCH   9  12
ENDBRANCH   3  10
BRANCH   4  16
ATOM     16  N   UNL     1     -19.639  39.531 -11.009  0.00  0.00    +0.000 N 
ATOM     17  H   UNL     1     -20.202  39.838 -11.792  0.00  0.00    +0.000 HD
ATOM     18  H   UNL     1     -19.436  38.542 -10.936  0.00  0.00    +0.000 HD
ENDBRANCH   4  16
TORSDOF 3
ENDMDL
MODEL 2
REMARK VINA RESULT:    -5.657      1.030      1.570
REMARK INTER + INTRA:          -6.414
REMARK INTER:                  -6.529
REMARK INTRA:                   0.114
REMARK UNBOUND:                 0.069
REMARK  Name = 108069175
REMARK  6 active torsions:
REMARK  status: ('A' for Active; 'I' for Inactive)
REMARK    1  A    between atoms: N_3  and  C_6
REMARK    2  A    between atoms: N_5  and  C_12
REMARK    3  A    between atoms: C_6  and  C_7
REMARK    4  A    between atoms: C_6  and  C_8
REMARK    5  A    between atoms: C_6  and  C_9
REMARK    6  A    between atoms: C_10  and  C_11
REMARK                            x       y       z     vdW  Elec       q    Type
REMARK                         _______ _______ _______ _____ _____    ______ ____
ROOT
ATOM      1  F   UNL     1     -19.569  41.673  -6.793  0.00  0.00    +0.000 F 
ATOM      2  N   UNL     1     -19.950  39.610  -9.753  0.00  0.00    +0.000 NA
ATOM      3  C   UNL     1     -18.391  41.398 -10.220  0.00  0.00    +0.000 A 
ATOM      4  C   UNL     1     -19.110  40.269 -10.582  0.00  0.00    +0.000 A 
ATOM      5  C   UNL     1     -18.546  41.881  -8.925  0.00  0.00    +0.000 A 
ATOM      6  C   UNL     1     -19.402  41.230  -8.044  0.00  0.00    +0.000 A 
ATOM      7  C   UNL     1     -20.075  40.110  -8.503  0.00  0.00    +0.000 A 
ENDROOT
BRANCH   3  10
ATOM      8  O   UNL     1     -16.688  41.443 -11.833  0.00  0.00    +0.000 OA
ATOM      9  N   UNL     1     -17.603  43.476 -11.198  0.00  0.00    +0.000 N 
ATOM     10  C   UNL     1     -17.474  42.101 -11.154  0.00  0.00    +0.000 C 
ATOM     11  H   UNL     1     -18.287  43.930 -10.596  0.00  0.00    +0.000 HD
BRANCH   9  12
ATOM     12  C   UNL     1     -16.797  44.302 -12.078  0.00  0.00    +0.000 C 
ATOM     13  C   UNL     1     -17.216  44.054 -13.531  0.00  0.00    +0.000 C 
ATOM     14  C   UNL     1     -17.015  45.776 -11.719  0.00  0.00    +0.000 C 
ATOM     15  C   UNL     1     -15.318  43.938 -11.900  0.00  0.00    +0.000 C 
ENDBRANCH   9  12
ENDBRANCH   3  10
BRANCH   4  16
ATOM     16  N   UNL     1     -18.957  39.771 -11.900  0.00  0.00    +0.000 N 
ATOM     17  H   UNL     1     -19.586  40.104 -12.620  0.00  0.00    +0.000 HD
ATOM     18  H   UNL     1     -18.600  38.828 -11.989  0.00  0.00    +0.000 HD
ENDBRANCH   4  16
TORSDOF 3
ENDMDL
MODEL 3
REMARK VINA RESULT:    -5.203      2.664      3.394
REMARK INTER + INTRA:          -5.895
REMARK INTER:                  -5.973
REMARK INTRA:                   0.078
REMARK UNBOUND:                 0.069
REMARK  Name = 108069175
REMARK  6 active torsions:
REMARK  status: ('A' for Active; 'I' for Inactive)
REMARK    1  A    between atoms: N_3  and  C_6
REMARK    2  A    between atoms: N_5  and  C_12
REMARK    3  A    between atoms: C_6  and  C_7
REMARK    4  A    between atoms: C_6  and  C_8
REMARK    5  A    between atoms: C_6  and  C_9
REMARK    6  A    between atoms: C_10  and  C_11
REMARK                            x       y       z     vdW  Elec       q    Type
REMARK                         _______ _______ _______ _____ _____    ______ ____
ROOT
ATOM      1  F   UNL     1     -18.160  40.112  -9.162  0.00  0.00    +0.000 F 
ATOM      2  N   UNL     1     -19.522  40.328 -12.518  0.00  0.00    +0.000 NA
ATOM      3  C   UNL     1     -18.379  42.391 -11.985  0.00  0.00    +0.000 A 
ATOM      4  C   UNL     1     -19.109  41.576 -12.835  0.00  0.00    +0.000 A 
ATOM      5  C   UNL     1     -18.053  41.894 -10.727  0.00  0.00    +0.000 A 
ATOM      6  C   UNL     1     -18.461  40.615 -10.365  0.00  0.00    +0.000 A 
ATOM      7  C   UNL     1     -19.186  39.880 -11.288  0.00  0.00    +0.000 A 
ENDROOT
BRANCH   3  10
ATOM      8  O   UNL     1     -18.744  44.525 -12.886  0.00  0.00    +0.000 OA
ATOM      9  N   UNL     1     -16.626  44.068 -12.063  0.00  0.00    +0.000 N 
ATOM     10  C   UNL     1     -17.939  43.759 -12.363  0.00  0.00    +0.000 C 
ATOM     11  H   UNL     1     -16.037  43.364 -11.627  0.00  0.00    +0.000 HD
BRANCH   9  12
ATOM     12  C   UNL     1     -16.054  45.372 -12.347  0.00  0.00    +0.000 C 
ATOM     13  C   UNL     1     -16.845  46.448 -11.596  0.00  0.00    +0.000 C 
ATOM     14  C   UNL     1     -14.591  45.387 -11.889  0.00  0.00    +0.000 C 
ATOM     15  C   UNL     1     -16.127  45.639 -13.855  0.00  0.00    +0.000 C 
ENDBRANCH   9  12
ENDBRANCH   3  10
BRANCH   4  16
ATOM     16  N   UNL     1     -19.446  42.076 -14.118  0.00  0.00    +0.000 N 
ATOM     17  H   UNL     1     -20.416  42.282 -14.319  0.00  0.00    +0.000 HD
ATOM     18  H   UNL     1     -18.860  41.776 -14.888  0.00  0.00    +0.000 HD
ENDBRANCH   4  16
TORSDOF 3
ENDMDL
MODEL 4
REMARK VINA RESULT:    -5.162      4.319      5.690
REMARK INTER + INTRA:          -5.848
REMARK INTER:                  -6.015
REMARK INTRA:                   0.167
REMARK UNBOUND:                 0.069
REMARK  Name = 108069175
REMARK  6 active torsions:
REMARK  status: ('A' for Active; 'I' for Inactive)
REMARK    1  A    between atoms: N_3  and  C_6
REMARK    2  A    between atoms: N_5  and  C_12
REMARK    3  A    between atoms: C_6  and  C_7
REMARK    4  A    between atoms: C_6  and  C_8
REMARK    5  A    between atoms: C_6  and  C_9
REMARK    6  A    between atoms: C_10  and  C_11
REMARK                            x       y       z     vdW  Elec       q    Type
REMARK                         _______ _______ _______ _____ _____    ______ ____
ROOT
ATOM      1  F   UNL     1     -17.344  45.703 -11.340  0.00  0.00    +0.000 F 
ATOM      2  N   UNL     1     -17.752  42.127 -11.794  0.00  0.00    +0.000 NA
ATOM      3  C   UNL     1     -18.912  43.295 -13.565  0.00  0.00    +0.000 A 
ATOM      4  C   UNL     1     -18.507  42.140 -12.915  0.00  0.00    +0.000 A 
ATOM      5  C   UNL     1     -18.516  44.516 -13.029  0.00  0.00    +0.000 A 
ATOM      6  C   UNL     1     -17.739  44.543 -11.876  0.00  0.00    +0.000 A 
ATOM      7  C   UNL     1     -17.387  43.332 -11.303  0.00  0.00    +0.000 A 
ENDROOT
BRANCH   3  10
ATOM      8  O   UNL     1     -20.835  42.714 -14.776  0.00  0.00    +0.000 OA
ATOM      9  N   UNL     1     -19.207  43.932 -15.889  0.00  0.00    +0.000 N 
ATOM     10  C   UNL     1     -19.742  43.276 -14.797  0.00  0.00    +0.000 C 
ATOM     11  H   UNL     1     -18.292  44.370 -15.806  0.00  0.00    +0.000 HD
BRANCH   9  12
ATOM     12  C   UNL     1     -19.907  44.024 -17.157  0.00  0.00    +0.000 C 
ATOM     13  C   UNL     1     -20.549  42.671 -17.482  0.00  0.00    +0.000 C 
ATOM     14  C   UNL     1     -20.993  45.102 -17.052  0.00  0.00    +0.000 C 
ATOM     15  C   UNL     1     -18.911  44.399 -18.260  0.00  0.00    +0.000 C 
ENDBRANCH   9  12
ENDBRANCH   3  10
BRANCH   4  16
ATOM     16  N   UNL     1     -18.907  40.892 -13.456  0.00  0.00    +0.000 N 
ATOM     17  H   UNL     1     -18.636  40.045 -12.973  0.00  0.00    +0.000 HD
ATOM     18  H   UNL     1     -19.006  40.846 -14.463  0.00  0.00    +0.000 HD
ENDBRANCH   4  16
TORSDOF 3
ENDMDL
MODEL 5
REMARK VINA RESULT:    -5.068      2.840      5.565
REMARK INTER + INTRA:          -5.740
REMARK INTER:                  -5.813
REMARK INTRA:                   0.073
REMARK UNBOUND:                 0.069
REMARK  Name = 108069175
REMARK  6 active torsions:
REMARK  status: ('A' for Active; 'I' for Inactive)
REMARK    1  A    between atoms: N_3  and  C_6
REMARK    2  A    between atoms: N_5  and  C_12
REMARK    3  A    between atoms: C_6  and  C_7
REMARK    4  A    between atoms: C_6  and  C_8
REMARK    5  A    between atoms: C_6  and  C_9
REMARK    6  A    between atoms: C_10  and  C_11
REMARK                            x       y       z     vdW  Elec       q    Type
REMARK                         _______ _______ _______ _____ _____    ______ ____
ROOT
ATOM      1  F   UNL     1     -18.195  47.187 -11.148  0.00  0.00    +0.000 F 
ATOM      2  N   UNL     1     -15.055  45.716 -12.213  0.00  0.00    +0.000 NA
ATOM      3  C   UNL     1     -16.763  44.005 -12.163  0.00  0.00    +0.000 A 
ATOM      4  C   UNL     1     -15.465  44.439 -12.384  0.00  0.00    +0.000 A 
ATOM      5  C   UNL     1     -17.700  44.942 -11.740  0.00  0.00    +0.000 A 
ATOM      6  C   UNL     1     -17.315  46.265 -11.553  0.00  0.00    +0.000 A 
ATOM      7  C   UNL     1     -15.993  46.597 -11.801  0.00  0.00    +0.000 A 
ENDROOT
BRANCH   3  10
ATOM      8  O   UNL     1     -16.952  42.042 -13.433  0.00  0.00    +0.000 OA
ATOM      9  N   UNL     1     -17.799  41.997 -11.277  0.00  0.00    +0.000 N 
ATOM     10  C   UNL     1     -17.184  42.594 -12.360  0.00  0.00    +0.000 C 
ATOM     11  H   UNL     1     -17.945  42.538 -10.428  0.00  0.00    +0.000 HD
BRANCH   9  12
ATOM     12  C   UNL     1     -18.245  40.616 -11.303  0.00  0.00    +0.000 C 
ATOM     13  C   UNL     1     -19.352  40.460 -12.352  0.00  0.00    +0.000 C 
ATOM     14  C   UNL     1     -17.059  39.714 -11.663  0.00  0.00    +0.000 C 
ATOM     15  C   UNL     1     -18.788  40.232  -9.922  0.00  0.00    +0.000 C 
ENDBRANCH   9  12
ENDBRANCH   3  10
BRANCH   4  16
ATOM     16  N   UNL     1     -14.505  43.489 -12.815  0.00  0.00    +0.000 N 
ATOM     17  H   UNL     1     -13.871  43.745 -13.561  0.00  0.00    +0.000 HD
ATOM     18  H   UNL     1     -14.766  42.514 -12.735  0.00  0.00    +0.000 HD
ENDBRANCH   4  16
TORSDOF 3
ENDMDL
