MODEL 1
REMARK VINA RESULT:    -5.639      0.000      0.000
REMARK INTER + INTRA:          -6.315
REMARK INTER:                  -6.133
REMARK INTRA:                  -0.182
REMARK UNBOUND:                -0.182
REMARK  Name = 108069140
REMARK  4 active torsions:
REMARK  status: ('A' for Active; 'I' for Inactive)
REMARK    1  A    between atoms: N_3  and  C_10
REMARK    2  A    between atoms: N_3  and  C_11
REMARK    3  A    between atoms: N_5  and  C_8
REMARK    4  A    between atoms: C_6  and  C_7
REMARK                            x       y       z     vdW  Elec       q    Type
REMARK                         _______ _______ _______ _____ _____    ______ ____
ROOT
ATOM      1  F   UNL     1     -19.569  42.279  -6.817  0.00  0.00    +0.000 F 
ATOM      2  N   UNL     1     -20.498  39.875  -9.370  0.00  0.00    +0.000 NA
ATOM      3  C   UNL     1     -18.396  40.906  -9.971  0.00  0.00    +0.000 A 
ATOM      4  C   UNL     1     -19.442  40.028 -10.200  0.00  0.00    +0.000 A 
ATOM      5  C   UNL     1     -18.436  41.679  -8.815  0.00  0.00    +0.000 A 
ATOM      6  C   UNL     1     -19.505  41.550  -7.936  0.00  0.00    +0.000 A 
ATOM      7  C   UNL     1     -20.502  40.643  -8.256  0.00  0.00    +0.000 A 
ENDROOT
BRANCH   3  10
ATOM      8  O   UNL     1     -16.369  40.206 -10.799  0.00  0.00    +0.000 OA
ATOM      9  N   UNL     1     -17.278  42.107 -11.812  0.00  0.00    +0.000 N 
ATOM     10  C   UNL     1     -17.260  41.050 -10.896  0.00  0.00    +0.000 C 
ATOM     11  C   UNL     1     -18.376  43.071 -11.865  0.00  0.00    +0.000 C 
ATOM     12  C   UNL     1     -16.206  42.318 -12.773  0.00  0.00    +0.000 C 
ENDBRANCH   3  10
BRANCH   4  13
ATOM     13  N   UNL     1     -19.409  39.237 -11.377  0.00  0.00    +0.000 N 
ATOM     14  H   UNL     1     -18.926  38.349 -11.348  0.00  0.00    +0.000 HD
ATOM     15  H   UNL     1     -19.421  39.738 -12.258  0.00  0.00    +0.000 HD
ENDBRANCH   4  13
TORSDOF 2
ENDMDL
MODEL 2
REMARK VINA RESULT:    -5.489      1.929      2.408
REMARK INTER + INTRA:          -6.152
REMARK INTER:                  -6.027
REMARK INTRA:                  -0.125
REMARK UNBOUND:                -0.182
REMARK  Name = 108069140
REMARK  4 active torsions:
REMARK  status: ('A' for Active; 'I' for Inactive)
REMARK    1  A    between atoms: N_3  and  C_10
REMARK    2  A    between atoms: N_3  and  C_11
REMARK    3  A    between atoms: N_5  and  C_8
REMARK    4  A    between atoms: C_6  and  C_7
REMARK                            x       y       z     vdW  Elec       q    Type
REMARK                         _______ _______ _______ _____ _____    ______ ____
ROOT
ATOM      1  F   UNL     1     -21.851  39.710  -8.261  0.00  0.00    +0.000 F 
ATOM      2  N   UNL     1     -19.265  42.248  -8.072  0.00  0.00    +0.000 NA
ATOM      3  C   UNL     1     -18.761  40.728  -9.882  0.00  0.00    +0.000 A 
ATOM      4  C   UNL     1     -18.485  41.834  -9.095  0.00  0.00    +0.000 A 
ATOM      5  C   UNL     1     -19.911  39.998  -9.600  0.00  0.00    +0.000 A 
ATOM      6  C   UNL     1     -20.739  40.392  -8.555  0.00  0.00    +0.000 A 
ATOM      7  C   UNL     1     -20.375  41.514  -7.827  0.00  0.00    +0.000 A 
ENDROOT
BRANCH   3  10
ATOM      8  O   UNL     1     -16.838  39.749 -10.674  0.00  0.00    +0.000 OA
ATOM      9  N   UNL     1     -18.320  40.537 -12.301  0.00  0.00    +0.000 N 
ATOM     10  C   UNL     1     -17.891  40.301 -10.991  0.00  0.00    +0.000 C 
ATOM     11  C   UNL     1     -19.589  41.200 -12.596  0.00  0.00    +0.000 C 
ATOM     12  C   UNL     1     -17.534  40.136 -13.458  0.00  0.00    +0.000 C 
ENDBRANCH   3  10
BRANCH   4  13
ATOM     13  N   UNL     1     -17.314  42.582  -9.377  0.00  0.00    +0.000 N 
ATOM     14  H   UNL     1     -17.259  43.080 -10.256  0.00  0.00    +0.000 HD
ATOM     15  H   UNL     1     -16.450  42.235  -8.977  0.00  0.00    +0.000 HD
ENDBRANCH   4  13
TORSDOF 2
ENDMDL
MODEL 3
REMARK VINA RESULT:    -5.216      1.673      2.215
REMARK INTER + INTRA:          -5.856
REMARK INTER:                  -5.679
REMARK INTRA:                  -0.177
REMARK UNBOUND:                -0.182
REMARK  Name = 108069140
REMARK  4 active torsions:
REMARK  status: ('A' for Active; 'I' for Inactive)
REMARK    1  A    between atoms: N_3  and  C_10
REMARK    2  A    between atoms: N_3  and  C_11
REMARK    3  A    between atoms: N_5  and  C_8
REMARK    4  A    between atoms: C_6  and  C_7
REMARK                            x       y       z     vdW  Elec       q    Type
REMARK                         _______ _______ _______ _____ _____    ______ ____
ROOT
ATOM      1  F   UNL     1     -19.313  41.778  -8.205  0.00  0.00    +0.000 F 
ATOM      2  N   UNL     1     -18.203  39.654 -10.928  0.00  0.00    +0.000 NA
ATOM      3  C   UNL     1     -17.101  41.799 -11.089  0.00  0.00    +0.000 A 
ATOM      4  C   UNL     1     -17.350  40.511 -11.533  0.00  0.00    +0.000 A 
ATOM      5  C   UNL     1     -17.770  42.237  -9.951  0.00  0.00    +0.000 A 
ATOM      6  C   UNL     1     -18.655  41.385  -9.301  0.00  0.00    +0.000 A 
ATOM      7  C   UNL     1     -18.835  40.115  -9.825  0.00  0.00    +0.000 A 
ENDROOT
BRANCH   3  10
ATOM      8  O   UNL     1     -14.986  42.637 -11.425  0.00  0.00    +0.000 OA
ATOM      9  N   UNL     1     -16.670  43.567 -12.753  0.00  0.00    +0.000 N 
ATOM     10  C   UNL     1     -16.165  42.710 -11.770  0.00  0.00    +0.000 C 
ATOM     11  C   UNL     1     -18.088  43.594 -13.109  0.00  0.00    +0.000 C 
ATOM     12  C   UNL     1     -15.818  44.490 -13.489  0.00  0.00    +0.000 C 
ENDBRANCH   3  10
BRANCH   4  13
ATOM     13  N   UNL     1     -16.671  40.058 -12.692  0.00  0.00    +0.000 N 
ATOM     14  H   UNL     1     -15.671  40.201 -12.754  0.00  0.00    +0.000 HD
ATOM     15  H   UNL     1     -17.201  40.063 -13.557  0.00  0.00    +0.000 HD
ENDBRANCH   4  13
TORSDOF 2
ENDMDL
MODEL 4
REMARK VINA RESULT:    -4.891      2.735      4.846
REMARK INTER + INTRA:          -5.502
REMARK INTER:                  -5.329
REMARK INTRA:                  -0.173
REMARK UNBOUND:                -0.182
REMARK  Name = 108069140
REMARK  4 active torsions:
REMARK  status: ('A' for Active; 'I' for Inactive)
REMARK    1  A    between atoms: N_3  and  C_10
REMARK    2  A    between atoms: N_3  and  C_11
REMARK    3  A    between atoms: N_5  and  C_8
REMARK    4  A    between atoms: C_6  and  C_7
REMARK                            x       y       z     vdW  Elec       q    Type
REMARK                         _______ _______ _______ _____ _____    ______ ____
ROOT
ATOM      1  F   UNL     1     -17.947  45.836 -13.193  0.00  0.00    +0.000 F 
ATOM      2  N   UNL     1     -15.513  43.205 -12.633  0.00  0.00    +0.000 NA
ATOM      3  C   UNL     1     -17.416  42.855 -11.183  0.00  0.00    +0.000 A 
ATOM      4  C   UNL     1     -16.170  42.507 -11.679  0.00  0.00    +0.000 A 
ATOM      5  C   UNL     1     -18.028  43.994 -11.698  0.00  0.00    +0.000 A 
ATOM      6  C   UNL     1     -17.384  44.738 -12.680  0.00  0.00    +0.000 A 
ATOM      7  C   UNL     1     -16.139  44.306 -13.109  0.00  0.00    +0.000 A 
ENDROOT
BRANCH   3  10
ATOM      8  O   UNL     1     -17.853  42.377  -8.978  0.00  0.00    +0.000 OA
ATOM      9  N   UNL     1     -18.995  41.071 -10.545  0.00  0.00    +0.000 N 
ATOM     10  C   UNL     1     -18.106  42.074 -10.143  0.00  0.00    +0.000 C 
ATOM     11  C   UNL     1     -19.243  40.771 -11.954  0.00  0.00    +0.000 C 
ATOM     12  C   UNL     1     -19.732  40.260  -9.588  0.00  0.00    +0.000 C 
ENDBRANCH   3  10
BRANCH   4  13
ATOM     13  N   UNL     1     -15.541  41.348 -11.159  0.00  0.00    +0.000 N 
ATOM     14  H   UNL     1     -15.325  40.589 -11.793  0.00  0.00    +0.000 HD
ATOM     15  H   UNL     1     -15.756  41.111 -10.197  0.00  0.00    +0.000 HD
ENDBRANCH   4  13
TORSDOF 2
ENDMDL
MODEL 5
REMARK VINA RESULT:    -4.782      1.781      2.172
REMARK INTER + INTRA:          -5.384
REMARK INTER:                  -5.220
REMARK INTRA:                  -0.164
REMARK UNBOUND:                -0.182
REMARK  Name = 108069140
REMARK  4 active torsions:
REMARK  status: ('A' for Active; 'I' for Inactive)
REMARK    1  A    between atoms: N_3  and  C_10
REMARK    2  A    between atoms: N_3  and  C_11
REMARK    3  A    between atoms: N_5  and  C_8
REMARK    4  A    between atoms: C_6  and  C_7
REMARK                            x       y       z     vdW  Elec       q    Type
REMARK                         _______ _______ _______ _____ _____    ______ ____
ROOT
ATOM      1  F   UNL     1     -19.589  41.344  -8.007  0.00  0.00    +0.000 F 
ATOM      2  N   UNL     1     -19.288  39.324 -11.005  0.00  0.00    +0.000 NA
ATOM      3  C   UNL     1     -18.482  41.556 -11.462  0.00  0.00    +0.000 A 
ATOM      4  C   UNL     1     -18.760  40.251 -11.835  0.00  0.00    +0.000 A 
ATOM      5  C   UNL     1     -18.764  41.935 -10.154  0.00  0.00    +0.000 A 
ATOM      6  C   UNL     1     -19.307  41.009  -9.271  0.00  0.00    +0.000 A 
ATOM      7  C   UNL     1     -19.549  39.728  -9.741  0.00  0.00    +0.000 A 
ENDROOT
BRANCH   3  10
ATOM      8  O   UNL     1     -18.689  43.063 -13.186  0.00  0.00    +0.000 OA
ATOM      9  N   UNL     1     -16.541  42.829 -12.295  0.00  0.00    +0.000 N 
ATOM     10  C   UNL     1     -17.907  42.544 -12.390  0.00  0.00    +0.000 C 
ATOM     11  C   UNL     1     -15.675  42.169 -11.320  0.00  0.00    +0.000 C 
ATOM     12  C   UNL     1     -15.890  43.802 -13.160  0.00  0.00    +0.000 C 
ENDBRANCH   3  10
BRANCH   4  13
ATOM     13  N   UNL     1     -18.476  39.859 -13.167  0.00  0.00    +0.000 N 
ATOM     14  H   UNL     1     -18.887  39.003 -13.517  0.00  0.00    +0.000 HD
ATOM     15  H   UNL     1     -17.570  40.130 -13.534  0.00  0.00    +0.000 HD
ENDBRANCH   4  13
TORSDOF 2
ENDMDL
