MODEL 1
REMARK VINA RESULT:    -6.029      0.000      0.000
REMARK INTER + INTRA:          -7.643
REMARK INTER:                  -7.262
REMARK INTRA:                  -0.381
REMARK UNBOUND:                -0.381
REMARK  Name = 108069160
REMARK  5 active torsions:
REMARK  status: ('A' for Active; 'I' for Inactive)
REMARK    1  A    between atoms: N_3  and  C_6
REMARK    2  A    between atoms: N_5  and  C_11
REMARK    3  A    between atoms: C_6  and  C_7
REMARK    4  A    between atoms: C_7  and  C_10
REMARK    5  A    between atoms: C_8  and  C_9
REMARK                            x       y       z     vdW  Elec       q    Type
REMARK                         _______ _______ _______ _____ _____    ______ ____
ROOT
ATOM      1  F   UNL     1     -15.462  43.567 -11.738  0.00  0.00    +0.000 F 
ATOM      2  N   UNL     1     -18.253  41.964 -13.408  0.00  0.00    +0.000 NA
ATOM      3  C   UNL     1     -18.311  41.417 -11.055  0.00  0.00    +0.000 A 
ATOM      4  C   UNL     1     -18.810  41.343 -12.345  0.00  0.00    +0.000 A 
ATOM      5  C   UNL     1     -17.166  42.176 -10.842  0.00  0.00    +0.000 A 
ATOM      6  C   UNL     1     -16.564  42.830 -11.912  0.00  0.00    +0.000 A 
ATOM      7  C   UNL     1     -17.141  42.693 -13.165  0.00  0.00    +0.000 A 
ENDROOT
BRANCH   3  10
ATOM      8  O   UNL     1     -19.321  39.560 -10.040  0.00  0.00    +0.000 OA
ATOM      9  N   UNL     1     -19.048  41.454  -8.728  0.00  0.00    +0.000 N 
ATOM     10  C   UNL     1     -18.946  40.722  -9.905  0.00  0.00    +0.000 C 
ATOM     11  H   UNL     1     -18.695  42.406  -8.702  0.00  0.00    +0.000 HD
BRANCH   9  12
ATOM     12  C   UNL     1     -19.615  40.912  -7.524  0.00  0.00    +0.000 C 
BRANCH  12  13
ATOM     13  C   UNL     1     -20.375  41.957  -6.717  0.00  0.00    +0.000 C 
ATOM     14  C   UNL     1     -21.850  42.025  -7.085  0.00  0.00    +0.000 C 
ENDBRANCH  12  13
ENDBRANCH   9  12
ENDBRANCH   3  10
BRANCH   4  15
ATOM     15  N   UNL     1     -19.977  40.570 -12.570  0.00  0.00    +0.000 N 
ATOM     16  H   UNL     1     -19.979  39.600 -12.279  0.00  0.00    +0.000 HD
ATOM     17  H   UNL     1     -20.537  40.820 -13.375  0.00  0.00    +0.000 HD
ENDBRANCH   4  15
TORSDOF 4
ENDMDL
MODEL 2
REMARK VINA RESULT:    -5.821      1.881      2.222
REMARK INTER + INTRA:          -7.393
REMARK INTER:                  -6.981
REMARK INTRA:                  -0.412
REMARK UNBOUND:                -0.381
REMARK  Name = 108069160
REMARK  5 active torsions:
REMARK  status: ('A' for Active; 'I' for Inactive)
REMARK    1  A    between atoms: N_3  and  C_6
REMARK    2  A    between atoms: N_5  and  C_11
REMARK    3  A    between atoms: C_6  and  C_7
REMARK    4  A    between atoms: C_7  and  C_10
REMARK    5  A    between atoms: C_8  and  C_9
REMARK                            x       y       z     vdW  Elec       q    Type
REMARK                         _______ _______ _______ _____ _____    ______ ____
ROOT
ATOM      1  F   UNL     1     -19.054  43.877 -14.129  0.00  0.00    +0.000 F 
ATOM      2  N   UNL     1     -16.285  42.361 -12.344  0.00  0.00    +0.000 NA
ATOM      3  C   UNL     1     -18.355  41.360 -11.601  0.00  0.00    +0.000 A 
ATOM      4  C   UNL     1     -16.977  41.492 -11.574  0.00  0.00    +0.000 A 
ATOM      5  C   UNL     1     -19.070  42.174 -12.473  0.00  0.00    +0.000 A 
ATOM      6  C   UNL     1     -18.393  43.081 -13.281  0.00  0.00    +0.000 A 
ATOM      7  C   UNL     1     -17.012  43.136 -13.179  0.00  0.00    +0.000 A 
ENDROOT
BRANCH   3  10
ATOM      8  O   UNL     1     -19.002  39.193 -10.983  0.00  0.00    +0.000 OA
ATOM      9  N   UNL     1     -19.817  40.940  -9.692  0.00  0.00    +0.000 N 
ATOM     10  C   UNL     1     -19.088  40.395 -10.743  0.00  0.00    +0.000 C 
ATOM     11  H   UNL     1     -19.818  41.947  -9.557  0.00  0.00    +0.000 HD
BRANCH   9  12
ATOM     12  C   UNL     1     -20.557  40.134  -8.761  0.00  0.00    +0.000 C 
BRANCH  12  13
ATOM     13  C   UNL     1     -21.565  40.949  -7.960  0.00  0.00    +0.000 C 
ATOM     14  C   UNL     1     -20.909  42.041  -7.127  0.00  0.00    +0.000 C 
ENDBRANCH  12  13
ENDBRANCH   9  12
ENDBRANCH   3  10
BRANCH   4  15
ATOM     15  N   UNL     1     -16.241  40.666 -10.688  0.00  0.00    +0.000 N 
ATOM     16  H   UNL     1     -15.315  40.964 -10.406  0.00  0.00    +0.000 HD
ATOM     17  H   UNL     1     -16.417  39.671 -10.745  0.00  0.00    +0.000 HD
ENDBRANCH   4  15
TORSDOF 4
ENDMDL
MODEL 3
REMARK VINA RESULT:    -5.760      2.534      4.901
REMARK INTER + INTRA:          -7.319
REMARK INTER:                  -6.878
REMARK INTRA:                  -0.441
REMARK UNBOUND:                -0.381
REMARK  Name = 108069160
REMARK  5 active torsions:
REMARK  status: ('A' for Active; 'I' for Inactive)
REMARK    1  A    between atoms: N_3  and  C_6
REMARK    2  A    between atoms: N_5  and  C_11
REMARK    3  A    between atoms: C_6  and  C_7
REMARK    4  A    between atoms: C_7  and  C_10
REMARK    5  A    between atoms: C_8  and  C_9
REMARK                            x       y       z     vdW  Elec       q    Type
REMARK                         _______ _______ _______ _____ _____    ______ ____
ROOT
ATOM      1  F   UNL     1     -19.704  42.340  -6.437  0.00  0.00    +0.000 F 
ATOM      2  N   UNL     1     -20.740  40.074  -9.072  0.00  0.00    +0.000 NA
ATOM      3  C   UNL     1     -18.546  40.947  -9.588  0.00  0.00    +0.000 A 
ATOM      4  C   UNL     1     -19.651  40.160  -9.869  0.00  0.00    +0.000 A 
ATOM      5  C   UNL     1     -18.560  41.695  -8.416  0.00  0.00    +0.000 A 
ATOM      6  C   UNL     1     -19.663  41.632  -7.571  0.00  0.00    +0.000 A 
ATOM      7  C   UNL     1     -20.718  40.813  -7.941  0.00  0.00    +0.000 A 
ENDROOT
BRANCH   3  10
ATOM      8  O   UNL     1     -16.910  39.987 -10.966  0.00  0.00    +0.000 OA
ATOM      9  N   UNL     1     -16.861  42.295 -10.731  0.00  0.00    +0.000 N 
ATOM     10  C   UNL     1     -17.363  41.022 -10.484  0.00  0.00    +0.000 C 
ATOM     11  H   UNL     1     -17.310  43.099 -10.302  0.00  0.00    +0.000 HD
BRANCH   9  12
ATOM     12  C   UNL     1     -15.738  42.531 -11.595  0.00  0.00    +0.000 C 
BRANCH  12  13
ATOM     13  C   UNL     1     -16.006  43.638 -12.607  0.00  0.00    +0.000 C 
ATOM     14  C   UNL     1     -17.239  44.463 -12.264  0.00  0.00    +0.000 C 
ENDBRANCH  12  13
ENDBRANCH   9  12
ENDBRANCH   3  10
BRANCH   4  15
ATOM     15  N   UNL     1     -19.645  39.395 -11.062  0.00  0.00    +0.000 N 
ATOM     16  H   UNL     1     -20.458  38.833 -11.280  0.00  0.00    +0.000 HD
ATOM     17  H   UNL     1     -18.744  39.062 -11.381  0.00  0.00    +0.000 HD
ENDBRANCH   4  15
TORSDOF 4
ENDMDL
MODEL 4
REMARK VINA RESULT:    -5.160      1.680      2.222
REMARK INTER + INTRA:          -6.597
REMARK INTER:                  -6.193
REMARK INTRA:                  -0.404
REMARK UNBOUND:                -0.381
REMARK  Name = 108069160
REMARK  5 active torsions:
REMARK  status: ('A' for Active; 'I' for Inactive)
REMARK    1  A    between atoms: N_3  and  C_6
REMARK    2  A    between atoms: N_5  and  C_11
REMARK    3  A    between atoms: C_6  and  C_7
REMARK    4  A    between atoms: C_7  and  C_10
REMARK    5  A    between atoms: C_8  and  C_9
REMARK                            x       y       z     vdW  Elec       q    Type
REMARK                         _______ _______ _______ _____ _____    ______ ____
ROOT
ATOM      1  F   UNL     1     -14.960  44.115 -11.833  0.00  0.00    +0.000 F 
ATOM      2  N   UNL     1     -17.992  44.582 -13.766  0.00  0.00    +0.000 NA
ATOM      3  C   UNL     1     -18.216  42.603 -12.397  0.00  0.00    +0.000 A 
ATOM      4  C   UNL     1     -18.692  43.511 -13.328  0.00  0.00    +0.000 A 
ATOM      5  C   UNL     1     -16.939  42.805 -11.883  0.00  0.00    +0.000 A 
ATOM      6  C   UNL     1     -16.190  43.896 -12.309  0.00  0.00    +0.000 A 
ATOM      7  C   UNL     1     -16.756  44.747 -13.245  0.00  0.00    +0.000 A 
ENDROOT
BRANCH   3  10
ATOM      8  O   UNL     1     -19.622  40.762 -12.759  0.00  0.00    +0.000 OA
ATOM      9  N   UNL     1     -18.975  41.173 -10.569  0.00  0.00    +0.000 N 
ATOM     10  C   UNL     1     -19.008  41.435 -11.934  0.00  0.00    +0.000 C 
ATOM     11  H   UNL     1     -18.426  41.774  -9.961  0.00  0.00    +0.000 HD
BRANCH   9  12
ATOM     12  C   UNL     1     -19.669  40.065  -9.975  0.00  0.00    +0.000 C 
BRANCH  12  13
ATOM     13  C   UNL     1     -20.421  40.461  -8.710  0.00  0.00    +0.000 C 
ATOM     14  C   UNL     1     -19.578  41.306  -7.765  0.00  0.00    +0.000 C 
ENDBRANCH  12  13
ENDBRANCH   9  12
ENDBRANCH   3  10
BRANCH   4  15
ATOM     15  N   UNL     1     -19.992  43.312 -13.857  0.00  0.00    +0.000 N 
ATOM     16  H   UNL     1     -20.346  42.365 -13.926  0.00  0.00    +0.000 HD
ATOM     17  H   UNL     1     -20.308  43.983 -14.545  0.00  0.00    +0.000 HD
ENDBRANCH   4  15
TORSDOF 4
ENDMDL
MODEL 5
REMARK VINA RESULT:    -4.941      2.823      5.074
REMARK INTER + INTRA:          -6.332
REMARK INTER:                  -5.833
REMARK INTRA:                  -0.499
REMARK UNBOUND:                -0.381
REMARK  Name = 108069160
REMARK  5 active torsions:
REMARK  status: ('A' for Active; 'I' for Inactive)
REMARK    1  A    between atoms: N_3  and  C_6
REMARK    2  A    between atoms: N_5  and  C_11
REMARK    3  A    between atoms: C_6  and  C_7
REMARK    4  A    between atoms: C_7  and  C_10
REMARK    5  A    between atoms: C_8  and  C_9
REMARK                            x       y       z     vdW  Elec       q    Type
REMARK                         _______ _______ _______ _____ _____    ______ ____
ROOT
ATOM      1  F   UNL     1     -18.287  40.488  -8.137  0.00  0.00    +0.000 F 
ATOM      2  N   UNL     1     -19.683  40.207 -11.473  0.00  0.00    +0.000 NA
ATOM      3  C   UNL     1     -18.173  42.092 -11.397  0.00  0.00    +0.000 A 
ATOM      4  C   UNL     1     -19.062  41.257 -12.054  0.00  0.00    +0.000 A 
ATOM      5  C   UNL     1     -17.905  41.833 -10.057  0.00  0.00    +0.000 A 
ATOM      6  C   UNL     1     -18.525  40.760  -9.425  0.00  0.00    +0.000 A 
ATOM      7  C   UNL     1     -19.399  39.984 -10.170  0.00  0.00    +0.000 A 
ENDROOT
BRANCH   3  10
ATOM      8  O   UNL     1     -18.170  44.230 -12.360  0.00  0.00    +0.000 OA
ATOM      9  N   UNL     1     -16.138  43.111 -12.282  0.00  0.00    +0.000 N 
ATOM     10  C   UNL     1     -17.505  43.240 -12.062  0.00  0.00    +0.000 C 
ATOM     11  H   UNL     1     -15.666  42.261 -11.987  0.00  0.00    +0.000 HD
BRANCH   9  12
ATOM     12  C   UNL     1     -15.350  44.145 -12.892  0.00  0.00    +0.000 C 
BRANCH  12  13
ATOM     13  C   UNL     1     -14.311  44.722 -11.938  0.00  0.00    +0.000 C 
ATOM     14  C   UNL     1     -13.609  43.652 -11.115  0.00  0.00    +0.000 C 
ENDBRANCH  12  13
ENDBRANCH   9  12
ENDBRANCH   3  10
BRANCH   4  15
ATOM     15  N   UNL     1     -19.340  41.515 -13.420  0.00  0.00    +0.000 N 
ATOM     16  H   UNL     1     -19.055  42.404 -13.812  0.00  0.00    +0.000 HD
ATOM     17  H   UNL     1     -20.167  41.075 -13.803  0.00  0.00    +0.000 HD
ENDBRANCH   4  15
TORSDOF 4
ENDMDL
