MODEL 1
REMARK VINA RESULT:    -6.165      0.000      0.000
REMARK INTER + INTRA:          -7.216
REMARK INTER:                  -6.886
REMARK INTRA:                  -0.330
REMARK UNBOUND:                -0.330
REMARK  Name = 108069456
REMARK  3 active torsions:
REMARK  status: ('A' for Active; 'I' for Inactive)
REMARK    1  A    between atoms: N_3  and  C_7
REMARK    2  A    between atoms: N_3  and  C_12
REMARK    3  A    between atoms: C_6  and  C_10
REMARK                            x       y       z     vdW  Elec       q    Type
REMARK                         _______ _______ _______ _____ _____    ______ ____
ROOT
ATOM      1  F   UNL     1     -21.786  41.044  -7.229  0.00  0.00    +0.000 F 
ATOM      2  N   UNL     1     -18.501  42.229  -8.210  0.00  0.00    +0.000 NA
ATOM      3  C   UNL     1     -19.349  40.729  -9.906  0.00  0.00    +0.000 A 
ATOM      4  C   UNL     1     -18.381  41.574  -9.387  0.00  0.00    +0.000 A 
ATOM      5  C   UNL     1     -20.515  40.545  -9.173  0.00  0.00    +0.000 A 
ATOM      6  C   UNL     1     -20.675  41.202  -7.956  0.00  0.00    +0.000 A 
ATOM      7  C   UNL     1     -19.648  42.025  -7.524  0.00  0.00    +0.000 A 
ENDROOT
BRANCH   3  10
ATOM      8  O   UNL     1     -18.412  39.077 -11.299  0.00  0.00    +0.000 OA
ATOM      9  N   UNL     1     -19.958  40.478 -12.252  0.00  0.00    +0.000 N 
ATOM     10  C   UNL     1     -19.191  40.037 -11.179  0.00  0.00    +0.000 C 
ATOM     11  H   UNL     1     -20.604  41.256 -12.170  0.00  0.00    +0.000 HD
ATOM     12  H   UNL     1     -19.891  40.028 -13.160  0.00  0.00    +0.000 HD
ENDBRANCH   3  10
BRANCH   4  13
ATOM     13  N   UNL     1     -17.189  41.767 -10.131  0.00  0.00    +0.000 N 
ATOM     14  C   UNL     1     -16.984  42.897 -10.975  0.00  0.00    +0.000 C 
ATOM     15  H   UNL     1     -16.605  40.953 -10.286  0.00  0.00    +0.000 HD
ENDBRANCH   4  13
TORSDOF 2
ENDMDL
MODEL 2
REMARK VINA RESULT:    -5.279      1.790      2.110
REMARK INTER + INTRA:          -6.226
REMARK INTER:                  -5.859
REMARK INTRA:                  -0.367
REMARK UNBOUND:                -0.330
REMARK  Name = 108069456
REMARK  3 active torsions:
REMARK  status: ('A' for Active; 'I' for Inactive)
REMARK    1  A    between atoms: N_3  and  C_7
REMARK    2  A    between atoms: N_3  and  C_12
REMARK    3  A    between atoms: C_6  and  C_10
REMARK                            x       y       z     vdW  Elec       q    Type
REMARK                         _______ _______ _______ _____ _____    ______ ____
ROOT
ATOM      1  F   UNL     1     -18.967  40.556  -7.675  0.00  0.00    +0.000 F 
ATOM      2  N   UNL     1     -17.797  42.847 -10.233  0.00  0.00    +0.000 NA
ATOM      3  C   UNL     1     -18.356  40.728 -11.254  0.00  0.00    +0.000 A 
ATOM      4  C   UNL     1     -17.905  42.036 -11.310  0.00  0.00    +0.000 A 
ATOM      5  C   UNL     1     -18.721  40.217 -10.013  0.00  0.00    +0.000 A 
ATOM      6  C   UNL     1     -18.623  41.020  -8.881  0.00  0.00    +0.000 A 
ATOM      7  C   UNL     1     -18.161  42.316  -9.044  0.00  0.00    +0.000 A 
ENDROOT
BRANCH   3  10
ATOM      8  O   UNL     1     -17.490  39.692 -13.183  0.00  0.00    +0.000 OA
ATOM      9  N   UNL     1     -19.687  39.266 -12.680  0.00  0.00    +0.000 N 
ATOM     10  C   UNL     1     -18.462  39.878 -12.433  0.00  0.00    +0.000 C 
ATOM     11  H   UNL     1     -20.489  39.402 -12.073  0.00  0.00    +0.000 HD
ATOM     12  H   UNL     1     -19.814  38.661 -13.484  0.00  0.00    +0.000 HD
ENDBRANCH   3  10
BRANCH   4  13
ATOM     13  N   UNL     1     -17.533  42.564 -12.572  0.00  0.00    +0.000 N 
ATOM     14  C   UNL     1     -16.239  43.107 -12.827  0.00  0.00    +0.000 C 
ATOM     15  H   UNL     1     -18.281  42.819 -13.206  0.00  0.00    +0.000 HD
ENDBRANCH   4  13
TORSDOF 2
ENDMDL
MODEL 3
REMARK VINA RESULT:    -5.243      2.128      3.171
REMARK INTER + INTRA:          -6.186
REMARK INTER:                  -5.908
REMARK INTRA:                  -0.278
REMARK UNBOUND:                -0.330
REMARK  Name = 108069456
REMARK  3 active torsions:
REMARK  status: ('A' for Active; 'I' for Inactive)
REMARK    1  A    between atoms: N_3  and  C_7
REMARK    2  A    between atoms: N_3  and  C_12
REMARK    3  A    between atoms: C_6  and  C_10
REMARK                            x       y       z     vdW  Elec       q    Type
REMARK                         _______ _______ _______ _____ _____    ______ ____
ROOT
ATOM      1  F   UNL     1     -19.571  41.053  -7.135  0.00  0.00    +0.000 F 
ATOM      2  N   UNL     1     -19.458  39.929 -10.582  0.00  0.00    +0.000 NA
ATOM      3  C   UNL     1     -18.054  41.881 -10.333  0.00  0.00    +0.000 A 
ATOM      4  C   UNL     1     -18.615  40.860 -11.083  0.00  0.00    +0.000 A 
ATOM      5  C   UNL     1     -18.377  41.951  -8.982  0.00  0.00    +0.000 A 
ATOM      6  C   UNL     1     -19.242  41.011  -8.431  0.00  0.00    +0.000 A 
ATOM      7  C   UNL     1     -19.749  40.028  -9.266  0.00  0.00    +0.000 A 
ENDROOT
BRANCH   3  10
ATOM      8  O   UNL     1     -17.578  43.892 -11.463  0.00  0.00    +0.000 OA
ATOM      9  N   UNL     1     -15.782  42.643 -10.775  0.00  0.00    +0.000 N 
ATOM     10  C   UNL     1     -17.148  42.871 -10.900  0.00  0.00    +0.000 C 
ATOM     11  H   UNL     1     -15.414  41.818 -10.313  0.00  0.00    +0.000 HD
ATOM     12  H   UNL     1     -15.107  43.303 -11.148  0.00  0.00    +0.000 HD
ENDBRANCH   3  10
BRANCH   4  13
ATOM     13  N   UNL     1     -18.289  40.782 -12.460  0.00  0.00    +0.000 N 
ATOM     14  C   UNL     1     -17.321  39.868 -12.971  0.00  0.00    +0.000 C 
ATOM     15  H   UNL     1     -18.533  41.578 -13.039  0.00  0.00    +0.000 HD
ENDBRANCH   4  13
TORSDOF 2
ENDMDL
MODEL 4
REMARK VINA RESULT:    -4.953      3.855      4.191
REMARK INTER + INTRA:          -5.862
REMARK INTER:                  -5.498
REMARK INTRA:                  -0.364
REMARK UNBOUND:                -0.330
REMARK  Name = 108069456
REMARK  3 active torsions:
REMARK  status: ('A' for Active; 'I' for Inactive)
REMARK    1  A    between atoms: N_3  and  C_7
REMARK    2  A    between atoms: N_3  and  C_12
REMARK    3  A    between atoms: C_6  and  C_10
REMARK                            x       y       z     vdW  Elec       q    Type
REMARK                         _______ _______ _______ _____ _____    ______ ____
ROOT
ATOM      1  F   UNL     1     -19.558  38.650 -11.685  0.00  0.00    +0.000 F 
ATOM      2  N   UNL     1     -16.502  40.598 -11.855  0.00  0.00    +0.000 NA
ATOM      3  C   UNL     1     -18.260  41.765 -13.035  0.00  0.00    +0.000 A 
ATOM      4  C   UNL     1     -16.958  41.647 -12.577  0.00  0.00    +0.000 A 
ATOM      5  C   UNL     1     -19.153  40.743 -12.732  0.00  0.00    +0.000 A 
ATOM      6  C   UNL     1     -18.721  39.648 -11.991  0.00  0.00    +0.000 A 
ATOM      7  C   UNL     1     -17.398  39.624 -11.580  0.00  0.00    +0.000 A 
ENDROOT
BRANCH   3  10
ATOM      8  O   UNL     1     -18.600  44.069 -13.386  0.00  0.00    +0.000 OA
ATOM      9  N   UNL     1     -19.289  42.656 -15.056  0.00  0.00    +0.000 N 
ATOM     10  C   UNL     1     -18.722  42.908 -13.811  0.00  0.00    +0.000 C 
ATOM     11  H   UNL     1     -19.391  41.715 -15.422  0.00  0.00    +0.000 HD
ATOM     12  H   UNL     1     -19.623  43.416 -15.640  0.00  0.00    +0.000 HD
ENDBRANCH   3  10
BRANCH   4  13
ATOM     13  N   UNL     1     -16.042  42.685 -12.882  0.00  0.00    +0.000 N 
ATOM     14  C   UNL     1     -15.194  43.276 -11.899  0.00  0.00    +0.000 C 
ATOM     15  H   UNL     1     -16.201  43.205 -13.737  0.00  0.00    +0.000 HD
ENDBRANCH   4  13
TORSDOF 2
ENDMDL
MODEL 5
REMARK VINA RESULT:    -4.775      3.256      4.317
REMARK INTER + INTRA:          -5.664
REMARK INTER:                  -5.339
REMARK INTRA:                  -0.325
REMARK UNBOUND:                -0.330
REMARK  Name = 108069456
REMARK  3 active torsions:
REMARK  status: ('A' for Active; 'I' for Inactive)
REMARK    1  A    between atoms: N_3  and  C_7
REMARK    2  A    between atoms: N_3  and  C_12
REMARK    3  A    between atoms: C_6  and  C_10
REMARK                            x       y       z     vdW  Elec       q    Type
REMARK                         _______ _______ _______ _____ _____    ______ ____
ROOT
ATOM      1  F   UNL     1     -19.310  44.008 -15.125  0.00  0.00    +0.000 F 
ATOM      2  N   UNL     1     -17.914  43.873 -11.779  0.00  0.00    +0.000 NA
ATOM      3  C   UNL     1     -18.487  41.636 -12.497  0.00  0.00    +0.000 A 
ATOM      4  C   UNL     1     -17.987  42.538 -11.571  0.00  0.00    +0.000 A 
ATOM      5  C   UNL     1     -18.940  42.133 -13.713  0.00  0.00    +0.000 A 
ATOM      6  C   UNL     1     -18.881  43.501 -13.963  0.00  0.00    +0.000 A 
ATOM      7  C   UNL     1     -18.363  44.320 -12.973  0.00  0.00    +0.000 A 
ENDROOT
BRANCH   3  10
ATOM      8  O   UNL     1     -17.590  39.589 -11.755  0.00  0.00    +0.000 OA
ATOM      9  N   UNL     1     -19.739  39.546 -12.553  0.00  0.00    +0.000 N 
ATOM     10  C   UNL     1     -18.552  40.203 -12.244  0.00  0.00    +0.000 C 
ATOM     11  H   UNL     1     -20.537  40.033 -12.947  0.00  0.00    +0.000 HD
ATOM     12  H   UNL     1     -19.840  38.549 -12.392  0.00  0.00    +0.000 HD
ENDBRANCH   3  10
BRANCH   4  13
ATOM     13  N   UNL     1     -17.522  42.038 -10.329  0.00  0.00    +0.000 N 
ATOM     14  C   UNL     1     -18.284  42.134  -9.128  0.00  0.00    +0.000 C 
ATOM     15  H   UNL     1     -16.526  41.874 -10.240  0.00  0.00    +0.000 HD
ENDBRANCH   4  13
TORSDOF 2
ENDMDL
