MODEL 1
REMARK VINA RESULT:    -5.727      0.000      0.000
REMARK INTER + INTRA:          -6.944
REMARK INTER:                  -6.564
REMARK INTRA:                  -0.380
REMARK UNBOUND:                -0.380
REMARK  Name = 108069219
REMARK  4 active torsions:
REMARK  status: ('A' for Active; 'I' for Inactive)
REMARK    1  A    between atoms: N_3  and  C_7
REMARK    2  A    between atoms: N_5  and  C_9
REMARK    3  A    between atoms: C_6  and  C_8
REMARK    4  A    between atoms: C_7  and  C_11
REMARK                            x       y       z     vdW  Elec       q    Type
REMARK                         _______ _______ _______ _____ _____    ______ ____
ROOT
ATOM      1  F   UNL     1     -19.985  42.323  -6.370  0.00  0.00    +0.000 F 
ATOM      2  N   UNL     1     -20.804  40.030  -9.060  0.00  0.00    +0.000 NA
ATOM      3  C   UNL     1     -18.615  40.975  -9.456  0.00  0.00    +0.000 A 
ATOM      4  C   UNL     1     -19.677  40.153  -9.796  0.00  0.00    +0.000 A 
ATOM      5  C   UNL     1     -18.716  41.719  -8.285  0.00  0.00    +0.000 A 
ATOM      6  C   UNL     1     -19.860  41.619  -7.501  0.00  0.00    +0.000 A 
ATOM      7  C   UNL     1     -20.867  40.768  -7.929  0.00  0.00    +0.000 A 
ENDROOT
BRANCH   3  10
ATOM      8  O   UNL     1     -16.824  40.067 -10.666  0.00  0.00    +0.000 OA
ATOM      9  N   UNL     1     -16.984  42.378 -10.592  0.00  0.00    +0.000 N 
ATOM     10  C   UNL     1     -17.412  41.087 -10.270  0.00  0.00    +0.000 C 
ATOM     11  H   UNL     1     -17.520  43.173 -10.255  0.00  0.00    +0.000 HD
BRANCH   9  12
ATOM     12  C   UNL     1     -15.824  42.654 -11.409  0.00  0.00    +0.000 C 
ATOM     13  C   UNL     1     -16.219  43.031 -12.822  0.00  0.00    +0.000 C 
ENDBRANCH   9  12
ENDBRANCH   3  10
BRANCH   4  14
ATOM     14  N   UNL     1     -19.582  39.392 -10.987  0.00  0.00    +0.000 N 
ATOM     15  H   UNL     1     -20.142  38.553 -11.073  0.00  0.00    +0.000 HD
ATOM     16  H   UNL     1     -18.689  39.409 -11.465  0.00  0.00    +0.000 HD
ENDBRANCH   4  14
TORSDOF 3
ENDMDL
MODEL 2
REMARK VINA RESULT:    -5.524      2.911      5.239
REMARK INTER + INTRA:          -6.711
REMARK INTER:                  -6.385
REMARK INTRA:                  -0.326
REMARK UNBOUND:                -0.380
REMARK  Name = 108069219
REMARK  4 active torsions:
REMARK  status: ('A' for Active; 'I' for Inactive)
REMARK    1  A    between atoms: N_3  and  C_7
REMARK    2  A    between atoms: N_5  and  C_9
REMARK    3  A    between atoms: C_6  and  C_8
REMARK    4  A    between atoms: C_7  and  C_11
REMARK                            x       y       z     vdW  Elec       q    Type
REMARK                         _______ _______ _______ _____ _____    ______ ____
ROOT
ATOM      1  F   UNL     1     -19.234  43.263 -14.570  0.00  0.00    +0.000 F 
ATOM      2  N   UNL     1     -16.541  42.224 -12.373  0.00  0.00    +0.000 NA
ATOM      3  C   UNL     1     -18.582  41.108 -11.717  0.00  0.00    +0.000 A 
ATOM      4  C   UNL     1     -17.229  41.376 -11.577  0.00  0.00    +0.000 A 
ATOM      5  C   UNL     1     -19.271  41.751 -12.739  0.00  0.00    +0.000 A 
ATOM      6  C   UNL     1     -18.596  42.630 -13.579  0.00  0.00    +0.000 A 
ATOM      7  C   UNL     1     -17.243  42.832 -13.355  0.00  0.00    +0.000 A 
ENDROOT
BRANCH   3  10
ATOM      8  O   UNL     1     -19.228  38.961 -11.030  0.00  0.00    +0.000 OA
ATOM      9  N   UNL     1     -20.029  40.751  -9.794  0.00  0.00    +0.000 N 
ATOM     10  C   UNL     1     -19.297  40.188 -10.844  0.00  0.00    +0.000 C 
ATOM     11  H   UNL     1     -20.029  41.762  -9.681  0.00  0.00    +0.000 HD
BRANCH   9  12
ATOM     12  C   UNL     1     -20.771  39.972  -8.829  0.00  0.00    +0.000 C 
ATOM     13  C   UNL     1     -21.642  40.853  -7.957  0.00  0.00    +0.000 C 
ENDBRANCH   9  12
ENDBRANCH   3  10
BRANCH   4  14
ATOM     14  N   UNL     1     -16.520  40.724 -10.538  0.00  0.00    +0.000 N 
ATOM     15  H   UNL     1     -16.221  39.768 -10.681  0.00  0.00    +0.000 HD
ATOM     16  H   UNL     1     -16.741  41.009  -9.592  0.00  0.00    +0.000 HD
ENDBRANCH   4  14
TORSDOF 3
ENDMDL
MODEL 3
REMARK VINA RESULT:    -5.391      2.325      2.937
REMARK INTER + INTRA:          -6.559
REMARK INTER:                  -6.195
REMARK INTRA:                  -0.364
REMARK UNBOUND:                -0.380
REMARK  Name = 108069219
REMARK  4 active torsions:
REMARK  status: ('A' for Active; 'I' for Inactive)
REMARK    1  A    between atoms: N_3  and  C_7
REMARK    2  A    between atoms: N_5  and  C_9
REMARK    3  A    between atoms: C_6  and  C_8
REMARK    4  A    between atoms: C_7  and  C_11
REMARK                            x       y       z     vdW  Elec       q    Type
REMARK                         _______ _______ _______ _____ _____    ______ ____
ROOT
ATOM      1  F   UNL     1     -21.257  39.331  -8.670  0.00  0.00    +0.000 F 
ATOM      2  N   UNL     1     -18.471  41.626  -8.304  0.00  0.00    +0.000 NA
ATOM      3  C   UNL     1     -18.863  41.214 -10.654  0.00  0.00    +0.000 A 
ATOM      4  C   UNL     1     -18.178  41.816  -9.610  0.00  0.00    +0.000 A 
ATOM      5  C   UNL     1     -19.916  40.364 -10.337  0.00  0.00    +0.000 A 
ATOM      6  C   UNL     1     -20.248  40.144  -9.004  0.00  0.00    +0.000 A 
ATOM      7  C   UNL     1     -19.501  40.793  -8.034  0.00  0.00    +0.000 A 
ENDROOT
BRANCH   3  10
ATOM      8  O   UNL     1     -17.542  40.869 -12.561  0.00  0.00    +0.000 OA
ATOM      9  N   UNL     1     -19.360  42.291 -12.778  0.00  0.00    +0.000 N 
ATOM     10  C   UNL     1     -18.523  41.438 -12.052  0.00  0.00    +0.000 C 
ATOM     11  H   UNL     1     -20.160  42.710 -12.311  0.00  0.00    +0.000 HD
BRANCH   9  12
ATOM     12  C   UNL     1     -19.171  42.594 -14.178  0.00  0.00    +0.000 C 
ATOM     13  C   UNL     1     -18.855  44.060 -14.390  0.00  0.00    +0.000 C 
ENDBRANCH   9  12
ENDBRANCH   3  10
BRANCH   4  14
ATOM     14  N   UNL     1     -17.103  42.684  -9.926  0.00  0.00    +0.000 N 
ATOM     15  H   UNL     1     -17.288  43.676 -10.002  0.00  0.00    +0.000 HD
ATOM     16  H   UNL     1     -16.365  42.299 -10.502  0.00  0.00    +0.000 HD
ENDBRANCH   4  14
TORSDOF 3
ENDMDL
MODEL 4
REMARK VINA RESULT:    -5.367      4.024      5.208
REMARK INTER + INTRA:          -6.532
REMARK INTER:                  -6.118
REMARK INTRA:                  -0.414
REMARK UNBOUND:                -0.380
REMARK  Name = 108069219
REMARK  4 active torsions:
REMARK  status: ('A' for Active; 'I' for Inactive)
REMARK    1  A    between atoms: N_3  and  C_7
REMARK    2  A    between atoms: N_5  and  C_9
REMARK    3  A    between atoms: C_6  and  C_8
REMARK    4  A    between atoms: C_7  and  C_11
REMARK                            x       y       z     vdW  Elec       q    Type
REMARK                         _______ _______ _______ _____ _____    ______ ____
ROOT
ATOM      1  F   UNL     1     -19.598  38.705 -11.517  0.00  0.00    +0.000 F 
ATOM      2  N   UNL     1     -16.608  40.689 -12.050  0.00  0.00    +0.000 NA
ATOM      3  C   UNL     1     -18.486  41.772 -13.120  0.00  0.00    +0.000 A 
ATOM      4  C   UNL     1     -17.146  41.695 -12.776  0.00  0.00    +0.000 A 
ATOM      5  C   UNL     1     -19.328  40.752 -12.691  0.00  0.00    +0.000 A 
ATOM      6  C   UNL     1     -18.812  39.701 -11.942  0.00  0.00    +0.000 A 
ATOM      7  C   UNL     1     -17.457  39.715 -11.651  0.00  0.00    +0.000 A 
ENDROOT
BRANCH   3  10
ATOM      8  O   UNL     1     -19.089  44.017 -13.430  0.00  0.00    +0.000 OA
ATOM      9  N   UNL     1     -19.470  42.567 -15.198  0.00  0.00    +0.000 N 
ATOM     10  C   UNL     1     -19.037  42.869 -13.904  0.00  0.00    +0.000 C 
ATOM     11  H   UNL     1     -19.381  41.613 -15.537  0.00  0.00    +0.000 HD
BRANCH   9  12
ATOM     12  C   UNL     1     -20.017  43.550 -16.107  0.00  0.00    +0.000 C 
ATOM     13  C   UNL     1     -21.512  43.375 -16.277  0.00  0.00    +0.000 C 
ENDBRANCH   9  12
ENDBRANCH   3  10
BRANCH   4  14
ATOM     14  N   UNL     1     -16.281  42.731 -13.209  0.00  0.00    +0.000 N 
ATOM     15  H   UNL     1     -16.670  43.652 -13.366  0.00  0.00    +0.000 HD
ATOM     16  H   UNL     1     -15.491  42.452 -13.778  0.00  0.00    +0.000 HD
ENDBRANCH   4  14
TORSDOF 3
ENDMDL
MODEL 5
REMARK VINA RESULT:    -4.577      4.125      4.629
REMARK INTER + INTRA:          -5.626
REMARK INTER:                  -5.212
REMARK INTRA:                  -0.414
REMARK UNBOUND:                -0.380
REMARK  Name = 108069219
REMARK  4 active torsions:
REMARK  status: ('A' for Active; 'I' for Inactive)
REMARK    1  A    between atoms: N_3  and  C_7
REMARK    2  A    between atoms: N_5  and  C_9
REMARK    3  A    between atoms: C_6  and  C_8
REMARK    4  A    between atoms: C_7  and  C_11
REMARK                            x       y       z     vdW  Elec       q    Type
REMARK                         _______ _______ _______ _____ _____    ______ ____
ROOT
ATOM      1  F   UNL     1     -15.983  39.710 -11.309  0.00  0.00    +0.000 F 
ATOM      2  N   UNL     1     -18.956  40.389 -13.274  0.00  0.00    +0.000 NA
ATOM      3  C   UNL     1     -17.832  42.472 -12.781  0.00  0.00    +0.000 A 
ATOM      4  C   UNL     1     -18.856  41.735 -13.354  0.00  0.00    +0.000 A 
ATOM      5  C   UNL     1     -16.847  41.783 -12.081  0.00  0.00    +0.000 A 
ATOM      6  C   UNL     1     -16.916  40.398 -11.977  0.00  0.00    +0.000 A 
ATOM      7  C   UNL     1     -17.981  39.754 -12.586  0.00  0.00    +0.000 A 
ENDROOT
BRANCH   3  10
ATOM      8  O   UNL     1     -17.755  44.475 -13.998  0.00  0.00    +0.000 OA
ATOM      9  N   UNL     1     -17.693  44.640 -11.686  0.00  0.00    +0.000 N 
ATOM     10  C   UNL     1     -17.750  43.922 -12.885  0.00  0.00    +0.000 C 
ATOM     11  H   UNL     1     -17.713  44.131 -10.806  0.00  0.00    +0.000 HD
BRANCH   9  12
ATOM     12  C   UNL     1     -17.633  46.083 -11.621  0.00  0.00    +0.000 C 
ATOM     13  C   UNL     1     -16.202  46.580 -11.633  0.00  0.00    +0.000 C 
ENDBRANCH   9  12
ENDBRANCH   3  10
BRANCH   4  14
ATOM     14  N   UNL     1     -19.862  42.430 -14.070  0.00  0.00    +0.000 N 
ATOM     15  H   UNL     1     -20.195  43.313 -13.705  0.00  0.00    +0.000 HD
ATOM     16  H   UNL     1     -20.518  41.863 -14.593  0.00  0.00    +0.000 HD
ENDBRANCH   4  14
TORSDOF 3
ENDMDL
