MODEL 1
REMARK VINA RESULT:    -6.588      0.000      0.000
REMARK INTER + INTRA:          -8.115
REMARK INTER:                  -7.744
REMARK INTRA:                  -0.372
REMARK UNBOUND:                -0.372
REMARK  Name = 10988044
REMARK  5 active torsions:
REMARK  status: ('A' for Active; 'I' for Inactive)
REMARK    1  A    between atoms: N_2  and  C_9
REMARK    2  A    between atoms: C_5  and  C_6
REMARK    3  A    between atoms: C_5  and  C_7
REMARK    4  A    between atoms: C_5  and  C_8
REMARK    5  A    between atoms: C_9  and  C_14
REMARK                            x       y       z     vdW  Elec       q    Type
REMARK                         _______ _______ _______ _____ _____    ______ ____
ROOT
ATOM      1  O   UNL     1     -19.860  40.351 -12.550  0.00  0.00    +0.000 OA
ATOM      2  N   UNL     1     -18.424  42.195 -12.388  0.00  0.00    +0.000 N 
ATOM      3  N   UNL     1     -17.739  42.964 -10.244  0.00  0.00    +0.000 NA
ATOM      4  N   UNL     1     -18.480  41.916  -8.302  0.00  0.00    +0.000 NA
ATOM      5  C   UNL     1     -17.723  43.049 -11.537  0.00  0.00    +0.000 A 
ATOM      6  C   UNL     1     -19.214  41.152 -11.882  0.00  0.00    +0.000 A 
ATOM      7  C   UNL     1     -19.239  41.046 -10.411  0.00  0.00    +0.000 A 
ATOM      8  C   UNL     1     -18.506  41.951  -9.654  0.00  0.00    +0.000 A 
ATOM      9  C   UNL     1     -19.978  40.061  -9.760  0.00  0.00    +0.000 A 
ATOM     10  C   UNL     1     -19.965  40.009  -8.372  0.00  0.00    +0.000 A 
ATOM     11  C   UNL     1     -19.208  40.949  -7.696  0.00  0.00    +0.000 A 
ENDROOT
BRANCH   5  12
ATOM     12  C   UNL     1     -16.892  44.147 -12.158  0.00  0.00    +0.000 C 
ATOM     13  C   UNL     1     -17.337  45.499 -11.622  0.00  0.00    +0.000 C 
ATOM     14  C   UNL     1     -15.412  43.905 -11.894  0.00  0.00    +0.000 C 
ENDBRANCH   5  12
BRANCH   2  15
ATOM     15  C   UNL     1     -18.356  42.358 -13.839  0.00  0.00    +0.000 C 
BRANCH  15  16
ATOM     16  C   UNL     1     -19.534  43.160 -14.291  0.00  0.00    +0.000 C 
ATOM     17  C   UNL     1     -19.967  43.204 -15.555  0.00  0.00    +0.000 C 
ENDBRANCH  15  16
ENDBRANCH   2  15
TORSDOF 3
ENDMDL
MODEL 2
REMARK VINA RESULT:    -5.441      2.616      5.941
REMARK INTER + INTRA:          -6.767
REMARK INTER:                  -6.281
REMARK INTRA:                  -0.487
REMARK UNBOUND:                -0.372
REMARK  Name = 10988044
REMARK  5 active torsions:
REMARK  status: ('A' for Active; 'I' for Inactive)
REMARK    1  A    between atoms: N_2  and  C_9
REMARK    2  A    between atoms: C_5  and  C_6
REMARK    3  A    between atoms: C_5  and  C_7
REMARK    4  A    between atoms: C_5  and  C_8
REMARK    5  A    between atoms: C_9  and  C_14
REMARK                            x       y       z     vdW  Elec       q    Type
REMARK                         _______ _______ _______ _____ _____    ______ ____
ROOT
ATOM      1  O   UNL     1     -17.786  45.839 -13.742  0.00  0.00    +0.000 OA
ATOM      2  N   UNL     1     -18.003  43.641 -12.959  0.00  0.00    +0.000 N 
ATOM      3  N   UNL     1     -19.302  42.078 -14.196  0.00  0.00    +0.000 NA
ATOM      4  N   UNL     1     -20.368  42.701 -16.170  0.00  0.00    +0.000 NA
ATOM      5  C   UNL     1     -18.553  42.378 -13.182  0.00  0.00    +0.000 A 
ATOM      6  C   UNL     1     -18.230  44.699 -13.852  0.00  0.00    +0.000 A 
ATOM      7  C   UNL     1     -19.081  44.368 -15.009  0.00  0.00    +0.000 A 
ATOM      8  C   UNL     1     -19.581  43.079 -15.135  0.00  0.00    +0.000 A 
ATOM      9  C   UNL     1     -19.396  45.315 -15.982  0.00  0.00    +0.000 A 
ATOM     10  C   UNL     1     -20.202  44.947 -17.051  0.00  0.00    +0.000 A 
ATOM     11  C   UNL     1     -20.658  43.641 -17.099  0.00  0.00    +0.000 A 
ENDROOT
BRANCH   5  12
ATOM     12  C   UNL     1     -18.261  41.289 -12.177  0.00  0.00    +0.000 C 
ATOM     13  C   UNL     1     -19.564  40.737 -11.618  0.00  0.00    +0.000 C 
ATOM     14  C   UNL     1     -17.422  40.190 -12.816  0.00  0.00    +0.000 C 
ENDBRANCH   5  12
BRANCH   2  15
ATOM     15  C   UNL     1     -17.168  43.901 -11.788  0.00  0.00    +0.000 C 
BRANCH  15  16
ATOM     16  C   UNL     1     -15.734  43.715 -12.166  0.00  0.00    +0.000 C 
ATOM     17  C   UNL     1     -14.862  42.991 -11.456  0.00  0.00    +0.000 C 
ENDBRANCH  15  16
ENDBRANCH   2  15
TORSDOF 3
ENDMDL
MODEL 3
REMARK VINA RESULT:    -5.384      2.920      5.398
REMARK INTER + INTRA:          -6.700
REMARK INTER:                  -6.222
REMARK INTRA:                  -0.478
REMARK UNBOUND:                -0.372
REMARK  Name = 10988044
REMARK  5 active torsions:
REMARK  status: ('A' for Active; 'I' for Inactive)
REMARK    1  A    between atoms: N_2  and  C_9
REMARK    2  A    between atoms: C_5  and  C_6
REMARK    3  A    between atoms: C_5  and  C_7
REMARK    4  A    between atoms: C_5  and  C_8
REMARK    5  A    between atoms: C_9  and  C_14
REMARK                            x       y       z     vdW  Elec       q    Type
REMARK                         _______ _______ _______ _____ _____    ______ ____
ROOT
ATOM      1  O   UNL     1     -17.675  45.786 -14.354  0.00  0.00    +0.000 OA
ATOM      2  N   UNL     1     -19.388  44.842 -15.645  0.00  0.00    +0.000 N 
ATOM      3  N   UNL     1     -20.338  42.760 -14.992  0.00  0.00    +0.000 NA
ATOM      4  N   UNL     1     -19.586  41.643 -13.093  0.00  0.00    +0.000 NA
ATOM      5  C   UNL     1     -20.273  43.774 -15.798  0.00  0.00    +0.000 A 
ATOM      6  C   UNL     1     -18.485  44.889 -14.572  0.00  0.00    +0.000 A 
ATOM      7  C   UNL     1     -18.551  43.740 -13.650  0.00  0.00    +0.000 A 
ATOM      8  C   UNL     1     -19.468  42.727 -13.895  0.00  0.00    +0.000 A 
ATOM      9  C   UNL     1     -17.717  43.645 -12.538  0.00  0.00    +0.000 A 
ATOM     10  C   UNL     1     -17.823  42.540 -11.703  0.00  0.00    +0.000 A 
ATOM     11  C   UNL     1     -18.764  41.576 -12.021  0.00  0.00    +0.000 A 
ENDROOT
BRANCH   5  12
ATOM     12  C   UNL     1     -21.216  43.797 -16.977  0.00  0.00    +0.000 C 
ATOM     13  C   UNL     1     -21.079  42.508 -17.774  0.00  0.00    +0.000 C 
ATOM     14  C   UNL     1     -22.649  44.007 -16.505  0.00  0.00    +0.000 C 
ENDBRANCH   5  12
BRANCH   2  15
ATOM     15  C   UNL     1     -19.374  45.949 -16.599  0.00  0.00    +0.000 C 
BRANCH  15  16
ATOM     16  C   UNL     1     -18.243  45.749 -17.556  0.00  0.00    +0.000 C 
ATOM     17  C   UNL     1     -18.383  45.219 -18.776  0.00  0.00    +0.000 C 
ENDBRANCH  15  16
ENDBRANCH   2  15
TORSDOF 3
ENDMDL
MODEL 4
REMARK VINA RESULT:    -5.205      2.462      5.389
REMARK INTER + INTRA:          -6.490
REMARK INTER:                  -6.088
REMARK INTRA:                  -0.401
REMARK UNBOUND:                -0.372
REMARK  Name = 10988044
REMARK  5 active torsions:
REMARK  status: ('A' for Active; 'I' for Inactive)
REMARK    1  A    between atoms: N_2  and  C_9
REMARK    2  A    between atoms: C_5  and  C_6
REMARK    3  A    between atoms: C_5  and  C_7
REMARK    4  A    between atoms: C_5  and  C_8
REMARK    5  A    between atoms: C_9  and  C_14
REMARK                            x       y       z     vdW  Elec       q    Type
REMARK                         _______ _______ _______ _____ _____    ______ ____
ROOT
ATOM      1  O   UNL     1     -19.457  41.507 -13.774  0.00  0.00    +0.000 OA
ATOM      2  N   UNL     1     -18.366  43.309 -12.749  0.00  0.00    +0.000 N 
ATOM      3  N   UNL     1     -18.207  45.389 -13.893  0.00  0.00    +0.000 NA
ATOM      4  N   UNL     1     -19.113  45.659 -16.021  0.00  0.00    +0.000 NA
ATOM      5  C   UNL     1     -17.972  44.643 -12.860  0.00  0.00    +0.000 A 
ATOM      6  C   UNL     1     -19.068  42.671 -13.783  0.00  0.00    +0.000 A 
ATOM      7  C   UNL     1     -19.339  43.511 -14.963  0.00  0.00    +0.000 A 
ATOM      8  C   UNL     1     -18.900  44.828 -14.973  0.00  0.00    +0.000 A 
ATOM      9  C   UNL     1     -20.026  43.018 -16.071  0.00  0.00    +0.000 A 
ATOM     10  C   UNL     1     -20.254  43.855 -17.156  0.00  0.00    +0.000 A 
ATOM     11  C   UNL     1     -19.782  45.154 -17.083  0.00  0.00    +0.000 A 
ENDROOT
BRANCH   5  12
ATOM     12  C   UNL     1     -17.223  45.261 -11.703  0.00  0.00    +0.000 C 
ATOM     13  C   UNL     1     -15.758  45.441 -12.072  0.00  0.00    +0.000 C 
ATOM     14  C   UNL     1     -17.861  46.585 -11.305  0.00  0.00    +0.000 C 
ENDBRANCH   5  12
BRANCH   2  15
ATOM     15  C   UNL     1     -18.062  42.533 -11.548  0.00  0.00    +0.000 C 
BRANCH  15  16
ATOM     16  C   UNL     1     -16.814  41.744 -11.787  0.00  0.00    +0.000 C 
ATOM     17  C   UNL     1     -16.607  40.512 -11.308  0.00  0.00    +0.000 C 
ENDBRANCH  15  16
ENDBRANCH   2  15
TORSDOF 3
ENDMDL
MODEL 5
REMARK VINA RESULT:    -5.039      3.318      4.989
REMARK INTER + INTRA:          -6.294
REMARK INTER:                  -5.831
REMARK INTRA:                  -0.463
REMARK UNBOUND:                -0.372
REMARK  Name = 10988044
REMARK  5 active torsions:
REMARK  status: ('A' for Active; 'I' for Inactive)
REMARK    1  A    between atoms: N_2  and  C_9
REMARK    2  A    between atoms: C_5  and  C_6
REMARK    3  A    between atoms: C_5  and  C_7
REMARK    4  A    between atoms: C_5  and  C_8
REMARK    5  A    between atoms: C_9  and  C_14
REMARK                            x       y       z     vdW  Elec       q    Type
REMARK                         _______ _______ _______ _____ _____    ______ ____
ROOT
ATOM      1  O   UNL     1     -19.633  42.001 -14.281  0.00  0.00    +0.000 OA
ATOM      2  N   UNL     1     -19.594  43.873 -15.689  0.00  0.00    +0.000 N 
ATOM      3  N   UNL     1     -18.461  45.844 -14.989  0.00  0.00    +0.000 NA
ATOM      4  N   UNL     1     -17.397  45.944 -12.921  0.00  0.00    +0.000 NA
ATOM      5  C   UNL     1     -19.156  45.186 -15.863  0.00  0.00    +0.000 A 
ATOM      6  C   UNL     1     -19.296  43.156 -14.520  0.00  0.00    +0.000 A 
ATOM      7  C   UNL     1     -18.506  43.897 -13.520  0.00  0.00    +0.000 A 
ATOM      8  C   UNL     1     -18.122  45.203 -13.790  0.00  0.00    +0.000 A 
ATOM      9  C   UNL     1     -18.132  43.319 -12.308  0.00  0.00    +0.000 A 
ATOM     10  C   UNL     1     -17.387  44.063 -11.402  0.00  0.00    +0.000 A 
ATOM     11  C   UNL     1     -17.048  45.358 -11.752  0.00  0.00    +0.000 A 
ENDROOT
BRANCH   5  12
ATOM     12  C   UNL     1     -19.514  45.890 -17.150  0.00  0.00    +0.000 C 
ATOM     13  C   UNL     1     -20.260  47.180 -16.844  0.00  0.00    +0.000 C 
ATOM     14  C   UNL     1     -18.262  46.156 -17.974  0.00  0.00    +0.000 C 
ENDBRANCH   5  12
BRANCH   2  15
ATOM     15  C   UNL     1     -20.376  43.199 -16.724  0.00  0.00    +0.000 C 
BRANCH  15  16
ATOM     16  C   UNL     1     -21.827  43.302 -16.376  0.00  0.00    +0.000 C 
ATOM     17  C   UNL     1     -22.650  44.230 -16.876  0.00  0.00    +0.000 C 
ENDBRANCH  15  16
ENDBRANCH   2  15
TORSDOF 3
ENDMDL
