MODEL 1
REMARK VINA RESULT:    -5.824      0.000      0.000
REMARK INTER + INTRA:          -7.378
REMARK INTER:                  -7.016
REMARK INTRA:                  -0.362
REMARK UNBOUND:                -0.362
REMARK  Name = 11008476
REMARK  4 active torsions:
REMARK  status: ('A' for Active; 'I' for Inactive)
REMARK    1  A    between atoms: N_2  and  C_8
REMARK    2  A    between atoms: N_4  and  C_7
REMARK    3  A    between atoms: C_5  and  C_6
REMARK    4  A    between atoms: C_8  and  C_12
REMARK                            x       y       z     vdW  Elec       q    Type
REMARK                         _______ _______ _______ _____ _____    ______ ____
ROOT
ATOM      1  N   UNL     1     -21.515  42.599  -6.533  0.00  0.00    +0.000 NA
ATOM      2  C   UNL     1     -20.706  40.990  -8.145  0.00  0.00    +0.000 A 
ATOM      3  C   UNL     1     -20.540  42.091  -7.321  0.00  0.00    +0.000 A 
ATOM      4  C   UNL     1     -21.951  40.372  -8.164  0.00  0.00    +0.000 A 
ATOM      5  C   UNL     1     -22.978  40.866  -7.368  0.00  0.00    +0.000 A 
ATOM      6  C   UNL     1     -22.711  41.972  -6.578  0.00  0.00    +0.000 A 
ENDROOT
BRANCH   2   9
ATOM      7  O   UNL     1     -18.466  40.443  -8.570  0.00  0.00    +0.000 OA
ATOM      8  N   UNL     1     -20.001  39.977 -10.243  0.00  0.00    +0.000 N 
ATOM      9  C   UNL     1     -19.637  40.465  -8.984  0.00  0.00    +0.000 C 
ATOM     10  H   UNL     1     -20.980  39.948 -10.512  0.00  0.00    +0.000 HD
BRANCH   8  11
ATOM     11  C   UNL     1     -19.061  39.403 -11.179  0.00  0.00    +0.000 C 
BRANCH  11  12
ATOM     12  C   UNL     1     -18.760  40.404 -12.244  0.00  0.00    +0.000 C 
ATOM     13  C   UNL     1     -19.541  41.455 -12.522  0.00  0.00    +0.000 C 
ENDBRANCH  11  12
ENDBRANCH   8  11
ENDBRANCH   2   9
BRANCH   3  14
ATOM     14  N   UNL     1     -19.274  42.727  -7.297  0.00  0.00    +0.000 N 
ATOM     15  H   UNL     1     -18.908  43.044  -6.407  0.00  0.00    +0.000 HD
ATOM     16  H   UNL     1     -19.020  43.257  -8.121  0.00  0.00    +0.000 HD
ENDBRANCH   3  14
TORSDOF 4
ENDMDL
MODEL 2
REMARK VINA RESULT:    -5.720      1.680      5.024
REMARK INTER + INTRA:          -7.253
REMARK INTER:                  -6.903
REMARK INTRA:                  -0.350
REMARK UNBOUND:                -0.362
REMARK  Name = 11008476
REMARK  4 active torsions:
REMARK  status: ('A' for Active; 'I' for Inactive)
REMARK    1  A    between atoms: N_2  and  C_8
REMARK    2  A    between atoms: N_4  and  C_7
REMARK    3  A    between atoms: C_5  and  C_6
REMARK    4  A    between atoms: C_8  and  C_12
REMARK                            x       y       z     vdW  Elec       q    Type
REMARK                         _______ _______ _______ _____ _____    ______ ____
ROOT
ATOM      1  N   UNL     1     -17.190  41.545 -12.000  0.00  0.00    +0.000 NA
ATOM      2  C   UNL     1     -18.774  40.567 -10.457  0.00  0.00    +0.000 A 
ATOM      3  C   UNL     1     -17.801  41.494 -10.794  0.00  0.00    +0.000 A 
ATOM      4  C   UNL     1     -19.144  39.632 -11.418  0.00  0.00    +0.000 A 
ATOM      5  C   UNL     1     -18.538  39.653 -12.669  0.00  0.00    +0.000 A 
ATOM      6  C   UNL     1     -17.576  40.620 -12.908  0.00  0.00    +0.000 A 
ENDROOT
BRANCH   2   9
ATOM      7  O   UNL     1     -18.732  40.428  -8.117  0.00  0.00    +0.000 OA
ATOM      8  N   UNL     1     -20.808  40.661  -9.123  0.00  0.00    +0.000 N 
ATOM      9  C   UNL     1     -19.414  40.537  -9.149  0.00  0.00    +0.000 C 
ATOM     10  H   UNL     1     -21.319  40.821  -9.986  0.00  0.00    +0.000 HD
BRANCH   8  11
ATOM     11  C   UNL     1     -21.585  40.673  -7.905  0.00  0.00    +0.000 C 
BRANCH  11  12
ATOM     12  C   UNL     1     -21.510  42.032  -7.292  0.00  0.00    +0.000 C 
ATOM     13  C   UNL     1     -22.399  42.502  -6.410  0.00  0.00    +0.000 C 
ENDBRANCH  11  12
ENDBRANCH   8  11
ENDBRANCH   2   9
BRANCH   3  14
ATOM     14  N   UNL     1     -17.418  42.449  -9.820  0.00  0.00    +0.000 N 
ATOM     15  H   UNL     1     -16.494  42.380  -9.411  0.00  0.00    +0.000 HD
ATOM     16  H   UNL     1     -18.159  42.822  -9.240  0.00  0.00    +0.000 HD
ENDBRANCH   3  14
TORSDOF 4
ENDMDL
MODEL 3
REMARK VINA RESULT:    -5.620      2.231      3.168
REMARK INTER + INTRA:          -7.133
REMARK INTER:                  -6.667
REMARK INTRA:                  -0.465
REMARK UNBOUND:                -0.362
REMARK  Name = 11008476
REMARK  4 active torsions:
REMARK  status: ('A' for Active; 'I' for Inactive)
REMARK    1  A    between atoms: N_2  and  C_8
REMARK    2  A    between atoms: N_4  and  C_7
REMARK    3  A    between atoms: C_5  and  C_6
REMARK    4  A    between atoms: C_8  and  C_12
REMARK                            x       y       z     vdW  Elec       q    Type
REMARK                         _______ _______ _______ _____ _____    ______ ____
ROOT
ATOM      1  N   UNL     1     -21.072  40.434  -8.656  0.00  0.00    +0.000 NA
ATOM      2  C   UNL     1     -18.848  41.231  -9.168  0.00  0.00    +0.000 A 
ATOM      3  C   UNL     1     -19.961  40.447  -9.427  0.00  0.00    +0.000 A 
ATOM      4  C   UNL     1     -18.877  42.054  -8.047  0.00  0.00    +0.000 A 
ATOM      5  C   UNL     1     -20.002  42.067  -7.231  0.00  0.00    +0.000 A 
ATOM      6  C   UNL     1     -21.063  41.246  -7.575  0.00  0.00    +0.000 A 
ENDROOT
BRANCH   2   9
ATOM      7  O   UNL     1     -17.114  40.152 -10.319  0.00  0.00    +0.000 OA
ATOM      8  N   UNL     1     -17.211  42.463 -10.481  0.00  0.00    +0.000 N 
ATOM      9  C   UNL     1     -17.665  41.224 -10.017  0.00  0.00    +0.000 C 
ATOM     10  H   UNL     1     -17.734  43.307 -10.268  0.00  0.00    +0.000 HD
BRANCH   8  11
ATOM     11  C   UNL     1     -16.066  42.620 -11.350  0.00  0.00    +0.000 C 
BRANCH  11  12
ATOM     12  C   UNL     1     -16.531  42.663 -12.767  0.00  0.00    +0.000 C 
ATOM     13  C   UNL     1     -17.671  43.243 -13.160  0.00  0.00    +0.000 C 
ENDBRANCH  11  12
ENDBRANCH   8  11
ENDBRANCH   2   9
BRANCH   3  14
ATOM     14  N   UNL     1     -19.938  39.606 -10.567  0.00  0.00    +0.000 N 
ATOM     15  H   UNL     1     -20.810  39.418 -11.047  0.00  0.00    +0.000 HD
ATOM     16  H   UNL     1     -19.235  38.878 -10.576  0.00  0.00    +0.000 HD
ENDBRANCH   3  14
TORSDOF 4
ENDMDL
MODEL 4
REMARK VINA RESULT:    -5.476      1.575      2.115
REMARK INTER + INTRA:          -6.959
REMARK INTER:                  -6.856
REMARK INTRA:                  -0.103
REMARK UNBOUND:                -0.362
REMARK  Name = 11008476
REMARK  4 active torsions:
REMARK  status: ('A' for Active; 'I' for Inactive)
REMARK    1  A    between atoms: N_2  and  C_8
REMARK    2  A    between atoms: N_4  and  C_7
REMARK    3  A    between atoms: C_5  and  C_6
REMARK    4  A    between atoms: C_8  and  C_12
REMARK                            x       y       z     vdW  Elec       q    Type
REMARK                         _______ _______ _______ _____ _____    ______ ____
ROOT
ATOM      1  N   UNL     1     -19.239  42.328  -7.318  0.00  0.00    +0.000 NA
ATOM      2  C   UNL     1     -19.716  40.978  -9.266  0.00  0.00    +0.000 A 
ATOM      3  C   UNL     1     -18.911  41.836  -8.534  0.00  0.00    +0.000 A 
ATOM      4  C   UNL     1     -20.936  40.600  -8.715  0.00  0.00    +0.000 A 
ATOM      5  C   UNL     1     -21.308  41.086  -7.466  0.00  0.00    +0.000 A 
ATOM      6  C   UNL     1     -20.432  41.938  -6.815  0.00  0.00    +0.000 A 
ENDROOT
BRANCH   2   9
ATOM      7  O   UNL     1     -18.932  39.296 -10.700  0.00  0.00    +0.000 OA
ATOM      8  N   UNL     1     -19.470  41.336 -11.660  0.00  0.00    +0.000 N 
ATOM      9  C   UNL     1     -19.335  40.464 -10.575  0.00  0.00    +0.000 C 
ATOM     10  H   UNL     1     -19.872  42.259 -11.523  0.00  0.00    +0.000 HD
BRANCH   8  11
ATOM     11  C   UNL     1     -19.158  40.968 -13.023  0.00  0.00    +0.000 C 
BRANCH  11  12
ATOM     12  C   UNL     1     -18.645  42.168 -13.747  0.00  0.00    +0.000 C 
ATOM     13  C   UNL     1     -19.410  42.968 -14.500  0.00  0.00    +0.000 C 
ENDBRANCH  11  12
ENDBRANCH   8  11
ENDBRANCH   2   9
BRANCH   3  14
ATOM     14  N   UNL     1     -17.667  42.225  -9.090  0.00  0.00    +0.000 N 
ATOM     15  H   UNL     1     -17.415  41.876 -10.007  0.00  0.00    +0.000 HD
ATOM     16  H   UNL     1     -16.915  42.399  -8.434  0.00  0.00    +0.000 HD
ENDBRANCH   3  14
TORSDOF 4
ENDMDL
MODEL 5
REMARK VINA RESULT:    -5.337      2.358      5.308
REMARK INTER + INTRA:          -6.791
REMARK INTER:                  -6.334
REMARK INTRA:                  -0.458
REMARK UNBOUND:                -0.362
REMARK  Name = 11008476
REMARK  4 active torsions:
REMARK  status: ('A' for Active; 'I' for Inactive)
REMARK    1  A    between atoms: N_2  and  C_8
REMARK    2  A    between atoms: N_4  and  C_7
REMARK    3  A    between atoms: C_5  and  C_6
REMARK    4  A    between atoms: C_8  and  C_12
REMARK                            x       y       z     vdW  Elec       q    Type
REMARK                         _______ _______ _______ _____ _____    ______ ____
ROOT
ATOM      1  N   UNL     1     -17.179  43.256 -12.902  0.00  0.00    +0.000 NA
ATOM      2  C   UNL     1     -18.568  41.595 -11.826  0.00  0.00    +0.000 A 
ATOM      3  C   UNL     1     -17.424  42.373 -11.907  0.00  0.00    +0.000 A 
ATOM      4  C   UNL     1     -19.520  41.730 -12.830  0.00  0.00    +0.000 A 
ATOM      5  C   UNL     1     -19.302  42.627 -13.870  0.00  0.00    +0.000 A 
ATOM      6  C   UNL     1     -18.127  43.359 -13.860  0.00  0.00    +0.000 A 
ENDROOT
BRANCH   2   9
ATOM      7  O   UNL     1     -18.060  39.670 -10.588  0.00  0.00    +0.000 OA
ATOM      8  N   UNL     1     -19.879  40.926  -9.888  0.00  0.00    +0.000 N 
ATOM      9  C   UNL     1     -18.804  40.653 -10.741  0.00  0.00    +0.000 C 
ATOM     10  H   UNL     1     -20.416  41.779 -10.007  0.00  0.00    +0.000 HD
BRANCH   8  11
ATOM     11  C   UNL     1     -20.227  40.101  -8.753  0.00  0.00    +0.000 C 
BRANCH  11  12
ATOM     12  C   UNL     1     -19.624  40.687  -7.520  0.00  0.00    +0.000 C 
ATOM     13  C   UNL     1     -20.009  41.850  -6.982  0.00  0.00    +0.000 C 
ENDBRANCH  11  12
ENDBRANCH   8  11
ENDBRANCH   2   9
BRANCH   3  14
ATOM     14  N   UNL     1     -16.449  42.241 -10.887  0.00  0.00    +0.000 N 
ATOM     15  H   UNL     1     -16.521  41.459 -10.247  0.00  0.00    +0.000 HD
ATOM     16  H   UNL     1     -16.050  43.100 -10.531  0.00  0.00    +0.000 HD
ENDBRANCH   3  14
TORSDOF 4
ENDMDL
