MODEL 1
REMARK VINA RESULT:    -5.804      0.000      0.000
REMARK INTER + INTRA:          -7.131
REMARK INTER:                  -6.653
REMARK INTRA:                  -0.478
REMARK UNBOUND:                -0.478
REMARK  Name = 112574395
REMARK  3 active torsions:
REMARK  status: ('A' for Active; 'I' for Inactive)
REMARK    1  A    between atoms: N_5  and  C_7
REMARK    2  A    between atoms: C_6  and  C_8
REMARK    3  A    between atoms: C_8  and  C_10
REMARK                            x       y       z     vdW  Elec       q    Type
REMARK                         _______ _______ _______ _____ _____    ______ ____
ROOT
ATOM      1  N   UNL     1     -18.560  42.351  -8.328  0.00  0.00    +0.000 NA
ATOM      2  C   UNL     1     -18.677  40.637 -10.028  0.00  0.00    +0.000 A 
ATOM      3  C   UNL     1     -18.121  41.777  -9.469  0.00  0.00    +0.000 A 
ATOM      4  C   UNL     1     -19.754  40.049  -9.372  0.00  0.00    +0.000 A 
ATOM      5  C   UNL     1     -20.234  40.611  -8.194  0.00  0.00    +0.000 A 
ATOM      6  C   UNL     1     -19.608  41.752  -7.718  0.00  0.00    +0.000 A 
ENDROOT
BRANCH   3   7
ATOM      7  N   UNL     1     -17.022  42.378 -10.130  0.00  0.00    +0.000 N 
ATOM      8  H   UNL     1     -16.598  43.201  -9.719  0.00  0.00    +0.000 HD
ATOM      9  H   UNL     1     -17.006  42.301 -11.141  0.00  0.00    +0.000 HD
ENDBRANCH   3   7
BRANCH   2  11
ATOM     10  O   UNL     1     -17.000  39.649 -11.353  0.00  0.00    +0.000 OA
ATOM     11  C   UNL     1     -18.179  40.039 -11.259  0.00  0.00    +0.000 C 
BRANCH  11  14
ATOM     12  F   UNL     1     -19.986  40.922 -12.535  0.00  0.00    +0.000 F 
ATOM     13  F   UNL     1     -19.828  38.757 -12.429  0.00  0.00    +0.000 F 
ATOM     14  C   UNL     1     -19.092  39.902 -12.470  0.00  0.00    +0.000 C 
ENDBRANCH  11  14
ENDBRANCH   2  11
TORSDOF 3
ENDMDL
MODEL 2
REMARK VINA RESULT:    -5.331      2.422      3.621
REMARK INTER + INTRA:          -6.588
REMARK INTER:                  -6.222
REMARK INTRA:                  -0.366
REMARK UNBOUND:                -0.478
REMARK  Name = 112574395
REMARK  3 active torsions:
REMARK  status: ('A' for Active; 'I' for Inactive)
REMARK    1  A    between atoms: N_5  and  C_7
REMARK    2  A    between atoms: C_6  and  C_8
REMARK    3  A    between atoms: C_8  and  C_10
REMARK                            x       y       z     vdW  Elec       q    Type
REMARK                         _______ _______ _______ _____ _____    ______ ____
ROOT
ATOM      1  N   UNL     1     -17.335  41.602 -12.012  0.00  0.00    +0.000 NA
ATOM      2  C   UNL     1     -18.729  40.680 -10.266  0.00  0.00    +0.000 A 
ATOM      3  C   UNL     1     -17.826  41.611 -10.753  0.00  0.00    +0.000 A 
ATOM      4  C   UNL     1     -19.157  39.676 -11.127  0.00  0.00    +0.000 A 
ATOM      5  C   UNL     1     -18.675  39.634 -12.431  0.00  0.00    +0.000 A 
ATOM      6  C   UNL     1     -17.774  40.611 -12.821  0.00  0.00    +0.000 A 
ENDROOT
BRANCH   3   7
ATOM      7  N   UNL     1     -17.389  42.640  -9.882  0.00  0.00    +0.000 N 
ATOM      8  H   UNL     1     -16.395  42.815  -9.797  0.00  0.00    +0.000 HD
ATOM      9  H   UNL     1     -17.966  42.816  -9.068  0.00  0.00    +0.000 HD
ENDBRANCH   3   7
BRANCH   2  11
ATOM     10  O   UNL     1     -18.473  40.762  -7.927  0.00  0.00    +0.000 OA
ATOM     11  C   UNL     1     -19.243  40.718  -8.904  0.00  0.00    +0.000 C 
BRANCH  11  14
ATOM     12  F   UNL     1     -21.052  41.172  -7.421  0.00  0.00    +0.000 F 
ATOM     13  F   UNL     1     -21.234  39.409  -8.678  0.00  0.00    +0.000 F 
ATOM     14  C   UNL     1     -20.744  40.679  -8.649  0.00  0.00    +0.000 C 
ENDBRANCH  11  14
ENDBRANCH   2  11
TORSDOF 3
ENDMDL
MODEL 3
REMARK VINA RESULT:    -5.321      2.269      2.769
REMARK INTER + INTRA:          -6.577
REMARK INTER:                  -6.082
REMARK INTRA:                  -0.495
REMARK UNBOUND:                -0.478
REMARK  Name = 112574395
REMARK  3 active torsions:
REMARK  status: ('A' for Active; 'I' for Inactive)
REMARK    1  A    between atoms: N_5  and  C_7
REMARK    2  A    between atoms: C_6  and  C_8
REMARK    3  A    between atoms: C_8  and  C_10
REMARK                            x       y       z     vdW  Elec       q    Type
REMARK                         _______ _______ _______ _____ _____    ______ ____
ROOT
ATOM      1  N   UNL     1     -19.646  39.808  -9.500  0.00  0.00    +0.000 NA
ATOM      2  C   UNL     1     -18.278  40.835 -11.208  0.00  0.00    +0.000 A 
ATOM      3  C   UNL     1     -19.139  39.850 -10.752  0.00  0.00    +0.000 A 
ATOM      4  C   UNL     1     -17.914  41.843 -10.321  0.00  0.00    +0.000 A 
ATOM      5  C   UNL     1     -18.416  41.834  -9.024  0.00  0.00    +0.000 A 
ATOM      6  C   UNL     1     -19.270  40.804  -8.667  0.00  0.00    +0.000 A 
ENDROOT
BRANCH   3   7
ATOM      7  N   UNL     1     -19.517  38.822 -11.652  0.00  0.00    +0.000 N 
ATOM      8  H   UNL     1     -19.951  39.079 -12.530  0.00  0.00    +0.000 HD
ATOM      9  H   UNL     1     -19.790  37.938 -11.237  0.00  0.00    +0.000 HD
ENDBRANCH   3   7
BRANCH   2  11
ATOM     10  O   UNL     1     -16.965  39.975 -12.963  0.00  0.00    +0.000 OA
ATOM     11  C   UNL     1     -17.751  40.855 -12.566  0.00  0.00    +0.000 C 
BRANCH  11  14
ATOM     12  F   UNL     1     -17.274  43.023 -13.429  0.00  0.00    +0.000 F 
ATOM     13  F   UNL     1     -19.370  42.479 -13.251  0.00  0.00    +0.000 F 
ATOM     14  C   UNL     1     -18.134  41.976 -13.521  0.00  0.00    +0.000 C 
ENDBRANCH  11  14
ENDBRANCH   2  11
TORSDOF 3
ENDMDL
MODEL 4
REMARK VINA RESULT:    -5.199      3.057      4.239
REMARK INTER + INTRA:          -6.437
REMARK INTER:                  -5.995
REMARK INTRA:                  -0.441
REMARK UNBOUND:                -0.478
REMARK  Name = 112574395
REMARK  3 active torsions:
REMARK  status: ('A' for Active; 'I' for Inactive)
REMARK    1  A    between atoms: N_5  and  C_7
REMARK    2  A    between atoms: C_6  and  C_8
REMARK    3  A    between atoms: C_8  and  C_10
REMARK                            x       y       z     vdW  Elec       q    Type
REMARK                         _______ _______ _______ _____ _____    ______ ____
ROOT
ATOM      1  N   UNL     1     -19.598  41.972 -13.691  0.00  0.00    +0.000 NA
ATOM      2  C   UNL     1     -18.354  41.746 -11.631  0.00  0.00    +0.000 A 
ATOM      3  C   UNL     1     -19.240  41.278 -12.588  0.00  0.00    +0.000 A 
ATOM      4  C   UNL     1     -17.801  43.008 -11.818  0.00  0.00    +0.000 A 
ATOM      5  C   UNL     1     -18.144  43.752 -12.941  0.00  0.00    +0.000 A 
ATOM      6  C   UNL     1     -19.040  43.194 -13.839  0.00  0.00    +0.000 A 
ENDROOT
BRANCH   3   7
ATOM      7  N   UNL     1     -19.806  39.991 -12.406  0.00  0.00    +0.000 N 
ATOM      8  H   UNL     1     -19.495  39.235 -13.003  0.00  0.00    +0.000 HD
ATOM      9  H   UNL     1     -20.763  39.963 -12.076  0.00  0.00    +0.000 HD
ENDBRANCH   3   7
BRANCH   2  11
ATOM     10  O   UNL     1     -17.121  40.078 -10.518  0.00  0.00    +0.000 OA
ATOM     11  C   UNL     1     -17.985  40.972 -10.454  0.00  0.00    +0.000 C 
BRANCH  11  14
ATOM     12  F   UNL     1     -20.021  41.107  -9.226  0.00  0.00    +0.000 F 
ATOM     13  F   UNL     1     -18.442  42.489  -8.660  0.00  0.00    +0.000 F 
ATOM     14  C   UNL     1     -18.673  41.228  -9.120  0.00  0.00    +0.000 C 
ENDBRANCH  11  14
ENDBRANCH   2  11
TORSDOF 3
ENDMDL
MODEL 5
REMARK VINA RESULT:    -5.111      2.521      3.656
REMARK INTER + INTRA:          -6.336
REMARK INTER:                  -5.934
REMARK INTRA:                  -0.402
REMARK UNBOUND:                -0.478
REMARK  Name = 112574395
REMARK  3 active torsions:
REMARK  status: ('A' for Active; 'I' for Inactive)
REMARK    1  A    between atoms: N_5  and  C_7
REMARK    2  A    between atoms: C_6  and  C_8
REMARK    3  A    between atoms: C_8  and  C_10
REMARK                            x       y       z     vdW  Elec       q    Type
REMARK                         _______ _______ _______ _____ _____    ______ ____
ROOT
ATOM      1  N   UNL     1     -16.483  42.295 -12.236  0.00  0.00    +0.000 NA
ATOM      2  C   UNL     1     -18.506  41.147 -11.581  0.00  0.00    +0.000 A 
ATOM      3  C   UNL     1     -17.141  41.371 -11.502  0.00  0.00    +0.000 A 
ATOM      4  C   UNL     1     -19.242  41.921 -12.471  0.00  0.00    +0.000 A 
ATOM      5  C   UNL     1     -18.600  42.882 -13.244  0.00  0.00    +0.000 A 
ATOM      6  C   UNL     1     -17.231  43.028 -13.090  0.00  0.00    +0.000 A 
ENDROOT
BRANCH   3   7
ATOM      7  N   UNL     1     -16.385  40.588 -10.595  0.00  0.00    +0.000 N 
ATOM      8  H   UNL     1     -15.380  40.542 -10.713  0.00  0.00    +0.000 HD
ATOM      9  H   UNL     1     -16.848  39.774 -10.208  0.00  0.00    +0.000 HD
ENDBRANCH   3   7
BRANCH   2  11
ATOM     10  O   UNL     1     -19.206  38.948 -11.113  0.00  0.00    +0.000 OA
ATOM     11  C   UNL     1     -19.188  40.145 -10.773  0.00  0.00    +0.000 C 
BRANCH  11  14
ATOM     12  F   UNL     1     -19.357  41.652  -8.936  0.00  0.00    +0.000 F 
ATOM     13  F   UNL     1     -19.882  39.578  -8.554  0.00  0.00    +0.000 F 
ATOM     14  C   UNL     1     -19.921  40.553  -9.502  0.00  0.00    +0.000 C 
ENDBRANCH  11  14
ENDBRANCH   2  11
TORSDOF 3
ENDMDL
