MODEL 1
REMARK VINA RESULT:    -7.648      0.000      0.000
REMARK INTER + INTRA:          -8.695
REMARK INTER:                  -8.542
REMARK INTRA:                  -0.153
REMARK UNBOUND:                -0.153
REMARK  Name = 112722808
REMARK  2 active torsions:
REMARK  status: ('A' for Active; 'I' for Inactive)
REMARK    1  A    between atoms: N_2  and  C_5
REMARK    2  A    between atoms: C_13  and  C_15
REMARK                            x       y       z     vdW  Elec       q    Type
REMARK                         _______ _______ _______ _____ _____    ______ ____
ROOT
ATOM      1  N   UNL     1     -18.394  40.265 -10.369  0.00  0.00    +0.000 N 
ATOM      2  N   UNL     1     -18.563  41.800  -8.592  0.00  0.00    +0.000 NA
ATOM      3  C   UNL     1     -19.121  40.810  -9.325  0.00  0.00    +0.000 A 
ATOM      4  C   UNL     1     -20.389  40.298  -9.100  0.00  0.00    +0.000 A 
ATOM      5  C   UNL     1     -21.132  40.836  -8.054  0.00  0.00    +0.000 A 
ATOM      6  C   UNL     1     -20.592  41.855  -7.277  0.00  0.00    +0.000 A 
ATOM      7  C   UNL     1     -19.315  42.297  -7.584  0.00  0.00    +0.000 A 
ATOM      8  H   UNL     1     -18.705  39.364 -10.720  0.00  0.00    +0.000 HD
ENDROOT
BRANCH   6  11
ATOM      9  O   UNL     1     -21.168  42.069  -5.003  0.00  0.00    +0.000 OA
ATOM     10  N   UNL     1     -22.259  43.442  -6.480  0.00  0.00    +0.000 N 
ATOM     11  C   UNL     1     -21.343  42.437  -6.179  0.00  0.00    +0.000 C 
ATOM     12  H   UNL     1     -22.457  43.800  -7.406  0.00  0.00    +0.000 HD
ATOM     13  H   UNL     1     -22.794  43.870  -5.731  0.00  0.00    +0.000 HD
ENDBRANCH   6  11
BRANCH   1  14
ATOM     14  C   UNL     1     -17.059  40.694 -10.726  0.00  0.00    +0.000 C 
ATOM     15  C   UNL     1     -16.390  39.674 -11.639  0.00  0.00    +0.000 C 
ATOM     16  C   UNL     1     -17.108  41.943 -11.597  0.00  0.00    +0.000 C 
ATOM     17  C   UNL     1     -16.946  39.969 -13.030  0.00  0.00    +0.000 C 
ATOM     18  C   UNL     1     -17.402  41.428 -13.006  0.00  0.00    +0.000 C 
ENDBRANCH   1  14
TORSDOF 2
ENDMDL
MODEL 2
REMARK VINA RESULT:    -7.069      1.467      2.012
REMARK INTER + INTRA:          -8.048
REMARK INTER:                  -8.162
REMARK INTRA:                   0.114
REMARK UNBOUND:                -0.153
REMARK  Name = 112722808
REMARK  2 active torsions:
REMARK  status: ('A' for Active; 'I' for Inactive)
REMARK    1  A    between atoms: N_2  and  C_5
REMARK    2  A    between atoms: C_13  and  C_15
REMARK                            x       y       z     vdW  Elec       q    Type
REMARK                         _______ _______ _______ _____ _____    ______ ____
ROOT
ATOM      1  N   UNL     1     -17.800  41.157  -9.429  0.00  0.00    +0.000 N 
ATOM      2  N   UNL     1     -20.064  40.522  -9.307  0.00  0.00    +0.000 NA
ATOM      3  C   UNL     1     -19.036  41.248  -8.812  0.00  0.00    +0.000 A 
ATOM      4  C   UNL     1     -19.136  42.086  -7.713  0.00  0.00    +0.000 A 
ATOM      5  C   UNL     1     -20.372  42.186  -7.082  0.00  0.00    +0.000 A 
ATOM      6  C   UNL     1     -21.454  41.456  -7.563  0.00  0.00    +0.000 A 
ATOM      7  C   UNL     1     -21.249  40.646  -8.668  0.00  0.00    +0.000 A 
ATOM      8  H   UNL     1     -17.133  41.895  -9.225  0.00  0.00    +0.000 HD
ENDROOT
BRANCH   6  11
ATOM      9  O   UNL     1     -22.998  42.391  -6.050  0.00  0.00    +0.000 OA
ATOM     10  N   UNL     1     -23.740  40.646  -7.340  0.00  0.00    +0.000 N 
ATOM     11  C   UNL     1     -22.756  41.540  -6.925  0.00  0.00    +0.000 C 
ATOM     12  H   UNL     1     -23.625  39.930  -8.045  0.00  0.00    +0.000 HD
ATOM     13  H   UNL     1     -24.661  40.686  -6.915  0.00  0.00    +0.000 HD
ENDBRANCH   6  11
BRANCH   1  14
ATOM     14  C   UNL     1     -17.540  40.326 -10.585  0.00  0.00    +0.000 C 
ATOM     15  C   UNL     1     -18.394  40.765 -11.768  0.00  0.00    +0.000 C 
ATOM     16  C   UNL     1     -16.121  40.542 -11.096  0.00  0.00    +0.000 C 
ATOM     17  C   UNL     1     -17.656  41.964 -12.360  0.00  0.00    +0.000 C 
ATOM     18  C   UNL     1     -16.195  41.818 -11.934  0.00  0.00    +0.000 C 
ENDBRANCH   1  14
TORSDOF 2
ENDMDL
MODEL 3
REMARK VINA RESULT:    -6.185      3.511      6.177
REMARK INTER + INTRA:          -7.061
REMARK INTER:                  -7.311
REMARK INTRA:                   0.251
REMARK UNBOUND:                -0.153
REMARK  Name = 112722808
REMARK  2 active torsions:
REMARK  status: ('A' for Active; 'I' for Inactive)
REMARK    1  A    between atoms: N_2  and  C_5
REMARK    2  A    between atoms: C_13  and  C_15
REMARK                            x       y       z     vdW  Elec       q    Type
REMARK                         _______ _______ _______ _____ _____    ______ ____
ROOT
ATOM      1  N   UNL     1     -19.527  40.895 -10.655  0.00  0.00    +0.000 N 
ATOM      2  N   UNL     1     -17.291  41.631 -10.689  0.00  0.00    +0.000 NA
ATOM      3  C   UNL     1     -18.519  41.627 -11.257  0.00  0.00    +0.000 A 
ATOM      4  C   UNL     1     -18.840  42.315 -12.417  0.00  0.00    +0.000 A 
ATOM      5  C   UNL     1     -17.837  43.055 -13.033  0.00  0.00    +0.000 A 
ATOM      6  C   UNL     1     -16.561  43.084 -12.479  0.00  0.00    +0.000 A 
ATOM      7  C   UNL     1     -16.342  42.362 -11.317  0.00  0.00    +0.000 A 
ATOM      8  H   UNL     1     -20.480  41.119 -10.927  0.00  0.00    +0.000 HD
ENDROOT
BRANCH   6  11
ATOM      9  O   UNL     1     -15.733  44.784 -13.884  0.00  0.00    +0.000 OA
ATOM     10  N   UNL     1     -14.182  43.511 -12.774  0.00  0.00    +0.000 N 
ATOM     11  C   UNL     1     -15.493  43.848 -13.100  0.00  0.00    +0.000 C 
ATOM     12  H   UNL     1     -13.903  42.770 -12.145  0.00  0.00    +0.000 HD
ATOM     13  H   UNL     1     -13.416  44.032 -13.189  0.00  0.00    +0.000 HD
ENDBRANCH   6  11
BRANCH   1  14
ATOM     14  C   UNL     1     -19.345  40.127  -9.442  0.00  0.00    +0.000 C 
ATOM     15  C   UNL     1     -18.767  40.998  -8.333  0.00  0.00    +0.000 C 
ATOM     16  C   UNL     1     -20.691  39.701  -8.866  0.00  0.00    +0.000 C 
ATOM     17  C   UNL     1     -19.963  41.761  -7.770  0.00  0.00    +0.000 C 
ATOM     18  C   UNL     1     -21.198  40.926  -8.106  0.00  0.00    +0.000 C 
ENDBRANCH   1  14
TORSDOF 2
ENDMDL
MODEL 4
REMARK VINA RESULT:    -6.095      4.647      6.385
REMARK INTER + INTRA:          -6.960
REMARK INTER:                  -6.709
REMARK INTRA:                  -0.251
REMARK UNBOUND:                -0.153
REMARK  Name = 112722808
REMARK  2 active torsions:
REMARK  status: ('A' for Active; 'I' for Inactive)
REMARK    1  A    between atoms: N_2  and  C_5
REMARK    2  A    between atoms: C_13  and  C_15
REMARK                            x       y       z     vdW  Elec       q    Type
REMARK                         _______ _______ _______ _____ _____    ______ ____
ROOT
ATOM      1  N   UNL     1     -20.003  43.791 -15.185  0.00  0.00    +0.000 N 
ATOM      2  N   UNL     1     -19.636  41.932 -13.788  0.00  0.00    +0.000 NA
ATOM      3  C   UNL     1     -19.419  43.239 -14.059  0.00  0.00    +0.000 A 
ATOM      4  C   UNL     1     -18.640  44.075 -13.274  0.00  0.00    +0.000 A 
ATOM      5  C   UNL     1     -18.047  43.534 -12.138  0.00  0.00    +0.000 A 
ATOM      6  C   UNL     1     -18.246  42.193 -11.827  0.00  0.00    +0.000 A 
ATOM      7  C   UNL     1     -19.042  41.442 -12.677  0.00  0.00    +0.000 A 
ATOM      8  H   UNL     1     -20.059  44.805 -15.221  0.00  0.00    +0.000 HD
ENDROOT
BRANCH   6  11
ATOM      9  O   UNL     1     -17.033  40.515 -10.704  0.00  0.00    +0.000 OA
ATOM     10  N   UNL     1     -17.740  42.298  -9.447  0.00  0.00    +0.000 N 
ATOM     11  C   UNL     1     -17.639  41.601 -10.648  0.00  0.00    +0.000 C 
ATOM     12  H   UNL     1     -18.210  43.184  -9.318  0.00  0.00    +0.000 HD
ATOM     13  H   UNL     1     -17.320  41.909  -8.608  0.00  0.00    +0.000 HD
ENDBRANCH   6  11
BRANCH   1  14
ATOM     14  C   UNL     1     -20.842  43.046 -16.100  0.00  0.00    +0.000 C 
ATOM     15  C   UNL     1     -22.177  43.751 -16.304  0.00  0.00    +0.000 C 
ATOM     16  C   UNL     1     -20.244  43.047 -17.502  0.00  0.00    +0.000 C 
ATOM     17  C   UNL     1     -21.890  44.846 -17.328  0.00  0.00    +0.000 C 
ATOM     18  C   UNL     1     -20.652  44.392 -18.102  0.00  0.00    +0.000 C 
ENDBRANCH   1  14
TORSDOF 2
ENDMDL
MODEL 5
REMARK VINA RESULT:    -5.552      5.289      7.234
REMARK INTER + INTRA:          -6.354
REMARK INTER:                  -6.106
REMARK INTRA:                  -0.248
REMARK UNBOUND:                -0.153
REMARK  Name = 112722808
REMARK  2 active torsions:
REMARK  status: ('A' for Active; 'I' for Inactive)
REMARK    1  A    between atoms: N_2  and  C_5
REMARK    2  A    between atoms: C_13  and  C_15
REMARK                            x       y       z     vdW  Elec       q    Type
REMARK                         _______ _______ _______ _____ _____    ______ ____
ROOT
ATOM      1  N   UNL     1     -18.620  42.235 -12.545  0.00  0.00    +0.000 N 
ATOM      2  N   UNL     1     -19.886  42.370 -14.526  0.00  0.00    +0.000 NA
ATOM      3  C   UNL     1     -19.003  42.938 -13.673  0.00  0.00    +0.000 A 
ATOM      4  C   UNL     1     -18.450  44.197 -13.854  0.00  0.00    +0.000 A 
ATOM      5  C   UNL     1     -18.827  44.916 -14.984  0.00  0.00    +0.000 A 
ATOM      6  C   UNL     1     -19.732  44.364 -15.884  0.00  0.00    +0.000 A 
ATOM      7  C   UNL     1     -20.227  43.099 -15.611  0.00  0.00    +0.000 A 
ATOM      8  H   UNL     1     -17.774  42.547 -12.077  0.00  0.00    +0.000 HD
ENDROOT
BRANCH   6  11
ATOM      9  O   UNL     1     -19.712  44.792 -18.200  0.00  0.00    +0.000 OA
ATOM     10  N   UNL     1     -21.058  46.129 -16.912  0.00  0.00    +0.000 N 
ATOM     11  C   UNL     1     -20.143  45.091 -17.072  0.00  0.00    +0.000 C 
ATOM     12  H   UNL     1     -21.459  46.431 -16.033  0.00  0.00    +0.000 HD
ATOM     13  H   UNL     1     -21.368  46.650 -17.726  0.00  0.00    +0.000 HD
ENDBRANCH   6  11
BRANCH   1  14
ATOM     14  C   UNL     1     -19.110  40.912 -12.220  0.00  0.00    +0.000 C 
ATOM     15  C   UNL     1     -18.077  39.851 -12.578  0.00  0.00    +0.000 C 
ATOM     16  C   UNL     1     -19.254  40.745 -10.712  0.00  0.00    +0.000 C 
ATOM     17  C   UNL     1     -17.087  39.860 -11.416  0.00  0.00    +0.000 C 
ATOM     18  C   UNL     1     -17.844  40.428 -10.216  0.00  0.00    +0.000 C 
ENDBRANCH   1  14
TORSDOF 2
ENDMDL
