MODEL 1
REMARK VINA RESULT:    -7.120      0.000      0.000
REMARK INTER + INTRA:          -9.970
REMARK INTER:                  -9.409
REMARK INTRA:                  -0.561
REMARK UNBOUND:                -0.561
REMARK  Name = 113328061
REMARK  6 active torsions:
REMARK  status: ('A' for Active; 'I' for Inactive)
REMARK    1  A    between atoms: N_5  and  C_9
REMARK    2  A    between atoms: N_7  and  C_14
REMARK    3  A    between atoms: C_8  and  C_9
REMARK    4  A    between atoms: C_8  and  C_10
REMARK    5  A    between atoms: C_10  and  C_11
REMARK    6  A    between atoms: C_12  and  C_13
REMARK                            x       y       z     vdW  Elec       q    Type
REMARK                         _______ _______ _______ _____ _____    ______ ____
ROOT
ATOM      1  O   UNL     1     -17.504  40.104 -10.667  0.00  0.00    +0.000 OA
ATOM      2  N   UNL     1     -18.818  41.576  -9.447  0.00  0.00    +0.000 N 
ATOM      3  C   UNL     1     -18.216  41.103 -10.608  0.00  0.00    +0.000 C 
ATOM      4  H   UNL     1     -19.384  42.419  -9.487  0.00  0.00    +0.000 HD
ENDROOT
BRANCH   3   6
ATOM      5  N   UNL     1     -19.561  42.200 -13.967  0.00  0.00    +0.000 NA
ATOM      6  C   UNL     1     -18.453  41.900 -11.838  0.00  0.00    +0.000 A 
ATOM      7  C   UNL     1     -19.327  41.497 -12.836  0.00  0.00    +0.000 A 
ATOM      8  C   UNL     1     -17.776  43.102 -12.014  0.00  0.00    +0.000 A 
ATOM      9  C   UNL     1     -17.990  43.853 -13.164  0.00  0.00    +0.000 A 
ATOM     10  C   UNL     1     -18.883  43.363 -14.102  0.00  0.00    +0.000 A 
BRANCH   7  11
ATOM     11  N   UNL     1     -20.019  40.272 -12.665  0.00  0.00    +0.000 N 
ATOM     12  H   UNL     1     -20.875  40.122 -13.185  0.00  0.00    +0.000 HD
ATOM     13  H   UNL     1     -19.939  39.830 -11.757  0.00  0.00    +0.000 HD
ENDBRANCH   7  11
ENDBRANCH   3   6
BRANCH   2  14
ATOM     14  C   UNL     1     -18.663  40.929  -8.174  0.00  0.00    +0.000 C 
BRANCH  14  15
ATOM     15  C   UNL     1     -19.791  41.265  -7.203  0.00  0.00    +0.000 C 
BRANCH  15  16
ATOM     16  C   UNL     1     -21.165  41.254  -7.876  0.00  0.00    +0.000 C 
BRANCH  16  20
ATOM     17  F   UNL     1     -21.833  41.602  -5.644  0.00  0.00    +0.000 F 
ATOM     18  F   UNL     1     -22.638  42.958  -7.148  0.00  0.00    +0.000 F 
ATOM     19  F   UNL     1     -23.352  40.896  -7.040  0.00  0.00    +0.000 F 
ATOM     20  C   UNL     1     -22.260  41.682  -6.923  0.00  0.00    +0.000 C 
ENDBRANCH  16  20
ENDBRANCH  15  16
ENDBRANCH  14  15
ENDBRANCH   2  14
TORSDOF 6
ENDMDL
MODEL 2
REMARK VINA RESULT:    -6.733      1.737      2.304
REMARK INTER + INTRA:          -9.459
REMARK INTER:                  -8.963
REMARK INTRA:                  -0.496
REMARK UNBOUND:                -0.561
REMARK  Name = 113328061
REMARK  6 active torsions:
REMARK  status: ('A' for Active; 'I' for Inactive)
REMARK    1  A    between atoms: N_5  and  C_9
REMARK    2  A    between atoms: N_7  and  C_14
REMARK    3  A    between atoms: C_8  and  C_9
REMARK    4  A    between atoms: C_8  and  C_10
REMARK    5  A    between atoms: C_10  and  C_11
REMARK    6  A    between atoms: C_12  and  C_13
REMARK                            x       y       z     vdW  Elec       q    Type
REMARK                         _______ _______ _______ _____ _____    ______ ____
ROOT
ATOM      1  O   UNL     1     -17.853  40.098 -10.989  0.00  0.00    +0.000 OA
ATOM      2  N   UNL     1     -18.123  41.665  -9.300  0.00  0.00    +0.000 N 
ATOM      3  C   UNL     1     -17.758  41.251 -10.576  0.00  0.00    +0.000 C 
ATOM      4  H   UNL     1     -18.000  42.639  -9.038  0.00  0.00    +0.000 HD
ENDROOT
BRANCH   3   6
ATOM      5  N   UNL     1     -15.306  43.346 -12.550  0.00  0.00    +0.000 NA
ATOM      6  C   UNL     1     -17.198  42.298 -11.468  0.00  0.00    +0.000 A 
ATOM      7  C   UNL     1     -15.844  42.402 -11.744  0.00  0.00    +0.000 A 
ATOM      8  C   UNL     1     -18.055  43.222 -12.056  0.00  0.00    +0.000 A 
ATOM      9  C   UNL     1     -17.539  44.207 -12.890  0.00  0.00    +0.000 A 
ATOM     10  C   UNL     1     -16.171  44.227 -13.102  0.00  0.00    +0.000 A 
BRANCH   7  11
ATOM     11  N   UNL     1     -14.964  41.465 -11.147  0.00  0.00    +0.000 N 
ATOM     12  H   UNL     1     -15.342  40.582 -10.825  0.00  0.00    +0.000 HD
ATOM     13  H   UNL     1     -14.170  41.847 -10.646  0.00  0.00    +0.000 HD
ENDBRANCH   7  11
ENDBRANCH   3   6
BRANCH   2  14
ATOM     14  C   UNL     1     -18.656  40.766  -8.315  0.00  0.00    +0.000 C 
BRANCH  14  15
ATOM     15  C   UNL     1     -19.694  41.430  -7.415  0.00  0.00    +0.000 C 
BRANCH  15  16
ATOM     16  C   UNL     1     -21.124  41.225  -7.919  0.00  0.00    +0.000 C 
BRANCH  16  20
ATOM     17  F   UNL     1     -22.251  43.128  -7.108  0.00  0.00    +0.000 F 
ATOM     18  F   UNL     1     -23.368  41.256  -7.165  0.00  0.00    +0.000 F 
ATOM     19  F   UNL     1     -21.799  41.549  -5.673  0.00  0.00    +0.000 F 
ATOM     20  C   UNL     1     -22.145  41.789  -6.956  0.00  0.00    +0.000 C 
ENDBRANCH  16  20
ENDBRANCH  15  16
ENDBRANCH  14  15
ENDBRANCH   2  14
TORSDOF 6
ENDMDL
MODEL 3
REMARK VINA RESULT:    -6.615      3.477      5.711
REMARK INTER + INTRA:          -9.302
REMARK INTER:                  -8.282
REMARK INTRA:                  -1.020
REMARK UNBOUND:                -0.561
REMARK  Name = 113328061
REMARK  6 active torsions:
REMARK  status: ('A' for Active; 'I' for Inactive)
REMARK    1  A    between atoms: N_5  and  C_9
REMARK    2  A    between atoms: N_7  and  C_14
REMARK    3  A    between atoms: C_8  and  C_9
REMARK    4  A    between atoms: C_8  and  C_10
REMARK    5  A    between atoms: C_10  and  C_11
REMARK    6  A    between atoms: C_12  and  C_13
REMARK                            x       y       z     vdW  Elec       q    Type
REMARK                         _______ _______ _______ _____ _____    ______ ____
ROOT
ATOM      1  O   UNL     1     -17.799  40.367  -8.687  0.00  0.00    +0.000 OA
ATOM      2  N   UNL     1     -18.200  42.436  -9.658  0.00  0.00    +0.000 N 
ATOM      3  C   UNL     1     -18.517  41.351  -8.848  0.00  0.00    +0.000 C 
ATOM      4  H   UNL     1     -18.860  43.204  -9.742  0.00  0.00    +0.000 HD
ENDROOT
BRANCH   3   6
ATOM      5  N   UNL     1     -22.103  40.611  -7.903  0.00  0.00    +0.000 NA
ATOM      6  C   UNL     1     -19.835  41.408  -8.165  0.00  0.00    +0.000 A 
ATOM      7  C   UNL     1     -20.893  40.580  -8.506  0.00  0.00    +0.000 A 
ATOM      8  C   UNL     1     -20.032  42.328  -7.141  0.00  0.00    +0.000 A 
ATOM      9  C   UNL     1     -21.263  42.390  -6.498  0.00  0.00    +0.000 A 
ATOM     10  C   UNL     1     -22.257  41.519  -6.913  0.00  0.00    +0.000 A 
BRANCH   7  11
ATOM     11  N   UNL     1     -20.700  39.641  -9.550  0.00  0.00    +0.000 N 
ATOM     12  H   UNL     1     -21.318  38.841  -9.604  0.00  0.00    +0.000 HD
ATOM     13  H   UNL     1     -19.749  39.523  -9.882  0.00  0.00    +0.000 HD
ENDBRANCH   7  11
ENDBRANCH   3   6
BRANCH   2  14
ATOM     14  C   UNL     1     -16.974  42.516 -10.402  0.00  0.00    +0.000 C 
BRANCH  14  15
ATOM     15  C   UNL     1     -17.168  42.222 -11.886  0.00  0.00    +0.000 C 
BRANCH  15  16
ATOM     16  C   UNL     1     -16.934  40.748 -12.227  0.00  0.00    +0.000 C 
BRANCH  16  20
ATOM     17  F   UNL     1     -19.287  40.839 -12.278  0.00  0.00    +0.000 F 
ATOM     18  F   UNL     1     -18.313  39.449 -13.645  0.00  0.00    +0.000 F 
ATOM     19  F   UNL     1     -18.376  39.015 -11.504  0.00  0.00    +0.000 F 
ATOM     20  C   UNL     1     -18.236  40.001 -12.416  0.00  0.00    +0.000 C 
ENDBRANCH  16  20
ENDBRANCH  15  16
ENDBRANCH  14  15
ENDBRANCH   2  14
TORSDOF 6
ENDMDL
MODEL 4
REMARK VINA RESULT:    -6.581      3.512      5.611
REMARK INTER + INTRA:          -9.258
REMARK INTER:                  -8.363
REMARK INTRA:                  -0.895
REMARK UNBOUND:                -0.561
REMARK  Name = 113328061
REMARK  6 active torsions:
REMARK  status: ('A' for Active; 'I' for Inactive)
REMARK    1  A    between atoms: N_5  and  C_9
REMARK    2  A    between atoms: N_7  and  C_14
REMARK    3  A    between atoms: C_8  and  C_9
REMARK    4  A    between atoms: C_8  and  C_10
REMARK    5  A    between atoms: C_10  and  C_11
REMARK    6  A    between atoms: C_12  and  C_13
REMARK                            x       y       z     vdW  Elec       q    Type
REMARK                         _______ _______ _______ _____ _____    ______ ____
ROOT
ATOM      1  O   UNL     1     -17.211  40.131 -10.536  0.00  0.00    +0.000 OA
ATOM      2  N   UNL     1     -17.109  42.448 -10.481  0.00  0.00    +0.000 N 
ATOM      3  C   UNL     1     -17.639  41.211 -10.134  0.00  0.00    +0.000 C 
ATOM      4  H   UNL     1     -17.534  43.293 -10.109  0.00  0.00    +0.000 HD
ENDROOT
BRANCH   3   6
ATOM      5  N   UNL     1     -21.035  40.461  -8.649  0.00  0.00    +0.000 NA
ATOM      6  C   UNL     1     -18.819  41.234  -9.231  0.00  0.00    +0.000 A 
ATOM      7  C   UNL     1     -19.946  40.459  -9.452  0.00  0.00    +0.000 A 
ATOM      8  C   UNL     1     -18.808  42.065  -8.117  0.00  0.00    +0.000 A 
ATOM      9  C   UNL     1     -19.909  42.095  -7.268  0.00  0.00    +0.000 A 
ATOM     10  C   UNL     1     -20.987  41.282  -7.576  0.00  0.00    +0.000 A 
BRANCH   7  11
ATOM     11  N   UNL     1     -19.966  39.611 -10.587  0.00  0.00    +0.000 N 
ATOM     12  H   UNL     1     -20.797  39.593 -11.165  0.00  0.00    +0.000 HD
ATOM     13  H   UNL     1     -19.418  38.759 -10.525  0.00  0.00    +0.000 HD
ENDBRANCH   7  11
ENDBRANCH   3   6
BRANCH   2  14
ATOM     14  C   UNL     1     -15.985  42.592 -11.363  0.00  0.00    +0.000 C 
BRANCH  14  15
ATOM     15  C   UNL     1     -16.401  42.859 -12.806  0.00  0.00    +0.000 C 
BRANCH  15  16
ATOM     16  C   UNL     1     -17.866  43.288 -12.923  0.00  0.00    +0.000 C 
BRANCH  16  20
ATOM     17  F   UNL     1     -18.043  41.029 -13.568  0.00  0.00    +0.000 F 
ATOM     18  F   UNL     1     -19.840  41.988 -12.792  0.00  0.00    +0.000 F 
ATOM     19  F   UNL     1     -19.101  42.499 -14.783  0.00  0.00    +0.000 F 
ATOM     20  C   UNL     1     -18.724  42.195 -13.523  0.00  0.00    +0.000 C 
ENDBRANCH  16  20
ENDBRANCH  15  16
ENDBRANCH  14  15
ENDBRANCH   2  14
TORSDOF 6
ENDMDL
MODEL 5
REMARK VINA RESULT:    -6.535      3.421      6.083
REMARK INTER + INTRA:          -9.196
REMARK INTER:                  -8.515
REMARK INTRA:                  -0.682
REMARK UNBOUND:                -0.561
REMARK  Name = 113328061
REMARK  6 active torsions:
REMARK  status: ('A' for Active; 'I' for Inactive)
REMARK    1  A    between atoms: N_5  and  C_9
REMARK    2  A    between atoms: N_7  and  C_14
REMARK    3  A    between atoms: C_8  and  C_9
REMARK    4  A    between atoms: C_8  and  C_10
REMARK    5  A    between atoms: C_10  and  C_11
REMARK    6  A    between atoms: C_12  and  C_13
REMARK                            x       y       z     vdW  Elec       q    Type
REMARK                         _______ _______ _______ _____ _____    ______ ____
ROOT
ATOM      1  O   UNL     1     -18.386  40.433  -8.619  0.00  0.00    +0.000 OA
ATOM      2  N   UNL     1     -19.911  39.956 -10.302  0.00  0.00    +0.000 N 
ATOM      3  C   UNL     1     -19.535  40.442  -9.055  0.00  0.00    +0.000 C 
ATOM      4  H   UNL     1     -20.888  39.994 -10.577  0.00  0.00    +0.000 HD
ENDROOT
BRANCH   3   6
ATOM      5  N   UNL     1     -21.443  42.600  -6.605  0.00  0.00    +0.000 NA
ATOM      6  C   UNL     1     -20.629  40.981  -8.207  0.00  0.00    +0.000 A 
ATOM      7  C   UNL     1     -20.467  42.089  -7.389  0.00  0.00    +0.000 A 
ATOM      8  C   UNL     1     -21.872  40.358  -8.219  0.00  0.00    +0.000 A 
ATOM      9  C   UNL     1     -22.900  40.855  -7.427  0.00  0.00    +0.000 A 
ATOM     10  C   UNL     1     -22.637  41.967  -6.644  0.00  0.00    +0.000 A 
BRANCH   7  11
ATOM     11  N   UNL     1     -19.202  42.728  -7.369  0.00  0.00    +0.000 N 
ATOM     12  H   UNL     1     -18.368  42.153  -7.381  0.00  0.00    +0.000 HD
ATOM     13  H   UNL     1     -19.152  43.617  -6.885  0.00  0.00    +0.000 HD
ENDBRANCH   7  11
ENDBRANCH   3   6
BRANCH   2  14
ATOM     14  C   UNL     1     -18.973  39.382 -11.226  0.00  0.00    +0.000 C 
BRANCH  14  15
ATOM     15  C   UNL     1     -19.022  40.044 -12.600  0.00  0.00    +0.000 C 
BRANCH  15  16
ATOM     16  C   UNL     1     -19.493  41.498 -12.533  0.00  0.00    +0.000 C 
BRANCH  16  20
ATOM     17  F   UNL     1     -18.745  43.728 -12.676  0.00  0.00    +0.000 F 
ATOM     18  F   UNL     1     -17.750  42.433 -11.231  0.00  0.00    +0.000 F 
ATOM     19  F   UNL     1     -17.383  42.173 -13.369  0.00  0.00    +0.000 F 
ATOM     20  C   UNL     1     -18.329  42.462 -12.451  0.00  0.00    +0.000 C 
ENDBRANCH  16  20
ENDBRANCH  15  16
ENDBRANCH  14  15
ENDBRANCH   2  14
TORSDOF 6
ENDMDL
