MODEL 1
REMARK VINA RESULT:    -7.264      0.000      0.000
REMARK INTER + INTRA:          -9.822
REMARK INTER:                  -9.600
REMARK INTRA:                  -0.222
REMARK UNBOUND:                -0.222
REMARK  Name = 113966362
REMARK  6 active torsions:
REMARK  status: ('A' for Active; 'I' for Inactive)
REMARK    1  A    between atoms: N_5  and  C_9
REMARK    2  A    between atoms: N_5  and  C_10
REMARK    3  A    between atoms: N_7  and  C_12
REMARK    4  A    between atoms: C_9  and  C_12
REMARK    5  A    between atoms: C_10  and  C_13
REMARK    6  A    between atoms: C_16  and  C_18
REMARK                            x       y       z     vdW  Elec       q    Type
REMARK                         _______ _______ _______ _____ _____    ______ ____
ROOT
ATOM      1  N   UNL     1     -18.188  40.472 -10.344  0.00  0.00    +0.000 N 
ATOM      2  N   UNL     1     -20.251  40.113  -9.236  0.00  0.00    +0.000 NA
ATOM      3  C   UNL     1     -19.121  40.842  -9.366  0.00  0.00    +0.000 A 
ATOM      4  C   UNL     1     -18.816  41.948  -8.587  0.00  0.00    +0.000 A 
ATOM      5  C   UNL     1     -19.732  42.328  -7.611  0.00  0.00    +0.000 A 
ATOM      6  C   UNL     1     -20.907  41.603  -7.448  0.00  0.00    +0.000 A 
ATOM      7  C   UNL     1     -21.117  40.513  -8.277  0.00  0.00    +0.000 A 
ENDROOT
BRANCH   6  10
ATOM      8  O   UNL     1     -23.042  41.522  -6.456  0.00  0.00    +0.000 OA
ATOM      9  N   UNL     1     -21.475  42.846  -5.431  0.00  0.00    +0.000 N 
ATOM     10  C   UNL     1     -21.882  41.975  -6.439  0.00  0.00    +0.000 C 
ATOM     11  H   UNL     1     -20.553  43.254  -5.343  0.00  0.00    +0.000 HD
ATOM     12  H   UNL     1     -22.135  43.118  -4.709  0.00  0.00    +0.000 HD
ENDBRANCH   6  10
BRANCH   1  13
ATOM     13  C   UNL     1     -16.961  41.208 -10.534  0.00  0.00    +0.000 C 
BRANCH  13  14
ATOM     14  C   UNL     1     -15.946  40.335 -11.259  0.00  0.00    +0.000 C 
BRANCH  14  15
ATOM     15  N   UNL     1     -14.607  40.895 -11.124  0.00  0.00    +0.000 NA
ATOM     16  H   UNL     1     -13.970  40.421 -11.762  0.00  0.00    +0.000 HD
ATOM     17  H   UNL     1     -14.258  40.712 -10.184  0.00  0.00    +0.000 HD
ENDBRANCH  14  15
ENDBRANCH  13  14
ENDBRANCH   1  13
BRANCH   1  18
ATOM     18  C   UNL     1     -18.444  39.308 -11.196  0.00  0.00    +0.000 C 
BRANCH  18  22
ATOM     19  F   UNL     1     -19.710  40.957 -12.297  0.00  0.00    +0.000 F 
ATOM     20  F   UNL     1     -18.296  39.815 -13.501  0.00  0.00    +0.000 F 
ATOM     21  F   UNL     1     -20.138  38.876 -12.789  0.00  0.00    +0.000 F 
ATOM     22  C   UNL     1     -19.151  39.737 -12.459  0.00  0.00    +0.000 C 
ENDBRANCH  18  22
ENDBRANCH   1  18
TORSDOF 6
ENDMDL
MODEL 2
REMARK VINA RESULT:    -5.757      4.503      6.090
REMARK INTER + INTRA:          -7.830
REMARK INTER:                  -7.563
REMARK INTRA:                  -0.268
REMARK UNBOUND:                -0.222
REMARK  Name = 113966362
REMARK  6 active torsions:
REMARK  status: ('A' for Active; 'I' for Inactive)
REMARK    1  A    between atoms: N_5  and  C_9
REMARK    2  A    between atoms: N_5  and  C_10
REMARK    3  A    between atoms: N_7  and  C_12
REMARK    4  A    between atoms: C_9  and  C_12
REMARK    5  A    between atoms: C_10  and  C_13
REMARK    6  A    between atoms: C_16  and  C_18
REMARK                            x       y       z     vdW  Elec       q    Type
REMARK                         _______ _______ _______ _____ _____    ______ ____
ROOT
ATOM      1  N   UNL     1     -18.488  41.787 -11.607  0.00  0.00    +0.000 N 
ATOM      2  N   UNL     1     -17.364  43.862 -11.383  0.00  0.00    +0.000 NA
ATOM      3  C   UNL     1     -18.267  43.101 -12.042  0.00  0.00    +0.000 A 
ATOM      4  C   UNL     1     -19.000  43.538 -13.134  0.00  0.00    +0.000 A 
ATOM      5  C   UNL     1     -18.791  44.840 -13.578  0.00  0.00    +0.000 A 
ATOM      6  C   UNL     1     -17.871  45.653 -12.926  0.00  0.00    +0.000 A 
ATOM      7  C   UNL     1     -17.189  45.121 -11.844  0.00  0.00    +0.000 A 
ENDROOT
BRANCH   6  10
ATOM      8  O   UNL     1     -18.455  47.924 -13.149  0.00  0.00    +0.000 OA
ATOM      9  N   UNL     1     -16.435  47.285 -14.027  0.00  0.00    +0.000 N 
ATOM     10  C   UNL     1     -17.632  47.016 -13.366  0.00  0.00    +0.000 C 
ATOM     11  H   UNL     1     -15.714  46.607 -14.238  0.00  0.00    +0.000 HD
ATOM     12  H   UNL     1     -16.239  48.230 -14.339  0.00  0.00    +0.000 HD
ENDBRANCH   6  10
BRANCH   1  13
ATOM     13  C   UNL     1     -19.438  40.924 -12.267  0.00  0.00    +0.000 C 
BRANCH  13  14
ATOM     14  C   UNL     1     -18.852  39.525 -12.402  0.00  0.00    +0.000 C 
BRANCH  14  15
ATOM     15  N   UNL     1     -19.661  38.563 -11.665  0.00  0.00    +0.000 NA
ATOM     16  H   UNL     1     -20.393  39.051 -11.151  0.00  0.00    +0.000 HD
ATOM     17  H   UNL     1     -19.083  38.099 -10.966  0.00  0.00    +0.000 HD
ENDBRANCH  14  15
ENDBRANCH  13  14
ENDBRANCH   1  13
BRANCH   1  18
ATOM     18  C   UNL     1     -17.741  41.260 -10.463  0.00  0.00    +0.000 C 
BRANCH  18  22
ATOM     19  F   UNL     1     -18.133  40.512  -8.268  0.00  0.00    +0.000 F 
ATOM     20  F   UNL     1     -18.469  42.627  -8.676  0.00  0.00    +0.000 F 
ATOM     21  F   UNL     1     -19.867  41.129  -9.437  0.00  0.00    +0.000 F 
ATOM     22  C   UNL     1     -18.563  41.388  -9.204  0.00  0.00    +0.000 C 
ENDBRANCH  18  22
ENDBRANCH   1  18
TORSDOF 6
ENDMDL
MODEL 3
REMARK VINA RESULT:    -5.592      4.148      5.962
REMARK INTER + INTRA:          -7.612
REMARK INTER:                  -7.310
REMARK INTRA:                  -0.302
REMARK UNBOUND:                -0.222
REMARK  Name = 113966362
REMARK  6 active torsions:
REMARK  status: ('A' for Active; 'I' for Inactive)
REMARK    1  A    between atoms: N_5  and  C_9
REMARK    2  A    between atoms: N_5  and  C_10
REMARK    3  A    between atoms: N_7  and  C_12
REMARK    4  A    between atoms: C_9  and  C_12
REMARK    5  A    between atoms: C_10  and  C_13
REMARK    6  A    between atoms: C_16  and  C_18
REMARK                            x       y       z     vdW  Elec       q    Type
REMARK                         _______ _______ _______ _____ _____    ______ ____
ROOT
ATOM      1  N   UNL     1     -18.556  41.725 -10.929  0.00  0.00    +0.000 N 
ATOM      2  N   UNL     1     -18.498  42.771 -13.055  0.00  0.00    +0.000 NA
ATOM      3  C   UNL     1     -18.050  42.717 -11.781  0.00  0.00    +0.000 A 
ATOM      4  C   UNL     1     -17.110  43.588 -11.251  0.00  0.00    +0.000 A 
ATOM      5  C   UNL     1     -16.599  44.578 -12.084  0.00  0.00    +0.000 A 
ATOM      6  C   UNL     1     -17.035  44.665 -13.401  0.00  0.00    +0.000 A 
ATOM      7  C   UNL     1     -17.978  43.746 -13.834  0.00  0.00    +0.000 A 
ENDROOT
BRANCH   6  10
ATOM      8  O   UNL     1     -15.756  46.581 -13.889  0.00  0.00    +0.000 OA
ATOM      9  N   UNL     1     -16.894  45.625 -15.636  0.00  0.00    +0.000 N 
ATOM     10  C   UNL     1     -16.520  45.687 -14.295  0.00  0.00    +0.000 C 
ATOM     11  H   UNL     1     -17.505  44.931 -16.045  0.00  0.00    +0.000 HD
ATOM     12  H   UNL     1     -16.543  46.324 -16.284  0.00  0.00    +0.000 HD
ENDBRANCH   6  10
BRANCH   1  13
ATOM     13  C   UNL     1     -18.119  41.614  -9.558  0.00  0.00    +0.000 C 
BRANCH  13  14
ATOM     14  C   UNL     1     -19.324  41.408  -8.651  0.00  0.00    +0.000 C 
BRANCH  14  15
ATOM     15  N   UNL     1     -19.213  40.141  -7.940  0.00  0.00    +0.000 NA
ATOM     16  H   UNL     1     -19.930  39.496  -8.271  0.00  0.00    +0.000 HD
ATOM     17  H   UNL     1     -19.401  40.291  -6.949  0.00  0.00    +0.000 HD
ENDBRANCH  14  15
ENDBRANCH  13  14
ENDBRANCH   1  13
BRANCH   1  18
ATOM     18  C   UNL     1     -19.557  40.778 -11.423  0.00  0.00    +0.000 C 
BRANCH  18  22
ATOM     19  F   UNL     1     -19.667  38.443 -11.681  0.00  0.00    +0.000 F 
ATOM     20  F   UNL     1     -18.641  39.571 -13.238  0.00  0.00    +0.000 F 
ATOM     21  F   UNL     1     -17.708  39.311 -11.279  0.00  0.00    +0.000 F 
ATOM     22  C   UNL     1     -18.882  39.519 -11.911  0.00  0.00    +0.000 C 
ENDBRANCH  18  22
ENDBRANCH   1  18
TORSDOF 6
ENDMDL
MODEL 4
REMARK VINA RESULT:    -5.545      4.845      6.224
REMARK INTER + INTRA:          -7.550
REMARK INTER:                  -7.572
REMARK INTRA:                   0.022
REMARK UNBOUND:                -0.222
REMARK  Name = 113966362
REMARK  6 active torsions:
REMARK  status: ('A' for Active; 'I' for Inactive)
REMARK    1  A    between atoms: N_5  and  C_9
REMARK    2  A    between atoms: N_5  and  C_10
REMARK    3  A    between atoms: N_7  and  C_12
REMARK    4  A    between atoms: C_9  and  C_12
REMARK    5  A    between atoms: C_10  and  C_13
REMARK    6  A    between atoms: C_16  and  C_18
REMARK                            x       y       z     vdW  Elec       q    Type
REMARK                         _______ _______ _______ _____ _____    ______ ____
ROOT
ATOM      1  N   UNL     1     -18.582  42.180 -12.032  0.00  0.00    +0.000 N 
ATOM      2  N   UNL     1     -19.965  42.391 -13.945  0.00  0.00    +0.000 NA
ATOM      3  C   UNL     1     -18.929  42.855 -13.210  0.00  0.00    +0.000 A 
ATOM      4  C   UNL     1     -18.177  43.969 -13.548  0.00  0.00    +0.000 A 
ATOM      5  C   UNL     1     -18.510  44.650 -14.715  0.00  0.00    +0.000 A 
ATOM      6  C   UNL     1     -19.568  44.202 -15.496  0.00  0.00    +0.000 A 
ATOM      7  C   UNL     1     -20.259  43.078 -15.071  0.00  0.00    +0.000 A 
ENDROOT
BRANCH   6  10
ATOM      8  O   UNL     1     -19.134  45.032 -17.658  0.00  0.00    +0.000 OA
ATOM      9  N   UNL     1     -21.242  45.377 -16.822  0.00  0.00    +0.000 N 
ATOM     10  C   UNL     1     -19.940  44.891 -16.719  0.00  0.00    +0.000 C 
ATOM     11  H   UNL     1     -21.956  45.300 -16.109  0.00  0.00    +0.000 HD
ATOM     12  H   UNL     1     -21.530  45.857 -17.668  0.00  0.00    +0.000 HD
ENDBRANCH   6  10
BRANCH   1  13
ATOM     13  C   UNL     1     -17.487  42.626 -11.203  0.00  0.00    +0.000 C 
BRANCH  13  14
ATOM     14  C   UNL     1     -16.164  42.309 -11.889  0.00  0.00    +0.000 C 
BRANCH  14  15
ATOM     15  N   UNL     1     -15.483  41.222 -11.198  0.00  0.00    +0.000 NA
ATOM     16  H   UNL     1     -14.965  40.658 -11.871  0.00  0.00    +0.000 HD
ATOM     17  H   UNL     1     -16.174  40.602 -10.778  0.00  0.00    +0.000 HD
ENDBRANCH  14  15
ENDBRANCH  13  14
ENDBRANCH   1  13
BRANCH   1  18
ATOM     18  C   UNL     1     -19.341  41.001 -11.614  0.00  0.00    +0.000 C 
BRANCH  18  22
ATOM     19  F   UNL     1     -19.619  38.826 -12.465  0.00  0.00    +0.000 F 
ATOM     20  F   UNL     1     -17.959  40.001 -13.251  0.00  0.00    +0.000 F 
ATOM     21  F   UNL     1     -17.866  39.194 -11.222  0.00  0.00    +0.000 F 
ATOM     22  C   UNL     1     -18.685  39.748 -12.141  0.00  0.00    +0.000 C 
ENDBRANCH  18  22
ENDBRANCH   1  18
TORSDOF 6
ENDMDL
MODEL 5
REMARK VINA RESULT:    -5.435      5.105      6.231
REMARK INTER + INTRA:          -7.404
REMARK INTER:                  -6.960
REMARK INTRA:                  -0.445
REMARK UNBOUND:                -0.222
REMARK  Name = 113966362
REMARK  6 active torsions:
REMARK  status: ('A' for Active; 'I' for Inactive)
REMARK    1  A    between atoms: N_5  and  C_9
REMARK    2  A    between atoms: N_5  and  C_10
REMARK    3  A    between atoms: N_7  and  C_12
REMARK    4  A    between atoms: C_9  and  C_12
REMARK    5  A    between atoms: C_10  and  C_13
REMARK    6  A    between atoms: C_16  and  C_18
REMARK                            x       y       z     vdW  Elec       q    Type
REMARK                         _______ _______ _______ _____ _____    ______ ____
ROOT
ATOM      1  N   UNL     1     -19.306  44.004 -15.510  0.00  0.00    +0.000 N 
ATOM      2  N   UNL     1     -19.016  42.074 -14.167  0.00  0.00    +0.000 NA
ATOM      3  C   UNL     1     -18.921  43.415 -14.298  0.00  0.00    +0.000 A 
ATOM      4  C   UNL     1     -18.461  44.262 -13.301  0.00  0.00    +0.000 A 
ATOM      5  C   UNL     1     -18.075  43.692 -12.091  0.00  0.00    +0.000 A 
ATOM      6  C   UNL     1     -18.159  42.316 -11.919  0.00  0.00    +0.000 A 
ATOM      7  C   UNL     1     -18.631  41.557 -12.978  0.00  0.00    +0.000 A 
ENDROOT
BRANCH   6  10
ATOM      8  O   UNL     1     -18.405  41.876  -9.618  0.00  0.00    +0.000 OA
ATOM      9  N   UNL     1     -16.647  40.859 -10.683  0.00  0.00    +0.000 N 
ATOM     10  C   UNL     1     -17.763  41.692 -10.669  0.00  0.00    +0.000 C 
ATOM     11  H   UNL     1     -16.075  40.655 -11.492  0.00  0.00    +0.000 HD
ATOM     12  H   UNL     1     -16.352  40.405  -9.824  0.00  0.00    +0.000 HD
ENDBRANCH   6  10
BRANCH   1  13
ATOM     13  C   UNL     1     -19.228  45.431 -15.714  0.00  0.00    +0.000 C 
BRANCH  13  14
ATOM     14  C   UNL     1     -18.483  45.723 -17.010  0.00  0.00    +0.000 C 
BRANCH  14  15
ATOM     15  N   UNL     1     -17.053  45.844 -16.757  0.00  0.00    +0.000 NA
ATOM     16  H   UNL     1     -16.762  46.813 -16.882  0.00  0.00    +0.000 HD
ATOM     17  H   UNL     1     -16.540  45.300 -17.450  0.00  0.00    +0.000 HD
ENDBRANCH  14  15
ENDBRANCH  13  14
ENDBRANCH   1  13
BRANCH   1  18
ATOM     18  C   UNL     1     -19.793  43.166 -16.608  0.00  0.00    +0.000 C 
BRANCH  18  22
ATOM     19  F   UNL     1     -21.634  44.457 -17.296  0.00  0.00    +0.000 F 
ATOM     20  F   UNL     1     -21.809  42.291 -17.479  0.00  0.00    +0.000 F 
ATOM     21  F   UNL     1     -21.886  43.234 -15.509  0.00  0.00    +0.000 F 
ATOM     22  C   UNL     1     -21.293  43.282 -16.721  0.00  0.00    +0.000 C 
ENDBRANCH  18  22
ENDBRANCH   1  18
TORSDOF 6
ENDMDL
