MODEL 1
REMARK VINA RESULT:    -6.770      0.000      0.000
REMARK INTER + INTRA:          -9.767
REMARK INTER:                  -8.749
REMARK INTRA:                  -1.019
REMARK UNBOUND:                -1.019
REMARK  Name = 114169654
REMARK  5 active torsions:
REMARK  status: ('A' for Active; 'I' for Inactive)
REMARK    1  A    between atoms: N_6  and  C_9
REMARK    2  A    between atoms: N_6  and  C_11
REMARK    3  A    between atoms: C_9  and  C_10
REMARK    4  A    between atoms: C_10  and  C_12
REMARK    5  A    between atoms: C_13  and  C_16
REMARK                            x       y       z     vdW  Elec       q    Type
REMARK                         _______ _______ _______ _____ _____    ______ ____
ROOT
ATOM      1  N   UNL     1     -18.816  42.309  -7.835  0.00  0.00    +0.000 NA
ATOM      2  C   UNL     1     -18.571  41.678  -9.006  0.00  0.00    +0.000 A 
ATOM      3  C   UNL     1     -19.432  40.761  -9.587  0.00  0.00    +0.000 A 
ATOM      4  C   UNL     1     -20.621  40.474  -8.925  0.00  0.00    +0.000 A 
ATOM      5  C   UNL     1     -20.907  41.103  -7.719  0.00  0.00    +0.000 A 
ATOM      6  C   UNL     1     -19.981  42.004  -7.222  0.00  0.00    +0.000 A 
ENDROOT
BRANCH   3   9
ATOM      7  O   UNL     1     -18.164  39.333 -10.965  0.00  0.00    +0.000 OA
ATOM      8  N   UNL     1     -20.000  40.325 -11.916  0.00  0.00    +0.000 N 
ATOM      9  C   UNL     1     -19.139  40.094 -10.848  0.00  0.00    +0.000 C 
ATOM     10  H   UNL     1     -20.805  40.938 -11.837  0.00  0.00    +0.000 HD
ATOM     11  H   UNL     1     -19.847  39.880 -12.815  0.00  0.00    +0.000 HD
ENDBRANCH   3   9
BRANCH   2  12
ATOM     12  N   UNL     1     -17.384  41.967  -9.658  0.00  0.00    +0.000 N 
ATOM     13  H   UNL     1     -16.528  41.614  -9.243  0.00  0.00    +0.000 HD
BRANCH  12  14
ATOM     14  C   UNL     1     -17.239  43.033 -10.623  0.00  0.00    +0.000 C 
BRANCH  14  17
ATOM     15  F   UNL     1     -15.336  43.469 -11.939  0.00  0.00    +0.000 F 
ATOM     16  F   UNL     1     -15.769  41.389 -11.442  0.00  0.00    +0.000 F 
ATOM     17  C   UNL     1     -16.343  42.577 -11.763  0.00  0.00    +0.000 C 
BRANCH  17  20
ATOM     18  F   UNL     1     -18.366  42.858 -12.929  0.00  0.00    +0.000 F 
ATOM     19  F   UNL     1     -17.157  41.107 -13.390  0.00  0.00    +0.000 F 
ATOM     20  C   UNL     1     -17.089  42.422 -13.067  0.00  0.00    +0.000 C 
ENDBRANCH  17  20
ENDBRANCH  14  17
ENDBRANCH  12  14
ENDBRANCH   2  12
TORSDOF 5
ENDMDL
MODEL 2
REMARK VINA RESULT:    -5.773      3.809      5.674
REMARK INTER + INTRA:          -8.480
REMARK INTER:                  -7.858
REMARK INTRA:                  -0.622
REMARK UNBOUND:                -1.019
REMARK  Name = 114169654
REMARK  5 active torsions:
REMARK  status: ('A' for Active; 'I' for Inactive)
REMARK    1  A    between atoms: N_6  and  C_9
REMARK    2  A    between atoms: N_6  and  C_11
REMARK    3  A    between atoms: C_9  and  C_10
REMARK    4  A    between atoms: C_10  and  C_12
REMARK    5  A    between atoms: C_13  and  C_16
REMARK                            x       y       z     vdW  Elec       q    Type
REMARK                         _______ _______ _______ _____ _____    ______ ____
ROOT
ATOM      1  N   UNL     1     -18.059  43.590 -13.359  0.00  0.00    +0.000 NA
ATOM      2  C   UNL     1     -19.026  43.061 -14.143  0.00  0.00    +0.000 A 
ATOM      3  C   UNL     1     -19.560  43.698 -15.251  0.00  0.00    +0.000 A 
ATOM      4  C   UNL     1     -19.070  44.957 -15.578  0.00  0.00    +0.000 A 
ATOM      5  C   UNL     1     -18.075  45.534 -14.796  0.00  0.00    +0.000 A 
ATOM      6  C   UNL     1     -17.608  44.816 -13.708  0.00  0.00    +0.000 A 
ENDROOT
BRANCH   3   9
ATOM      7  O   UNL     1     -20.350  42.193 -16.882  0.00  0.00    +0.000 OA
ATOM      8  N   UNL     1     -21.901  43.578 -15.916  0.00  0.00    +0.000 N 
ATOM      9  C   UNL     1     -20.604  43.104 -16.075  0.00  0.00    +0.000 C 
ATOM     10  H   UNL     1     -22.129  44.316 -15.257  0.00  0.00    +0.000 HD
ATOM     11  H   UNL     1     -22.668  43.194 -16.460  0.00  0.00    +0.000 HD
ENDBRANCH   3   9
BRANCH   2  12
ATOM     12  N   UNL     1     -19.511  41.807 -13.810  0.00  0.00    +0.000 N 
ATOM     13  H   UNL     1     -20.167  41.378 -14.454  0.00  0.00    +0.000 HD
BRANCH  12  14
ATOM     14  C   UNL     1     -19.469  41.260 -12.473  0.00  0.00    +0.000 C 
BRANCH  14  17
ATOM     15  F   UNL     1     -19.775  38.926 -12.523  0.00  0.00    +0.000 F 
ATOM     16  F   UNL     1     -18.089  39.751 -13.637  0.00  0.00    +0.000 F 
ATOM     17  C   UNL     1     -18.818  39.888 -12.499  0.00  0.00    +0.000 C 
BRANCH  17  20
ATOM     18  F   UNL     1     -17.835  40.766 -10.551  0.00  0.00    +0.000 F 
ATOM     19  F   UNL     1     -16.661  39.379 -11.749  0.00  0.00    +0.000 F 
ATOM     20  C   UNL     1     -17.917  39.646 -11.311  0.00  0.00    +0.000 C 
ENDBRANCH  17  20
ENDBRANCH  14  17
ENDBRANCH  12  14
ENDBRANCH   2  12
TORSDOF 5
ENDMDL
MODEL 3
REMARK VINA RESULT:    -5.413      4.466      5.957
REMARK INTER + INTRA:          -8.013
REMARK INTER:                  -7.355
REMARK INTRA:                  -0.658
REMARK UNBOUND:                -1.019
REMARK  Name = 114169654
REMARK  5 active torsions:
REMARK  status: ('A' for Active; 'I' for Inactive)
REMARK    1  A    between atoms: N_6  and  C_9
REMARK    2  A    between atoms: N_6  and  C_11
REMARK    3  A    between atoms: C_9  and  C_10
REMARK    4  A    between atoms: C_10  and  C_12
REMARK    5  A    between atoms: C_13  and  C_16
REMARK                            x       y       z     vdW  Elec       q    Type
REMARK                         _______ _______ _______ _____ _____    ______ ____
ROOT
ATOM      1  N   UNL     1     -18.536  45.316 -13.880  0.00  0.00    +0.000 NA
ATOM      2  C   UNL     1     -18.513  43.970 -14.001  0.00  0.00    +0.000 A 
ATOM      3  C   UNL     1     -18.109  43.107 -12.995  0.00  0.00    +0.000 A 
ATOM      4  C   UNL     1     -17.706  43.661 -11.786  0.00  0.00    +0.000 A 
ATOM      5  C   UNL     1     -17.716  45.042 -11.623  0.00  0.00    +0.000 A 
ATOM      6  C   UNL     1     -18.136  45.818 -12.690  0.00  0.00    +0.000 A 
ENDROOT
BRANCH   3   9
ATOM      7  O   UNL     1     -19.134  41.024 -13.392  0.00  0.00    +0.000 OA
ATOM      8  N   UNL     1     -16.866  41.013 -13.060  0.00  0.00    +0.000 N 
ATOM      9  C   UNL     1     -18.093  41.659 -13.158  0.00  0.00    +0.000 C 
ATOM     10  H   UNL     1     -16.004  41.516 -12.876  0.00  0.00    +0.000 HD
ATOM     11  H   UNL     1     -16.796  40.006 -13.172  0.00  0.00    +0.000 HD
ENDBRANCH   3   9
BRANCH   2  12
ATOM     12  N   UNL     1     -18.915  43.425 -15.211  0.00  0.00    +0.000 N 
ATOM     13  H   UNL     1     -18.423  42.599 -15.533  0.00  0.00    +0.000 HD
BRANCH  12  14
ATOM     14  C   UNL     1     -19.676  44.149 -16.202  0.00  0.00    +0.000 C 
BRANCH  14  17
ATOM     15  F   UNL     1     -20.789  42.346 -17.227  0.00  0.00    +0.000 F 
ATOM     16  F   UNL     1     -21.511  43.005 -15.276  0.00  0.00    +0.000 F 
ATOM     17  C   UNL     1     -20.997  43.442 -16.454  0.00  0.00    +0.000 C 
BRANCH  17  20
ATOM     18  F   UNL     1     -21.727  45.632 -16.901  0.00  0.00    +0.000 F 
ATOM     19  F   UNL     1     -23.239  44.096 -16.595  0.00  0.00    +0.000 F 
ATOM     20  C   UNL     1     -22.015  44.328 -17.133  0.00  0.00    +0.000 C 
ENDBRANCH  17  20
ENDBRANCH  14  17
ENDBRANCH  12  14
ENDBRANCH   2  12
TORSDOF 5
ENDMDL
MODEL 4
REMARK VINA RESULT:    -4.903      3.574      5.450
REMARK INTER + INTRA:          -7.355
REMARK INTER:                  -6.655
REMARK INTRA:                  -0.701
REMARK UNBOUND:                -1.019
REMARK  Name = 114169654
REMARK  5 active torsions:
REMARK  status: ('A' for Active; 'I' for Inactive)
REMARK    1  A    between atoms: N_6  and  C_9
REMARK    2  A    between atoms: N_6  and  C_11
REMARK    3  A    between atoms: C_9  and  C_10
REMARK    4  A    between atoms: C_10  and  C_12
REMARK    5  A    between atoms: C_13  and  C_16
REMARK                            x       y       z     vdW  Elec       q    Type
REMARK                         _______ _______ _______ _____ _____    ______ ____
ROOT
ATOM      1  N   UNL     1     -18.215  44.746 -12.832  0.00  0.00    +0.000 NA
ATOM      2  C   UNL     1     -18.794  43.927 -13.738  0.00  0.00    +0.000 A 
ATOM      3  C   UNL     1     -19.140  44.312 -15.023  0.00  0.00    +0.000 A 
ATOM      4  C   UNL     1     -18.873  45.623 -15.403  0.00  0.00    +0.000 A 
ATOM      5  C   UNL     1     -18.279  46.496 -14.499  0.00  0.00    +0.000 A 
ATOM      6  C   UNL     1     -17.972  46.013 -13.238  0.00  0.00    +0.000 A 
ENDROOT
BRANCH   3   9
ATOM      7  O   UNL     1     -20.755  42.722 -15.664  0.00  0.00    +0.000 OA
ATOM      8  N   UNL     1     -19.229  43.346 -17.258  0.00  0.00    +0.000 N 
ATOM      9  C   UNL     1     -19.766  43.406 -15.977  0.00  0.00    +0.000 C 
ATOM     10  H   UNL     1     -18.426  43.903 -17.533  0.00  0.00    +0.000 HD
ATOM     11  H   UNL     1     -19.630  42.737 -17.964  0.00  0.00    +0.000 HD
ENDBRANCH   3   9
BRANCH   2  12
ATOM     12  N   UNL     1     -19.059  42.623 -13.351  0.00  0.00    +0.000 N 
ATOM     13  H   UNL     1     -19.931  42.452 -12.862  0.00  0.00    +0.000 HD
BRANCH  12  14
ATOM     14  C   UNL     1     -18.045  41.599 -13.237  0.00  0.00    +0.000 C 
BRANCH  14  17
ATOM     15  F   UNL     1     -16.591  41.860 -11.404  0.00  0.00    +0.000 F 
ATOM     16  F   UNL     1     -18.736  41.882 -11.006  0.00  0.00    +0.000 F 
ATOM     17  C   UNL     1     -17.774  41.306 -11.771  0.00  0.00    +0.000 C 
BRANCH  17  20
ATOM     18  F   UNL     1     -16.527  39.312 -11.823  0.00  0.00    +0.000 F 
ATOM     19  F   UNL     1     -18.664  39.189 -12.219  0.00  0.00    +0.000 F 
ATOM     20  C   UNL     1     -17.731  39.826 -11.469  0.00  0.00    +0.000 C 
ENDBRANCH  17  20
ENDBRANCH  14  17
ENDBRANCH  12  14
ENDBRANCH   2  12
TORSDOF 5
ENDMDL
MODEL 5
REMARK VINA RESULT:    -4.565      5.092      7.079
REMARK INTER + INTRA:          -6.918
REMARK INTER:                  -6.295
REMARK INTRA:                  -0.623
REMARK UNBOUND:                -1.019
REMARK  Name = 114169654
REMARK  5 active torsions:
REMARK  status: ('A' for Active; 'I' for Inactive)
REMARK    1  A    between atoms: N_6  and  C_9
REMARK    2  A    between atoms: N_6  and  C_11
REMARK    3  A    between atoms: C_9  and  C_10
REMARK    4  A    between atoms: C_10  and  C_12
REMARK    5  A    between atoms: C_13  and  C_16
REMARK                            x       y       z     vdW  Elec       q    Type
REMARK                         _______ _______ _______ _____ _____    ______ ____
ROOT
ATOM      1  N   UNL     1     -18.939  46.296 -16.591  0.00  0.00    +0.000 NA
ATOM      2  C   UNL     1     -19.567  45.129 -16.324  0.00  0.00    +0.000 A 
ATOM      3  C   UNL     1     -20.813  44.786 -16.825  0.00  0.00    +0.000 A 
ATOM      4  C   UNL     1     -21.455  45.700 -17.654  0.00  0.00    +0.000 A 
ATOM      5  C   UNL     1     -20.841  46.911 -17.951  0.00  0.00    +0.000 A 
ATOM      6  C   UNL     1     -19.595  47.158 -17.399  0.00  0.00    +0.000 A 
ENDROOT
BRANCH   3   9
ATOM      7  O   UNL     1     -20.980  42.438 -16.886  0.00  0.00    +0.000 OA
ATOM      8  N   UNL     1     -22.644  43.564 -15.781  0.00  0.00    +0.000 N 
ATOM      9  C   UNL     1     -21.466  43.521 -16.518  0.00  0.00    +0.000 C 
ATOM     10  H   UNL     1     -23.052  44.439 -15.466  0.00  0.00    +0.000 HD
ATOM     11  H   UNL     1     -23.137  42.712 -15.534  0.00  0.00    +0.000 HD
ENDBRANCH   3   9
BRANCH   2  12
ATOM     12  N   UNL     1     -18.922  44.224 -15.496  0.00  0.00    +0.000 N 
ATOM     13  H   UNL     1     -19.038  43.239 -15.707  0.00  0.00    +0.000 HD
BRANCH  12  14
ATOM     14  C   UNL     1     -18.449  44.548 -14.170  0.00  0.00    +0.000 C 
BRANCH  14  17
ATOM     15  F   UNL     1     -19.817  42.948 -13.117  0.00  0.00    +0.000 F 
ATOM     16  F   UNL     1     -17.889  42.280 -13.891  0.00  0.00    +0.000 F 
ATOM     17  C   UNL     1     -18.521  43.317 -13.283  0.00  0.00    +0.000 C 
BRANCH  17  20
ATOM     18  F   UNL     1     -16.555  43.383 -11.994  0.00  0.00    +0.000 F 
ATOM     19  F   UNL     1     -18.358  42.592 -11.065  0.00  0.00    +0.000 F 
ATOM     20  C   UNL     1     -17.901  43.537 -11.924  0.00  0.00    +0.000 C 
ENDBRANCH  17  20
ENDBRANCH  14  17
ENDBRANCH  12  14
ENDBRANCH   2  12
TORSDOF 5
ENDMDL
