MODEL 1
REMARK VINA RESULT:    -7.306      0.000      0.000
REMARK INTER + INTRA:          -9.421
REMARK INTER:                  -9.015
REMARK INTRA:                  -0.406
REMARK UNBOUND:                -0.406
REMARK  Name = 114169848
REMARK  4 active torsions:
REMARK  status: ('A' for Active; 'I' for Inactive)
REMARK    1  A    between atoms: N_6  and  C_9
REMARK    2  A    between atoms: C_9  and  C_10
REMARK    3  A    between atoms: C_10  and  C_11
REMARK    4  A    between atoms: C_12  and  C_13
REMARK                            x       y       z     vdW  Elec       q    Type
REMARK                         _______ _______ _______ _____ _____    ______ ____
ROOT
ATOM      1  O   UNL     1     -17.960  40.273  -9.031  0.00  0.00    +0.000 OA
ATOM      2  N   UNL     1     -19.750  39.960 -10.472  0.00  0.00    +0.000 N 
ATOM      3  C   UNL     1     -19.150  40.410  -9.302  0.00  0.00    +0.000 C 
ATOM      4  H   UNL     1     -20.749  40.062 -10.610  0.00  0.00    +0.000 HD
ENDROOT
BRANCH   3   7
ATOM      5  N   UNL     1     -22.274  41.376  -7.433  0.00  0.00    +0.000 NA
ATOM      6  N   UNL     1     -22.618  42.890  -5.625  0.00  0.00    +0.000 N 
ATOM      7  C   UNL     1     -20.046  41.077  -8.323  0.00  0.00    +0.000 A 
ATOM      8  C   UNL     1     -19.547  41.993  -7.404  0.00  0.00    +0.000 A 
ATOM      9  C   UNL     1     -21.404  40.805  -8.297  0.00  0.00    +0.000 A 
ATOM     10  C   UNL     1     -20.410  42.601  -6.498  0.00  0.00    +0.000 A 
ATOM     11  C   UNL     1     -21.752  42.262  -6.554  0.00  0.00    +0.000 A 
ATOM     12  H   UNL     1     -22.237  43.188  -4.737  0.00  0.00    +0.000 HD
ATOM     13  H   UNL     1     -23.598  42.634  -5.665  0.00  0.00    +0.000 HD
ENDBRANCH   3   7
BRANCH   2  14
ATOM     14  C   UNL     1     -19.020  39.274 -11.505  0.00  0.00    +0.000 C 
BRANCH  14  17
ATOM     15  F   UNL     1     -17.135  40.600 -11.963  0.00  0.00    +0.000 F 
ATOM     16  F   UNL     1     -18.135  39.647 -13.651  0.00  0.00    +0.000 F 
ATOM     17  C   UNL     1     -18.350  40.250 -12.455  0.00  0.00    +0.000 C 
BRANCH  17  20
ATOM     18  F   UNL     1     -18.675  42.519 -11.932  0.00  0.00    +0.000 F 
ATOM     19  F   UNL     1     -19.056  41.880 -13.978  0.00  0.00    +0.000 F 
ATOM     20  C   UNL     1     -19.166  41.501 -12.679  0.00  0.00    +0.000 C 
ENDBRANCH  17  20
ENDBRANCH  14  17
ENDBRANCH   2  14
TORSDOF 4
ENDMDL
MODEL 2
REMARK VINA RESULT:    -7.150      1.280      1.825
REMARK INTER + INTRA:          -9.228
REMARK INTER:                  -8.782
REMARK INTRA:                  -0.446
REMARK UNBOUND:                -0.406
REMARK  Name = 114169848
REMARK  4 active torsions:
REMARK  status: ('A' for Active; 'I' for Inactive)
REMARK    1  A    between atoms: N_6  and  C_9
REMARK    2  A    between atoms: C_9  and  C_10
REMARK    3  A    between atoms: C_10  and  C_11
REMARK    4  A    between atoms: C_12  and  C_13
REMARK                            x       y       z     vdW  Elec       q    Type
REMARK                         _______ _______ _______ _____ _____    ______ ____
ROOT
ATOM      1  O   UNL     1     -19.958  39.336  -9.794  0.00  0.00    +0.000 OA
ATOM      2  N   UNL     1     -18.219  40.856  -9.571  0.00  0.00    +0.000 N 
ATOM      3  C   UNL     1     -19.463  40.323  -9.255  0.00  0.00    +0.000 C 
ATOM      4  H   UNL     1     -17.893  41.704  -9.120  0.00  0.00    +0.000 HD
ENDROOT
BRANCH   3   7
ATOM      5  N   UNL     1     -22.370  41.534  -7.187  0.00  0.00    +0.000 NA
ATOM      6  N   UNL     1     -22.460  42.998  -5.310  0.00  0.00    +0.000 N 
ATOM      7  C   UNL     1     -20.233  41.039  -8.205  0.00  0.00    +0.000 A 
ATOM      8  C   UNL     1     -19.594  41.858  -7.282  0.00  0.00    +0.000 A 
ATOM      9  C   UNL     1     -21.610  40.911  -8.116  0.00  0.00    +0.000 A 
ATOM     10  C   UNL     1     -20.341  42.515  -6.310  0.00  0.00    +0.000 A 
ATOM     11  C   UNL     1     -21.713  42.322  -6.306  0.00  0.00    +0.000 A 
ATOM     12  H   UNL     1     -22.006  43.217  -4.432  0.00  0.00    +0.000 HD
ATOM     13  H   UNL     1     -23.463  42.849  -5.307  0.00  0.00    +0.000 HD
ENDBRANCH   3   7
BRANCH   2  14
ATOM     14  C   UNL     1     -17.366  40.291 -10.582  0.00  0.00    +0.000 C 
BRANCH  14  17
ATOM     15  F   UNL     1     -18.336  42.091 -11.740  0.00  0.00    +0.000 F 
ATOM     16  F   UNL     1     -16.256  41.607 -12.184  0.00  0.00    +0.000 F 
ATOM     17  C   UNL     1     -17.463  41.063 -11.886  0.00  0.00    +0.000 C 
BRANCH  17  20
ATOM     18  F   UNL     1     -16.866  39.481 -13.519  0.00  0.00    +0.000 F 
ATOM     19  F   UNL     1     -18.835  39.311 -12.607  0.00  0.00    +0.000 F 
ATOM     20  C   UNL     1     -17.910  40.202 -13.043  0.00  0.00    +0.000 C 
ENDBRANCH  17  20
ENDBRANCH  14  17
ENDBRANCH   2  14
TORSDOF 4
ENDMDL
MODEL 3
REMARK VINA RESULT:    -6.706      3.628      6.088
REMARK INTER + INTRA:          -8.681
REMARK INTER:                  -8.347
REMARK INTRA:                  -0.335
REMARK UNBOUND:                -0.406
REMARK  Name = 114169848
REMARK  4 active torsions:
REMARK  status: ('A' for Active; 'I' for Inactive)
REMARK    1  A    between atoms: N_6  and  C_9
REMARK    2  A    between atoms: C_9  and  C_10
REMARK    3  A    between atoms: C_10  and  C_11
REMARK    4  A    between atoms: C_12  and  C_13
REMARK                            x       y       z     vdW  Elec       q    Type
REMARK                         _______ _______ _______ _____ _____    ______ ____
ROOT
ATOM      1  O   UNL     1     -17.827  40.500  -9.364  0.00  0.00    +0.000 OA
ATOM      2  N   UNL     1     -20.037  41.168  -9.131  0.00  0.00    +0.000 N 
ATOM      3  C   UNL     1     -18.838  41.029  -9.820  0.00  0.00    +0.000 C 
ATOM      4  H   UNL     1     -20.817  41.661  -9.551  0.00  0.00    +0.000 HD
ENDROOT
BRANCH   3   7
ATOM      5  N   UNL     1     -19.618  41.536 -13.470  0.00  0.00    +0.000 NA
ATOM      6  N   UNL     1     -18.776  43.104 -15.054  0.00  0.00    +0.000 N 
ATOM      7  C   UNL     1     -18.805  41.593 -11.194  0.00  0.00    +0.000 A 
ATOM      8  C   UNL     1     -17.974  42.662 -11.509  0.00  0.00    +0.000 A 
ATOM      9  C   UNL     1     -19.600  41.071 -12.200  0.00  0.00    +0.000 A 
ATOM     10  C   UNL     1     -17.964  43.170 -12.804  0.00  0.00    +0.000 A 
ATOM     11  C   UNL     1     -18.797  42.576 -13.739  0.00  0.00    +0.000 A 
ATOM     12  H   UNL     1     -18.537  44.080 -15.177  0.00  0.00    +0.000 HD
ATOM     13  H   UNL     1     -19.392  42.671 -15.733  0.00  0.00    +0.000 HD
ENDBRANCH   3   7
BRANCH   2  14
ATOM     14  C   UNL     1     -20.217  40.696  -7.784  0.00  0.00    +0.000 C 
BRANCH  14  17
ATOM     15  F   UNL     1     -20.523  41.411  -5.566  0.00  0.00    +0.000 F 
ATOM     16  F   UNL     1     -19.827  42.885  -7.016  0.00  0.00    +0.000 F 
ATOM     17  C   UNL     1     -20.649  41.817  -6.855  0.00  0.00    +0.000 C 
BRANCH  17  20
ATOM     18  F   UNL     1     -22.818  41.212  -7.529  0.00  0.00    +0.000 F 
ATOM     19  F   UNL     1     -22.618  42.664  -5.919  0.00  0.00    +0.000 F 
ATOM     20  C   UNL     1     -22.073  42.257  -7.093  0.00  0.00    +0.000 C 
ENDBRANCH  17  20
ENDBRANCH  14  17
ENDBRANCH   2  14
TORSDOF 4
ENDMDL
MODEL 4
REMARK VINA RESULT:    -6.500      3.594      5.959
REMARK INTER + INTRA:          -8.426
REMARK INTER:                  -8.005
REMARK INTRA:                  -0.421
REMARK UNBOUND:                -0.406
REMARK  Name = 114169848
REMARK  4 active torsions:
REMARK  status: ('A' for Active; 'I' for Inactive)
REMARK    1  A    between atoms: N_6  and  C_9
REMARK    2  A    between atoms: C_9  and  C_10
REMARK    3  A    between atoms: C_10  and  C_11
REMARK    4  A    between atoms: C_12  and  C_13
REMARK                            x       y       z     vdW  Elec       q    Type
REMARK                         _______ _______ _______ _____ _____    ______ ____
ROOT
ATOM      1  O   UNL     1     -17.129  42.793 -10.497  0.00  0.00    +0.000 OA
ATOM      2  N   UNL     1     -18.712  41.097 -10.529  0.00  0.00    +0.000 N 
ATOM      3  C   UNL     1     -18.049  42.200 -11.054  0.00  0.00    +0.000 C 
ATOM      4  H   UNL     1     -19.497  40.686 -11.021  0.00  0.00    +0.000 HD
ENDROOT
BRANCH   3   7
ATOM      5  N   UNL     1     -19.829  42.281 -14.373  0.00  0.00    +0.000 NA
ATOM      6  N   UNL     1     -19.921  43.954 -16.067  0.00  0.00    +0.000 N 
ATOM      7  C   UNL     1     -18.531  42.684 -12.374  0.00  0.00    +0.000 A 
ATOM      8  C   UNL     1     -18.166  43.937 -12.854  0.00  0.00    +0.000 A 
ATOM      9  C   UNL     1     -19.356  41.901 -13.164  0.00  0.00    +0.000 A 
ATOM     10  C   UNL     1     -18.633  44.364 -14.093  0.00  0.00    +0.000 A 
ATOM     11  C   UNL     1     -19.453  43.506 -14.806  0.00  0.00    +0.000 A 
ATOM     12  H   UNL     1     -20.025  44.950 -16.215  0.00  0.00    +0.000 HD
ATOM     13  H   UNL     1     -20.526  43.326 -16.583  0.00  0.00    +0.000 HD
ENDBRANCH   3   7
BRANCH   2  14
ATOM     14  C   UNL     1     -18.378  40.527  -9.251  0.00  0.00    +0.000 C 
BRANCH  14  17
ATOM     15  F   UNL     1     -19.226  40.116  -7.098  0.00  0.00    +0.000 F 
ATOM     16  F   UNL     1     -19.202  42.182  -7.797  0.00  0.00    +0.000 F 
ATOM     17  C   UNL     1     -19.400  40.899  -8.192  0.00  0.00    +0.000 C 
BRANCH  17  20
ATOM     18  F   UNL     1     -21.175  39.445  -8.704  0.00  0.00    +0.000 F 
ATOM     19  F   UNL     1     -21.659  41.365  -7.801  0.00  0.00    +0.000 F 
ATOM     20  C   UNL     1     -20.823  40.753  -8.677  0.00  0.00    +0.000 C 
ENDBRANCH  17  20
ENDBRANCH  14  17
ENDBRANCH   2  14
TORSDOF 4
ENDMDL
MODEL 5
REMARK VINA RESULT:    -6.024      4.214      5.742
REMARK INTER + INTRA:          -7.839
REMARK INTER:                  -7.524
REMARK INTRA:                  -0.315
REMARK UNBOUND:                -0.406
REMARK  Name = 114169848
REMARK  4 active torsions:
REMARK  status: ('A' for Active; 'I' for Inactive)
REMARK    1  A    between atoms: N_6  and  C_9
REMARK    2  A    between atoms: C_9  and  C_10
REMARK    3  A    between atoms: C_10  and  C_11
REMARK    4  A    between atoms: C_12  and  C_13
REMARK                            x       y       z     vdW  Elec       q    Type
REMARK                         _______ _______ _______ _____ _____    ______ ____
ROOT
ATOM      1  O   UNL     1     -18.424  44.613 -13.969  0.00  0.00    +0.000 OA
ATOM      2  N   UNL     1     -19.421  42.742 -14.911  0.00  0.00    +0.000 N 
ATOM      3  C   UNL     1     -18.802  43.447 -13.886  0.00  0.00    +0.000 C 
ATOM      4  H   UNL     1     -19.663  41.765 -14.790  0.00  0.00    +0.000 HD
ENDROOT
BRANCH   3   7
ATOM      5  N   UNL     1     -19.052  40.764 -11.254  0.00  0.00    +0.000 NA
ATOM      6  N   UNL     1     -18.003  40.547  -9.127  0.00  0.00    +0.000 N 
ATOM      7  C   UNL     1     -18.575  42.700 -12.622  0.00  0.00    +0.000 A 
ATOM      8  C   UNL     1     -17.716  43.189 -11.645  0.00  0.00    +0.000 A 
ATOM      9  C   UNL     1     -19.213  41.494 -12.382  0.00  0.00    +0.000 A 
ATOM     10  C   UNL     1     -17.524  42.467 -10.472  0.00  0.00    +0.000 A 
ATOM     11  C   UNL     1     -18.209  41.272 -10.327  0.00  0.00    +0.000 A 
ATOM     12  H   UNL     1     -17.118  40.652  -8.647  0.00  0.00    +0.000 HD
ATOM     13  H   UNL     1     -18.501  39.670  -9.027  0.00  0.00    +0.000 HD
ENDBRANCH   3   7
BRANCH   2  14
ATOM     14  C   UNL     1     -19.686  43.320 -16.201  0.00  0.00    +0.000 C 
BRANCH  14  17
ATOM     15  F   UNL     1     -21.414  42.248 -17.379  0.00  0.00    +0.000 F 
ATOM     16  F   UNL     1     -21.883  43.050 -15.406  0.00  0.00    +0.000 F 
ATOM     17  C   UNL     1     -21.167  43.281 -16.535  0.00  0.00    +0.000 C 
BRANCH  17  20
ATOM     18  F   UNL     1     -21.846  44.378 -18.500  0.00  0.00    +0.000 F 
ATOM     19  F   UNL     1     -22.865  44.887 -16.645  0.00  0.00    +0.000 F 
ATOM     20  C   UNL     1     -21.657  44.560 -17.171  0.00  0.00    +0.000 C 
ENDBRANCH  17  20
ENDBRANCH  14  17
ENDBRANCH   2  14
TORSDOF 4
ENDMDL
