MODEL 1
REMARK VINA RESULT:    -6.611      0.000      0.000
REMARK INTER + INTRA:          -8.511
REMARK INTER:                  -8.156
REMARK INTRA:                  -0.355
REMARK UNBOUND:                -0.355
REMARK  Name = 114159203
REMARK  4 active torsions:
REMARK  status: ('A' for Active; 'I' for Inactive)
REMARK    1  A    between atoms: N_5  and  C_8
REMARK    2  A    between atoms: N_5  and  C_12
REMARK    3  A    between atoms: C_8  and  C_11
REMARK    4  A    between atoms: C_13  and  C_15
REMARK                            x       y       z     vdW  Elec       q    Type
REMARK                         _______ _______ _______ _____ _____    ______ ____
ROOT
ATOM      1  N   UNL     1     -18.295  42.471  -8.699  0.00  0.00    +0.000 NA
ATOM      2  C   UNL     1     -18.094  41.672  -9.771  0.00  0.00    +0.000 A 
ATOM      3  C   UNL     1     -18.794  40.500 -10.006  0.00  0.00    +0.000 A 
ATOM      4  C   UNL     1     -19.763  40.124  -9.083  0.00  0.00    +0.000 A 
ATOM      5  C   UNL     1     -19.244  42.073  -7.823  0.00  0.00    +0.000 A 
ATOM      6  C   UNL     1     -19.998  40.920  -7.967  0.00  0.00    +0.000 A 
ENDROOT
BRANCH   3   9
ATOM      7  O   UNL     1     -17.407  39.280 -11.468  0.00  0.00    +0.000 OA
ATOM      8  N   UNL     1     -19.653  39.273 -11.927  0.00  0.00    +0.000 N 
ATOM      9  C   UNL     1     -18.552  39.657 -11.170  0.00  0.00    +0.000 C 
ATOM     10  H   UNL     1     -20.597  39.567 -11.695  0.00  0.00    +0.000 HD
ATOM     11  H   UNL     1     -19.544  38.682 -12.745  0.00  0.00    +0.000 HD
ENDBRANCH   3   9
BRANCH   2  12
ATOM     12  N   UNL     1     -17.112  42.057 -10.697  0.00  0.00    +0.000 N 
ATOM     13  H   UNL     1     -16.355  41.398 -10.851  0.00  0.00    +0.000 HD
BRANCH  12  14
ATOM     14  C   UNL     1     -17.290  43.132 -11.679  0.00  0.00    +0.000 C 
ATOM     15  C   UNL     1     -17.507  44.546 -11.186  0.00  0.00    +0.000 C 
ATOM     16  C   UNL     1     -16.205  44.175 -11.828  0.00  0.00    +0.000 C 
BRANCH  14  20
ATOM     17  F   UNL     1     -17.471  41.594 -13.423  0.00  0.00    +0.000 F 
ATOM     18  F   UNL     1     -19.313  42.469 -12.633  0.00  0.00    +0.000 F 
ATOM     19  F   UNL     1     -17.956  43.683 -13.845  0.00  0.00    +0.000 F 
ATOM     20  C   UNL     1     -18.023  42.710 -12.922  0.00  0.00    +0.000 C 
ENDBRANCH  14  20
ENDBRANCH  12  14
ENDBRANCH   2  12
TORSDOF 4
ENDMDL
MODEL 2
REMARK VINA RESULT:    -5.971      2.694      4.811
REMARK INTER + INTRA:          -7.722
REMARK INTER:                  -7.226
REMARK INTRA:                  -0.495
REMARK UNBOUND:                -0.355
REMARK  Name = 114159203
REMARK  4 active torsions:
REMARK  status: ('A' for Active; 'I' for Inactive)
REMARK    1  A    between atoms: N_5  and  C_8
REMARK    2  A    between atoms: N_5  and  C_12
REMARK    3  A    between atoms: C_8  and  C_11
REMARK    4  A    between atoms: C_13  and  C_15
REMARK                            x       y       z     vdW  Elec       q    Type
REMARK                         _______ _______ _______ _____ _____    ______ ____
ROOT
ATOM      1  N   UNL     1     -16.699  42.772 -10.960  0.00  0.00    +0.000 NA
ATOM      2  C   UNL     1     -17.748  42.646 -11.805  0.00  0.00    +0.000 A 
ATOM      3  C   UNL     1     -17.790  43.196 -13.075  0.00  0.00    +0.000 A 
ATOM      4  C   UNL     1     -16.684  43.922 -13.507  0.00  0.00    +0.000 A 
ATOM      5  C   UNL     1     -15.644  43.484 -11.414  0.00  0.00    +0.000 A 
ATOM      6  C   UNL     1     -15.587  44.073 -12.667  0.00  0.00    +0.000 A 
ENDROOT
BRANCH   3   9
ATOM      7  O   UNL     1     -19.462  41.939 -14.158  0.00  0.00    +0.000 OA
ATOM      8  N   UNL     1     -19.435  44.194 -14.569  0.00  0.00    +0.000 N 
ATOM      9  C   UNL     1     -18.936  43.047 -13.962  0.00  0.00    +0.000 C 
ATOM     10  H   UNL     1     -19.022  45.109 -14.416  0.00  0.00    +0.000 HD
ATOM     11  H   UNL     1     -20.235  44.150 -15.192  0.00  0.00    +0.000 HD
ENDBRANCH   3   9
BRANCH   2  12
ATOM     12  N   UNL     1     -18.860  41.915 -11.360  0.00  0.00    +0.000 N 
ATOM     13  H   UNL     1     -19.768  42.244 -11.671  0.00  0.00    +0.000 HD
BRANCH  12  14
ATOM     14  C   UNL     1     -18.780  40.560 -10.805  0.00  0.00    +0.000 C 
ATOM     15  C   UNL     1     -19.236  39.393 -11.653  0.00  0.00    +0.000 C 
ATOM     16  C   UNL     1     -17.774  39.589 -11.384  0.00  0.00    +0.000 C 
BRANCH  14  20
ATOM     17  F   UNL     1     -19.612  41.628  -8.906  0.00  0.00    +0.000 F 
ATOM     18  F   UNL     1     -19.866  39.461  -9.057  0.00  0.00    +0.000 F 
ATOM     19  F   UNL     1     -17.888  40.307  -8.664  0.00  0.00    +0.000 F 
ATOM     20  C   UNL     1     -19.043  40.488  -9.326  0.00  0.00    +0.000 C 
ENDBRANCH  14  20
ENDBRANCH  12  14
ENDBRANCH   2  12
TORSDOF 4
ENDMDL
MODEL 3
REMARK VINA RESULT:    -5.942      2.797      4.518
REMARK INTER + INTRA:          -7.686
REMARK INTER:                  -7.360
REMARK INTRA:                  -0.326
REMARK UNBOUND:                -0.355
REMARK  Name = 114159203
REMARK  4 active torsions:
REMARK  status: ('A' for Active; 'I' for Inactive)
REMARK    1  A    between atoms: N_5  and  C_8
REMARK    2  A    between atoms: N_5  and  C_12
REMARK    3  A    between atoms: C_8  and  C_11
REMARK    4  A    between atoms: C_13  and  C_15
REMARK                            x       y       z     vdW  Elec       q    Type
REMARK                         _______ _______ _______ _____ _____    ______ ____
ROOT
ATOM      1  N   UNL     1     -17.108  43.579 -11.697  0.00  0.00    +0.000 NA
ATOM      2  C   UNL     1     -17.780  43.065 -12.752  0.00  0.00    +0.000 A 
ATOM      3  C   UNL     1     -18.639  43.797 -13.554  0.00  0.00    +0.000 A 
ATOM      4  C   UNL     1     -18.821  45.143 -13.255  0.00  0.00    +0.000 A 
ATOM      5  C   UNL     1     -17.310  44.889 -11.437  0.00  0.00    +0.000 A 
ATOM      6  C   UNL     1     -18.148  45.707 -12.177  0.00  0.00    +0.000 A 
ENDROOT
BRANCH   3   9
ATOM      7  O   UNL     1     -20.141  42.266 -14.529  0.00  0.00    +0.000 OA
ATOM      8  N   UNL     1     -19.135  43.769 -15.939  0.00  0.00    +0.000 N 
ATOM      9  C   UNL     1     -19.353  43.214 -14.682  0.00  0.00    +0.000 C 
ATOM     10  H   UNL     1     -18.499  44.547 -16.082  0.00  0.00    +0.000 HD
ATOM     11  H   UNL     1     -19.610  43.406 -16.759  0.00  0.00    +0.000 HD
ENDBRANCH   3   9
BRANCH   2  12
ATOM     12  N   UNL     1     -17.592  41.705 -13.045  0.00  0.00    +0.000 N 
ATOM     13  H   UNL     1     -17.147  41.493 -13.932  0.00  0.00    +0.000 HD
BRANCH  12  14
ATOM     14  C   UNL     1     -17.659  40.635 -12.044  0.00  0.00    +0.000 C 
ATOM     15  C   UNL     1     -16.533  39.628 -11.973  0.00  0.00    +0.000 C 
ATOM     16  C   UNL     1     -16.683  40.651 -10.888  0.00  0.00    +0.000 C 
BRANCH  14  20
ATOM     17  F   UNL     1     -19.068  39.420 -10.638  0.00  0.00    +0.000 F 
ATOM     18  F   UNL     1     -19.891  41.180 -11.641  0.00  0.00    +0.000 F 
ATOM     19  F   UNL     1     -19.470  39.365 -12.786  0.00  0.00    +0.000 F 
ATOM     20  C   UNL     1     -19.052  40.139 -11.770  0.00  0.00    +0.000 C 
ENDBRANCH  14  20
ENDBRANCH  12  14
ENDBRANCH   2  12
TORSDOF 4
ENDMDL
MODEL 4
REMARK VINA RESULT:    -5.878      2.624      4.995
REMARK INTER + INTRA:          -7.607
REMARK INTER:                  -6.948
REMARK INTRA:                  -0.660
REMARK UNBOUND:                -0.355
REMARK  Name = 114159203
REMARK  4 active torsions:
REMARK  status: ('A' for Active; 'I' for Inactive)
REMARK    1  A    between atoms: N_5  and  C_8
REMARK    2  A    between atoms: N_5  and  C_12
REMARK    3  A    between atoms: C_8  and  C_11
REMARK    4  A    between atoms: C_13  and  C_15
REMARK                            x       y       z     vdW  Elec       q    Type
REMARK                         _______ _______ _______ _____ _____    ______ ____
ROOT
ATOM      1  N   UNL     1     -18.477  43.056 -13.858  0.00  0.00    +0.000 NA
ATOM      2  C   UNL     1     -17.345  42.784 -13.170  0.00  0.00    +0.000 A 
ATOM      3  C   UNL     1     -16.372  43.725 -12.878  0.00  0.00    +0.000 A 
ATOM      4  C   UNL     1     -16.573  45.029 -13.318  0.00  0.00    +0.000 A 
ATOM      5  C   UNL     1     -18.638  44.333 -14.269  0.00  0.00    +0.000 A 
ATOM      6  C   UNL     1     -17.725  45.347 -14.028  0.00  0.00    +0.000 A 
ENDROOT
BRANCH   3   9
ATOM      7  O   UNL     1     -15.205  43.006 -10.962  0.00  0.00    +0.000 OA
ATOM      8  N   UNL     1     -13.944  43.533 -12.802  0.00  0.00    +0.000 N 
ATOM      9  C   UNL     1     -15.159  43.401 -12.138  0.00  0.00    +0.000 C 
ATOM     10  H   UNL     1     -13.887  43.850 -13.765  0.00  0.00    +0.000 HD
ATOM     11  H   UNL     1     -13.069  43.316 -12.338  0.00  0.00    +0.000 HD
ENDBRANCH   3   9
BRANCH   2  12
ATOM     12  N   UNL     1     -17.148  41.466 -12.732  0.00  0.00    +0.000 N 
ATOM     13  H   UNL     1     -16.236  41.060 -12.919  0.00  0.00    +0.000 HD
BRANCH  12  14
ATOM     14  C   UNL     1     -18.002  40.794 -11.747  0.00  0.00    +0.000 C 
ATOM     15  C   UNL     1     -17.410  40.400 -10.411  0.00  0.00    +0.000 C 
ATOM     16  C   UNL     1     -18.387  41.535 -10.485  0.00  0.00    +0.000 C 
BRANCH  14  20
ATOM     17  F   UNL     1     -20.183  40.529 -12.529  0.00  0.00    +0.000 F 
ATOM     18  F   UNL     1     -18.591  39.421 -13.538  0.00  0.00    +0.000 F 
ATOM     19  F   UNL     1     -19.237  38.827 -11.535  0.00  0.00    +0.000 F 
ATOM     20  C   UNL     1     -19.026  39.873 -12.351  0.00  0.00    +0.000 C 
ENDBRANCH  14  20
ENDBRANCH  12  14
ENDBRANCH   2  12
TORSDOF 4
ENDMDL
MODEL 5
REMARK VINA RESULT:    -5.521      2.647      5.117
REMARK INTER + INTRA:          -7.166
REMARK INTER:                  -6.524
REMARK INTRA:                  -0.643
REMARK UNBOUND:                -0.355
REMARK  Name = 114159203
REMARK  4 active torsions:
REMARK  status: ('A' for Active; 'I' for Inactive)
REMARK    1  A    between atoms: N_5  and  C_8
REMARK    2  A    between atoms: N_5  and  C_12
REMARK    3  A    between atoms: C_8  and  C_11
REMARK    4  A    between atoms: C_13  and  C_15
REMARK                            x       y       z     vdW  Elec       q    Type
REMARK                         _______ _______ _______ _____ _____    ______ ____
ROOT
ATOM      1  N   UNL     1     -19.982  42.340 -14.070  0.00  0.00    +0.000 NA
ATOM      2  C   UNL     1     -19.088  42.778 -13.155  0.00  0.00    +0.000 A 
ATOM      3  C   UNL     1     -18.310  43.912 -13.314  0.00  0.00    +0.000 A 
ATOM      4  C   UNL     1     -18.458  44.645 -14.487  0.00  0.00    +0.000 A 
ATOM      5  C   UNL     1     -20.098  43.076 -15.197  0.00  0.00    +0.000 A 
ATOM      6  C   UNL     1     -19.367  44.225 -15.452  0.00  0.00    +0.000 A 
ENDROOT
BRANCH   3   9
ATOM      7  O   UNL     1     -17.721  44.748 -11.192  0.00  0.00    +0.000 OA
ATOM      8  N   UNL     1     -16.002  44.315 -12.645  0.00  0.00    +0.000 N 
ATOM      9  C   UNL     1     -17.352  44.358 -12.311  0.00  0.00    +0.000 C 
ATOM     10  H   UNL     1     -15.681  43.995 -13.553  0.00  0.00    +0.000 HD
ATOM     11  H   UNL     1     -15.291  44.609 -11.983  0.00  0.00    +0.000 HD
ENDBRANCH   3   9
BRANCH   2  12
ATOM     12  N   UNL     1     -18.943  42.032 -11.975  0.00  0.00    +0.000 N 
ATOM     13  H   UNL     1     -19.476  42.351 -11.173  0.00  0.00    +0.000 HD
BRANCH  12  14
ATOM     14  C   UNL     1     -18.386  40.676 -11.928  0.00  0.00    +0.000 C 
ATOM     15  C   UNL     1     -18.971  39.677 -10.953  0.00  0.00    +0.000 C 
ATOM     16  C   UNL     1     -19.228  39.520 -12.421  0.00  0.00    +0.000 C 
BRANCH  14  20
ATOM     17  F   UNL     1     -16.473  39.349 -12.064  0.00  0.00    +0.000 F 
ATOM     18  F   UNL     1     -16.630  41.061 -13.415  0.00  0.00    +0.000 F 
ATOM     19  F   UNL     1     -16.257  41.380 -11.284  0.00  0.00    +0.000 F 
ATOM     20  C   UNL     1     -16.904  40.614 -12.179  0.00  0.00    +0.000 C 
ENDBRANCH  14  20
ENDBRANCH  12  14
ENDBRANCH   2  12
TORSDOF 4
ENDMDL
