MODEL 1
REMARK VINA RESULT:    -7.692      0.000      0.000
REMARK INTER + INTRA:         -10.291
REMARK INTER:                  -9.715
REMARK INTRA:                  -0.576
REMARK UNBOUND:                -0.576
REMARK  Name = 114384359
REMARK  5 active torsions:
REMARK  status: ('A' for Active; 'I' for Inactive)
REMARK    1  A    between atoms: N_4  and  C_9
REMARK    2  A    between atoms: N_5  and  C_10
REMARK    3  A    between atoms: C_8  and  C_9
REMARK    4  A    between atoms: C_8  and  C_10
REMARK    5  A    between atoms: C_13  and  C_16
REMARK                            x       y       z     vdW  Elec       q    Type
REMARK                         _______ _______ _______ _____ _____    ______ ____
ROOT
ATOM      1  N   UNL     1     -17.671  40.986  -9.531  0.00  0.00    +0.000 N 
ATOM      2  N   UNL     1     -18.842  42.100  -7.819  0.00  0.00    +0.000 NA
ATOM      3  C   UNL     1     -18.846  41.206  -8.832  0.00  0.00    +0.000 A 
ATOM      4  C   UNL     1     -19.962  40.483  -9.225  0.00  0.00    +0.000 A 
ATOM      5  C   UNL     1     -21.185  41.605  -7.484  0.00  0.00    +0.000 A 
ATOM      6  C   UNL     1     -21.149  40.694  -8.533  0.00  0.00    +0.000 A 
ATOM      7  C   UNL     1     -20.014  42.278  -7.169  0.00  0.00    +0.000 A 
ATOM      8  H   UNL     1     -16.858  41.518  -9.240  0.00  0.00    +0.000 HD
ENDROOT
BRANCH   5  11
ATOM      9  O   UNL     1     -23.344  41.024  -6.745  0.00  0.00    +0.000 OA
ATOM     10  N   UNL     1     -22.503  43.024  -6.006  0.00  0.00    +0.000 N 
ATOM     11  C   UNL     1     -22.409  41.846  -6.742  0.00  0.00    +0.000 C 
ATOM     12  H   UNL     1     -21.789  43.739  -5.948  0.00  0.00    +0.000 HD
ATOM     13  H   UNL     1     -23.345  43.215  -5.473  0.00  0.00    +0.000 HD
ENDBRANCH   5  11
BRANCH   1  14
ATOM     14  C   UNL     1     -17.553  40.057 -10.631  0.00  0.00    +0.000 C 
BRANCH  14  17
ATOM     15  F   UNL     1     -17.031  39.958 -12.920  0.00  0.00    +0.000 F 
ATOM     16  F   UNL     1     -18.599  41.346 -12.296  0.00  0.00    +0.000 F 
ATOM     17  C   UNL     1     -17.399  40.821 -11.938  0.00  0.00    +0.000 C 
BRANCH  17  18
ATOM     18  C   UNL     1     -16.368  41.938 -11.833  0.00  0.00    +0.000 C 
BRANCH  18  19
ATOM     19  N   UNL     1     -15.160  41.455 -11.172  0.00  0.00    +0.000 NA
ATOM     20  H   UNL     1     -15.014  41.979 -10.310  0.00  0.00    +0.000 HD
ATOM     21  H   UNL     1     -14.349  41.642 -11.761  0.00  0.00    +0.000 HD
ENDBRANCH  18  19
ENDBRANCH  17  18
ENDBRANCH  14  17
ENDBRANCH   1  14
TORSDOF 5
ENDMDL
MODEL 2
REMARK VINA RESULT:    -7.631      1.153      1.718
REMARK INTER + INTRA:         -10.214
REMARK INTER:                  -9.885
REMARK INTRA:                  -0.329
REMARK UNBOUND:                -0.576
REMARK  Name = 114384359
REMARK  5 active torsions:
REMARK  status: ('A' for Active; 'I' for Inactive)
REMARK    1  A    between atoms: N_4  and  C_9
REMARK    2  A    between atoms: N_5  and  C_10
REMARK    3  A    between atoms: C_8  and  C_9
REMARK    4  A    between atoms: C_8  and  C_10
REMARK    5  A    between atoms: C_13  and  C_16
REMARK                            x       y       z     vdW  Elec       q    Type
REMARK                         _______ _______ _______ _____ _____    ______ ____
ROOT
ATOM      1  N   UNL     1     -17.709  41.029  -9.519  0.00  0.00    +0.000 N 
ATOM      2  N   UNL     1     -18.799  42.180  -7.778  0.00  0.00    +0.000 NA
ATOM      3  C   UNL     1     -18.854  41.273  -8.778  0.00  0.00    +0.000 A 
ATOM      4  C   UNL     1     -19.993  40.560  -9.117  0.00  0.00    +0.000 A 
ATOM      5  C   UNL     1     -21.133  41.721  -7.345  0.00  0.00    +0.000 A 
ATOM      6  C   UNL     1     -21.150  40.795  -8.382  0.00  0.00    +0.000 A 
ATOM      7  C   UNL     1     -19.943  42.382  -7.085  0.00  0.00    +0.000 A 
ATOM      8  H   UNL     1     -16.880  41.554  -9.266  0.00  0.00    +0.000 HD
ENDROOT
BRANCH   5  11
ATOM      9  O   UNL     1     -23.318  41.238  -6.610  0.00  0.00    +0.000 OA
ATOM     10  N   UNL     1     -22.319  43.103  -5.727  0.00  0.00    +0.000 N 
ATOM     11  C   UNL     1     -22.325  41.987  -6.560  0.00  0.00    +0.000 C 
ATOM     12  H   UNL     1     -21.552  43.756  -5.625  0.00  0.00    +0.000 HD
ATOM     13  H   UNL     1     -23.136  43.309  -5.161  0.00  0.00    +0.000 HD
ENDBRANCH   5  11
BRANCH   1  14
ATOM     14  C   UNL     1     -17.647  40.084 -10.610  0.00  0.00    +0.000 C 
BRANCH  14  17
ATOM     15  F   UNL     1     -18.337  42.004 -11.777  0.00  0.00    +0.000 F 
ATOM     16  F   UNL     1     -16.412  41.124 -12.317  0.00  0.00    +0.000 F 
ATOM     17  C   UNL     1     -17.681  40.826 -11.938  0.00  0.00    +0.000 C 
BRANCH  17  18
ATOM     18  C   UNL     1     -18.360  40.013 -13.033  0.00  0.00    +0.000 C 
BRANCH  18  19
ATOM     19  N   UNL     1     -19.575  39.387 -12.523  0.00  0.00    +0.000 NA
ATOM     20  H   UNL     1     -20.337  40.063 -12.544  0.00  0.00    +0.000 HD
ATOM     21  H   UNL     1     -19.445  39.134 -11.544  0.00  0.00    +0.000 HD
ENDBRANCH  18  19
ENDBRANCH  17  18
ENDBRANCH  14  17
ENDBRANCH   1  14
TORSDOF 5
ENDMDL
MODEL 3
REMARK VINA RESULT:    -6.898      3.861      6.601
REMARK INTER + INTRA:          -9.288
REMARK INTER:                  -8.871
REMARK INTRA:                  -0.417
REMARK UNBOUND:                -0.576
REMARK  Name = 114384359
REMARK  5 active torsions:
REMARK  status: ('A' for Active; 'I' for Inactive)
REMARK    1  A    between atoms: N_4  and  C_9
REMARK    2  A    between atoms: N_5  and  C_10
REMARK    3  A    between atoms: C_8  and  C_9
REMARK    4  A    between atoms: C_8  and  C_10
REMARK    5  A    between atoms: C_13  and  C_16
REMARK                            x       y       z     vdW  Elec       q    Type
REMARK                         _______ _______ _______ _____ _____    ______ ____
ROOT
ATOM      1  N   UNL     1     -20.591  40.944  -8.309  0.00  0.00    +0.000 N 
ATOM      2  N   UNL     1     -19.874  39.689 -10.168  0.00  0.00    +0.000 NA
ATOM      3  C   UNL     1     -19.631  40.667  -9.268  0.00  0.00    +0.000 A 
ATOM      4  C   UNL     1     -18.470  41.424  -9.240  0.00  0.00    +0.000 A 
ATOM      5  C   UNL     1     -17.710  40.159 -11.139  0.00  0.00    +0.000 A 
ATOM      6  C   UNL     1     -17.497  41.158 -10.197  0.00  0.00    +0.000 A 
ATOM      7  C   UNL     1     -18.905  39.459 -11.083  0.00  0.00    +0.000 A 
ATOM      8  H   UNL     1     -21.438  40.387  -8.336  0.00  0.00    +0.000 HD
ENDROOT
BRANCH   5  11
ATOM      9  O   UNL     1     -17.016  39.763 -13.355  0.00  0.00    +0.000 OA
ATOM     10  N   UNL     1     -15.394  39.695 -11.735  0.00  0.00    +0.000 N 
ATOM     11  C   UNL     1     -16.713  39.858 -12.151  0.00  0.00    +0.000 C 
ATOM     12  H   UNL     1     -15.067  39.761 -10.780  0.00  0.00    +0.000 HD
ATOM     13  H   UNL     1     -14.675  39.491 -12.422  0.00  0.00    +0.000 HD
ENDBRANCH   5  11
BRANCH   1  14
ATOM     14  C   UNL     1     -20.443  41.965  -7.298  0.00  0.00    +0.000 C 
BRANCH  14  17
ATOM     15  F   UNL     1     -21.510  42.382  -5.246  0.00  0.00    +0.000 F 
ATOM     16  F   UNL     1     -22.388  43.259  -7.043  0.00  0.00    +0.000 F 
ATOM     17  C   UNL     1     -21.761  42.156  -6.561  0.00  0.00    +0.000 C 
BRANCH  17  18
ATOM     18  C   UNL     1     -22.679  40.948  -6.702  0.00  0.00    +0.000 C 
BRANCH  18  19
ATOM     19  N   UNL     1     -23.760  41.237  -7.638  0.00  0.00    +0.000 NA
ATOM     20  H   UNL     1     -24.271  40.378  -7.839  0.00  0.00    +0.000 HD
ATOM     21  H   UNL     1     -23.369  41.551  -8.526  0.00  0.00    +0.000 HD
ENDBRANCH  18  19
ENDBRANCH  17  18
ENDBRANCH  14  17
ENDBRANCH   1  14
TORSDOF 5
ENDMDL
MODEL 4
REMARK VINA RESULT:    -6.211      3.611      6.357
REMARK INTER + INTRA:          -8.421
REMARK INTER:                  -8.089
REMARK INTRA:                  -0.331
REMARK UNBOUND:                -0.576
REMARK  Name = 114384359
REMARK  5 active torsions:
REMARK  status: ('A' for Active; 'I' for Inactive)
REMARK    1  A    between atoms: N_4  and  C_9
REMARK    2  A    between atoms: N_5  and  C_10
REMARK    3  A    between atoms: C_8  and  C_9
REMARK    4  A    between atoms: C_8  and  C_10
REMARK    5  A    between atoms: C_13  and  C_16
REMARK                            x       y       z     vdW  Elec       q    Type
REMARK                         _______ _______ _______ _____ _____    ______ ____
ROOT
ATOM      1  N   UNL     1     -19.987  40.563  -8.922  0.00  0.00    +0.000 N 
ATOM      2  N   UNL     1     -19.606  40.995 -11.205  0.00  0.00    +0.000 NA
ATOM      3  C   UNL     1     -19.254  41.191  -9.916  0.00  0.00    +0.000 A 
ATOM      4  C   UNL     1     -18.196  41.991  -9.514  0.00  0.00    +0.000 A 
ATOM      5  C   UNL     1     -17.783  42.451 -11.838  0.00  0.00    +0.000 A 
ATOM      6  C   UNL     1     -17.452  42.630 -10.500  0.00  0.00    +0.000 A 
ATOM      7  C   UNL     1     -18.860  41.632 -12.136  0.00  0.00    +0.000 A 
ATOM      8  H   UNL     1     -20.760  39.980  -9.223  0.00  0.00    +0.000 HD
ENDROOT
BRANCH   5  11
ATOM      9  O   UNL     1     -17.582  43.800 -13.759  0.00  0.00    +0.000 OA
ATOM     10  N   UNL     1     -15.641  42.944 -12.890  0.00  0.00    +0.000 N 
ATOM     11  C   UNL     1     -17.025  43.104 -12.890  0.00  0.00    +0.000 C 
ATOM     12  H   UNL     1     -15.113  42.400 -12.219  0.00  0.00    +0.000 HD
ATOM     13  H   UNL     1     -15.086  43.394 -13.610  0.00  0.00    +0.000 HD
ENDBRANCH   5  11
BRANCH   1  14
ATOM     14  C   UNL     1     -19.706  40.698  -7.512  0.00  0.00    +0.000 C 
BRANCH  14  17
ATOM     15  F   UNL     1     -20.629  41.578  -5.538  0.00  0.00    +0.000 F 
ATOM     16  F   UNL     1     -20.235  42.963  -7.181  0.00  0.00    +0.000 F 
ATOM     17  C   UNL     1     -20.659  41.707  -6.890  0.00  0.00    +0.000 C 
BRANCH  17  18
ATOM     18  C   UNL     1     -22.089  41.527  -7.384  0.00  0.00    +0.000 C 
BRANCH  18  19
ATOM     19  N   UNL     1     -22.999  42.388  -6.635  0.00  0.00    +0.000 NA
ATOM     20  H   UNL     1     -23.743  42.711  -7.252  0.00  0.00    +0.000 HD
ATOM     21  H   UNL     1     -22.503  43.222  -6.325  0.00  0.00    +0.000 HD
ENDBRANCH  18  19
ENDBRANCH  17  18
ENDBRANCH  14  17
ENDBRANCH   1  14
TORSDOF 5
ENDMDL
MODEL 5
REMARK VINA RESULT:    -6.086      5.007      6.655
REMARK INTER + INTRA:          -8.263
REMARK INTER:                  -7.838
REMARK INTRA:                  -0.425
REMARK UNBOUND:                -0.576
REMARK  Name = 114384359
REMARK  5 active torsions:
REMARK  status: ('A' for Active; 'I' for Inactive)
REMARK    1  A    between atoms: N_4  and  C_9
REMARK    2  A    between atoms: N_5  and  C_10
REMARK    3  A    between atoms: C_8  and  C_9
REMARK    4  A    between atoms: C_8  and  C_10
REMARK    5  A    between atoms: C_13  and  C_16
REMARK                            x       y       z     vdW  Elec       q    Type
REMARK                         _______ _______ _______ _____ _____    ______ ____
ROOT
ATOM      1  N   UNL     1     -20.301  42.666 -14.773  0.00  0.00    +0.000 N 
ATOM      2  N   UNL     1     -19.961  41.197 -12.965  0.00  0.00    +0.000 NA
ATOM      3  C   UNL     1     -19.469  42.137 -13.800  0.00  0.00    +0.000 A 
ATOM      4  C   UNL     1     -18.168  42.615 -13.750  0.00  0.00    +0.000 A 
ATOM      5  C   UNL     1     -17.791  41.124 -11.901  0.00  0.00    +0.000 A 
ATOM      6  C   UNL     1     -17.320  42.093 -12.780  0.00  0.00    +0.000 A 
ATOM      7  C   UNL     1     -19.107  40.712 -12.034  0.00  0.00    +0.000 A 
ATOM      8  H   UNL     1     -21.251  42.312 -14.804  0.00  0.00    +0.000 HD
ENDROOT
BRANCH   5  11
ATOM      9  O   UNL     1     -17.377  40.215  -9.769  0.00  0.00    +0.000 OA
ATOM     10  N   UNL     1     -15.580  40.399 -11.180  0.00  0.00    +0.000 N 
ATOM     11  C   UNL     1     -16.929  40.560 -10.878  0.00  0.00    +0.000 C 
ATOM     12  H   UNL     1     -15.140  40.649 -12.057  0.00  0.00    +0.000 HD
ATOM     13  H   UNL     1     -14.956  40.001 -10.486  0.00  0.00    +0.000 HD
ENDBRANCH   5  11
BRANCH   1  14
ATOM     14  C   UNL     1     -19.888  43.674 -15.721  0.00  0.00    +0.000 C 
BRANCH  14  17
ATOM     15  F   UNL     1     -19.995  44.037 -18.040  0.00  0.00    +0.000 F 
ATOM     16  F   UNL     1     -20.964  42.247 -17.246  0.00  0.00    +0.000 F 
ATOM     17  C   UNL     1     -20.714  43.557 -16.993  0.00  0.00    +0.000 C 
BRANCH  17  18
ATOM     18  C   UNL     1     -22.032  44.315 -16.894  0.00  0.00    +0.000 C 
BRANCH  18  19
ATOM     19  N   UNL     1     -22.837  43.795 -15.794  0.00  0.00    +0.000 NA
ATOM     20  H   UNL     1     -22.224  43.513 -15.030  0.00  0.00    +0.000 HD
ATOM     21  H   UNL     1     -23.324  42.951 -16.095  0.00  0.00    +0.000 HD
ENDBRANCH  18  19
ENDBRANCH  17  18
ENDBRANCH  14  17
ENDBRANCH   1  14
TORSDOF 5
ENDMDL
