MODEL 1
REMARK VINA RESULT:    -6.667      0.000      0.000
REMARK INTER + INTRA:          -9.825
REMARK INTER:                  -8.810
REMARK INTRA:                  -1.015
REMARK UNBOUND:                -1.015
REMARK  Name = 114384383
REMARK  6 active torsions:
REMARK  status: ('A' for Active; 'I' for Inactive)
REMARK    1  A    between atoms: N_4  and  C_9
REMARK    2  A    between atoms: N_4  and  C_11
REMARK    3  A    between atoms: N_5  and  C_10
REMARK    4  A    between atoms: C_8  and  C_9
REMARK    5  A    between atoms: C_8  and  C_10
REMARK    6  A    between atoms: C_12  and  C_15
REMARK                            x       y       z     vdW  Elec       q    Type
REMARK                         _______ _______ _______ _____ _____    ______ ____
ROOT
ATOM      1  N   UNL     1     -18.833  42.315  -7.882  0.00  0.00    +0.000 NA
ATOM      2  C   UNL     1     -18.592  41.679  -9.051  0.00  0.00    +0.000 A 
ATOM      3  C   UNL     1     -19.434  40.728  -9.605  0.00  0.00    +0.000 A 
ATOM      4  C   UNL     1     -20.598  40.410  -8.916  0.00  0.00    +0.000 A 
ATOM      5  C   UNL     1     -20.881  41.042  -7.710  0.00  0.00    +0.000 A 
ATOM      6  C   UNL     1     -19.974  41.979  -7.241  0.00  0.00    +0.000 A 
ENDROOT
BRANCH   3   9
ATOM      7  O   UNL     1     -18.205  39.249 -10.967  0.00  0.00    +0.000 OA
ATOM      8  N   UNL     1     -19.967  40.340 -11.951  0.00  0.00    +0.000 N 
ATOM      9  C   UNL     1     -19.144  40.058 -10.866  0.00  0.00    +0.000 C 
ATOM     10  H   UNL     1     -20.742  40.992 -11.884  0.00  0.00    +0.000 HD
ATOM     11  H   UNL     1     -19.814  39.896 -12.850  0.00  0.00    +0.000 HD
ENDBRANCH   3   9
BRANCH   2  12
ATOM     12  N   UNL     1     -17.428  41.999  -9.730  0.00  0.00    +0.000 N 
ATOM     13  H   UNL     1     -16.552  41.686  -9.325  0.00  0.00    +0.000 HD
BRANCH  12  14
ATOM     14  C   UNL     1     -17.339  43.050 -10.718  0.00  0.00    +0.000 C 
BRANCH  14  17
ATOM     15  F   UNL     1     -15.553  43.736 -12.084  0.00  0.00    +0.000 F 
ATOM     16  F   UNL     1     -15.518  41.691 -11.317  0.00  0.00    +0.000 F 
ATOM     17  C   UNL     1     -16.336  42.665 -11.794  0.00  0.00    +0.000 C 
BRANCH  17  18
ATOM     18  C   UNL     1     -17.017  42.176 -13.066  0.00  0.00    +0.000 C 
BRANCH  18  19
ATOM     19  N   UNL     1     -16.793  40.745 -13.247  0.00  0.00    +0.000 NA
ATOM     20  H   UNL     1     -17.085  40.247 -12.407  0.00  0.00    +0.000 HD
ATOM     21  H   UNL     1     -15.794  40.567 -13.354  0.00  0.00    +0.000 HD
ENDBRANCH  18  19
ENDBRANCH  17  18
ENDBRANCH  14  17
ENDBRANCH  12  14
ENDBRANCH   2  12
TORSDOF 6
ENDMDL
MODEL 2
REMARK VINA RESULT:    -6.263      2.641      4.652
REMARK INTER + INTRA:          -9.293
REMARK INTER:                  -8.292
REMARK INTRA:                  -1.001
REMARK UNBOUND:                -1.015
REMARK  Name = 114384383
REMARK  6 active torsions:
REMARK  status: ('A' for Active; 'I' for Inactive)
REMARK    1  A    between atoms: N_4  and  C_9
REMARK    2  A    between atoms: N_4  and  C_11
REMARK    3  A    between atoms: N_5  and  C_10
REMARK    4  A    between atoms: C_8  and  C_9
REMARK    5  A    between atoms: C_8  and  C_10
REMARK    6  A    between atoms: C_12  and  C_15
REMARK                            x       y       z     vdW  Elec       q    Type
REMARK                         _______ _______ _______ _____ _____    ______ ____
ROOT
ATOM      1  N   UNL     1     -16.975  42.867 -10.562  0.00  0.00    +0.000 NA
ATOM      2  C   UNL     1     -17.779  41.782 -10.621  0.00  0.00    +0.000 A 
ATOM      3  C   UNL     1     -18.124  41.136 -11.797  0.00  0.00    +0.000 A 
ATOM      4  C   UNL     1     -17.610  41.634 -12.989  0.00  0.00    +0.000 A 
ATOM      5  C   UNL     1     -16.780  42.749 -12.969  0.00  0.00    +0.000 A 
ATOM      6  C   UNL     1     -16.495  43.324 -11.740  0.00  0.00    +0.000 A 
ENDROOT
BRANCH   3   9
ATOM      7  O   UNL     1     -18.780  38.980 -11.108  0.00  0.00    +0.000 OA
ATOM      8  N   UNL     1     -20.097  40.008 -12.679  0.00  0.00    +0.000 N 
ATOM      9  C   UNL     1     -18.997  39.970 -11.828  0.00  0.00    +0.000 C 
ATOM     10  H   UNL     1     -20.294  40.811 -13.268  0.00  0.00    +0.000 HD
ATOM     11  H   UNL     1     -20.741  39.227 -12.735  0.00  0.00    +0.000 HD
ENDBRANCH   3   9
BRANCH   2  12
ATOM     12  N   UNL     1     -18.290  41.293  -9.430  0.00  0.00    +0.000 N 
ATOM     13  H   UNL     1     -18.598  40.326  -9.419  0.00  0.00    +0.000 HD
BRANCH  12  14
ATOM     14  C   UNL     1     -18.776  42.134  -8.360  0.00  0.00    +0.000 C 
BRANCH  14  17
ATOM     15  F   UNL     1     -19.142  40.186  -7.098  0.00  0.00    +0.000 F 
ATOM     16  F   UNL     1     -19.986  42.056  -6.348  0.00  0.00    +0.000 F 
ATOM     17  C   UNL     1     -19.733  41.348  -7.479  0.00  0.00    +0.000 C 
BRANCH  17  18
ATOM     18  C   UNL     1     -21.046  41.041  -8.187  0.00  0.00    +0.000 C 
BRANCH  18  19
ATOM     19  N   UNL     1     -20.944  39.788  -8.930  0.00  0.00    +0.000 NA
ATOM     20  H   UNL     1     -20.277  39.173  -8.465  0.00  0.00    +0.000 HD
ATOM     21  H   UNL     1     -20.566  39.972  -9.859  0.00  0.00    +0.000 HD
ENDBRANCH  18  19
ENDBRANCH  17  18
ENDBRANCH  14  17
ENDBRANCH  12  14
ENDBRANCH   2  12
TORSDOF 6
ENDMDL
MODEL 3
REMARK VINA RESULT:    -6.027      2.871      5.118
REMARK INTER + INTRA:          -8.980
REMARK INTER:                  -8.379
REMARK INTRA:                  -0.601
REMARK UNBOUND:                -1.015
REMARK  Name = 114384383
REMARK  6 active torsions:
REMARK  status: ('A' for Active; 'I' for Inactive)
REMARK    1  A    between atoms: N_4  and  C_9
REMARK    2  A    between atoms: N_4  and  C_11
REMARK    3  A    between atoms: N_5  and  C_10
REMARK    4  A    between atoms: C_8  and  C_9
REMARK    5  A    between atoms: C_8  and  C_10
REMARK    6  A    between atoms: C_12  and  C_15
REMARK                            x       y       z     vdW  Elec       q    Type
REMARK                         _______ _______ _______ _____ _____    ______ ____
ROOT
ATOM      1  N   UNL     1     -19.057  39.633 -10.756  0.00  0.00    +0.000 NA
ATOM      2  C   UNL     1     -18.054  40.511 -10.531  0.00  0.00    +0.000 A 
ATOM      3  C   UNL     1     -17.217  41.004 -11.519  0.00  0.00    +0.000 A 
ATOM      4  C   UNL     1     -17.424  40.568 -12.823  0.00  0.00    +0.000 A 
ATOM      5  C   UNL     1     -18.445  39.664 -13.095  0.00  0.00    +0.000 A 
ATOM      6  C   UNL     1     -19.226  39.231 -12.035  0.00  0.00    +0.000 A 
ENDROOT
BRANCH   3   9
ATOM      7  O   UNL     1     -16.374  43.156 -11.063  0.00  0.00    +0.000 OA
ATOM      8  N   UNL     1     -14.847  41.448 -11.169  0.00  0.00    +0.000 N 
ATOM      9  C   UNL     1     -16.143  41.948 -11.244  0.00  0.00    +0.000 C 
ATOM     10  H   UNL     1     -14.641  40.463 -11.306  0.00  0.00    +0.000 HD
ATOM     11  H   UNL     1     -14.062  42.059 -10.973  0.00  0.00    +0.000 HD
ENDBRANCH   3   9
BRANCH   2  12
ATOM     12  N   UNL     1     -17.852  40.939  -9.229  0.00  0.00    +0.000 N 
ATOM     13  H   UNL     1     -17.299  40.340  -8.624  0.00  0.00    +0.000 HD
BRANCH  12  14
ATOM     14  C   UNL     1     -18.674  41.931  -8.574  0.00  0.00    +0.000 C 
BRANCH  14  17
ATOM     15  F   UNL     1     -20.882  41.126  -8.607  0.00  0.00    +0.000 F 
ATOM     16  F   UNL     1     -19.405  39.992  -7.466  0.00  0.00    +0.000 F 
ATOM     17  C   UNL     1     -19.793  41.248  -7.804  0.00  0.00    +0.000 C 
BRANCH  17  18
ATOM     18  C   UNL     1     -20.176  42.016  -6.545  0.00  0.00    +0.000 C 
BRANCH  18  19
ATOM     19  N   UNL     1     -21.333  42.870  -6.800  0.00  0.00    +0.000 NA
ATOM     20  H   UNL     1     -21.043  43.847  -6.777  0.00  0.00    +0.000 HD
ATOM     21  H   UNL     1     -22.014  42.755  -6.050  0.00  0.00    +0.000 HD
ENDBRANCH  18  19
ENDBRANCH  17  18
ENDBRANCH  14  17
ENDBRANCH  12  14
ENDBRANCH   2  12
TORSDOF 6
ENDMDL
MODEL 4
REMARK VINA RESULT:    -5.645      3.215      5.451
REMARK INTER + INTRA:          -8.475
REMARK INTER:                  -7.493
REMARK INTRA:                  -0.983
REMARK UNBOUND:                -1.015
REMARK  Name = 114384383
REMARK  6 active torsions:
REMARK  status: ('A' for Active; 'I' for Inactive)
REMARK    1  A    between atoms: N_4  and  C_9
REMARK    2  A    between atoms: N_4  and  C_11
REMARK    3  A    between atoms: N_5  and  C_10
REMARK    4  A    between atoms: C_8  and  C_9
REMARK    5  A    between atoms: C_8  and  C_10
REMARK    6  A    between atoms: C_12  and  C_15
REMARK                            x       y       z     vdW  Elec       q    Type
REMARK                         _______ _______ _______ _____ _____    ______ ____
ROOT
ATOM      1  N   UNL     1     -19.842  42.450 -14.889  0.00  0.00    +0.000 NA
ATOM      2  C   UNL     1     -18.928  42.372 -13.897  0.00  0.00    +0.000 A 
ATOM      3  C   UNL     1     -18.080  43.408 -13.539  0.00  0.00    +0.000 A 
ATOM      4  C   UNL     1     -18.179  44.602 -14.245  0.00  0.00    +0.000 A 
ATOM      5  C   UNL     1     -19.107  44.721 -15.273  0.00  0.00    +0.000 A 
ATOM      6  C   UNL     1     -19.908  43.625 -15.553  0.00  0.00    +0.000 A 
ENDROOT
BRANCH   3   9
ATOM      7  O   UNL     1     -17.409  43.521 -11.284  0.00  0.00    +0.000 OA
ATOM      8  N   UNL     1     -15.814  42.894 -12.807  0.00  0.00    +0.000 N 
ATOM      9  C   UNL     1     -17.102  43.291 -12.466  0.00  0.00    +0.000 C 
ATOM     10  H   UNL     1     -15.547  42.695 -13.767  0.00  0.00    +0.000 HD
ATOM     11  H   UNL     1     -15.095  42.790 -12.099  0.00  0.00    +0.000 HD
ENDBRANCH   3   9
BRANCH   2  12
ATOM     12  N   UNL     1     -18.833  41.178 -13.200  0.00  0.00    +0.000 N 
ATOM     13  H   UNL     1     -18.422  40.388 -13.687  0.00  0.00    +0.000 HD
BRANCH  12  14
ATOM     14  C   UNL     1     -19.612  40.873 -12.022  0.00  0.00    +0.000 C 
BRANCH  14  17
ATOM     15  F   UNL     1     -19.279  39.821  -9.947  0.00  0.00    +0.000 F 
ATOM     16  F   UNL     1     -19.508  38.547 -11.707  0.00  0.00    +0.000 F 
ATOM     17  C   UNL     1     -18.976  39.717 -11.267  0.00  0.00    +0.000 C 
BRANCH  17  18
ATOM     18  C   UNL     1     -17.463  39.682 -11.438  0.00  0.00    +0.000 C 
BRANCH  18  19
ATOM     19  N   UNL     1     -16.823  40.612 -10.513  0.00  0.00    +0.000 NA
ATOM     20  H   UNL     1     -17.530  41.218 -10.099  0.00  0.00    +0.000 HD
ATOM     21  H   UNL     1     -16.188  41.222 -11.028  0.00  0.00    +0.000 HD
ENDBRANCH  18  19
ENDBRANCH  17  18
ENDBRANCH  14  17
ENDBRANCH  12  14
ENDBRANCH   2  12
TORSDOF 6
ENDMDL
MODEL 5
REMARK VINA RESULT:    -5.628      1.894      1.976
REMARK INTER + INTRA:          -8.453
REMARK INTER:                  -7.897
REMARK INTRA:                  -0.555
REMARK UNBOUND:                -1.015
REMARK  Name = 114384383
REMARK  6 active torsions:
REMARK  status: ('A' for Active; 'I' for Inactive)
REMARK    1  A    between atoms: N_4  and  C_9
REMARK    2  A    between atoms: N_4  and  C_11
REMARK    3  A    between atoms: N_5  and  C_10
REMARK    4  A    between atoms: C_8  and  C_9
REMARK    5  A    between atoms: C_8  and  C_10
REMARK    6  A    between atoms: C_12  and  C_15
REMARK                            x       y       z     vdW  Elec       q    Type
REMARK                         _______ _______ _______ _____ _____    ______ ____
ROOT
ATOM      1  N   UNL     1     -18.466  42.241  -8.486  0.00  0.00    +0.000 NA
ATOM      2  C   UNL     1     -18.286  41.664  -9.695  0.00  0.00    +0.000 A 
ATOM      3  C   UNL     1     -19.087  40.651 -10.199  0.00  0.00    +0.000 A 
ATOM      4  C   UNL     1     -20.142  40.203  -9.412  0.00  0.00    +0.000 A 
ATOM      5  C   UNL     1     -20.359  40.772  -8.162  0.00  0.00    +0.000 A 
ATOM      6  C   UNL     1     -19.500  41.779  -7.749  0.00  0.00    +0.000 A 
ENDROOT
BRANCH   3   9
ATOM      7  O   UNL     1     -19.618  40.285 -12.465  0.00  0.00    +0.000 OA
ATOM      8  N   UNL     1     -17.766  39.207 -11.650  0.00  0.00    +0.000 N 
ATOM      9  C   UNL     1     -18.864  40.047 -11.506  0.00  0.00    +0.000 C 
ATOM     10  H   UNL     1     -17.135  39.007 -10.879  0.00  0.00    +0.000 HD
ATOM     11  H   UNL     1     -17.560  38.765 -12.539  0.00  0.00    +0.000 HD
ENDBRANCH   3   9
BRANCH   2  12
ATOM     12  N   UNL     1     -17.232  42.113 -10.473  0.00  0.00    +0.000 N 
ATOM     13  H   UNL     1     -16.344  41.629 -10.377  0.00  0.00    +0.000 HD
BRANCH  12  14
ATOM     14  C   UNL     1     -17.188  43.421 -11.086  0.00  0.00    +0.000 C 
BRANCH  14  17
ATOM     15  F   UNL     1     -16.856  42.148 -13.034  0.00  0.00    +0.000 F 
ATOM     16  F   UNL     1     -18.755  43.207 -12.824  0.00  0.00    +0.000 F 
ATOM     17  C   UNL     1     -17.421  43.298 -12.583  0.00  0.00    +0.000 C 
BRANCH  17  18
ATOM     18  C   UNL     1     -16.847  44.480 -13.354  0.00  0.00    +0.000 C 
BRANCH  18  19
ATOM     19  N   UNL     1     -17.673  44.779 -14.519  0.00  0.00    +0.000 NA
ATOM     20  H   UNL     1     -17.709  45.789 -14.659  0.00  0.00    +0.000 HD
ATOM     21  H   UNL     1     -18.632  44.480 -14.344  0.00  0.00    +0.000 HD
ENDBRANCH  18  19
ENDBRANCH  17  18
ENDBRANCH  14  17
ENDBRANCH  12  14
ENDBRANCH   2  12
TORSDOF 6
ENDMDL
