MODEL 1
REMARK VINA RESULT:    -7.165      0.000      0.000
REMARK INTER + INTRA:          -7.852
REMARK INTER:                  -7.793
REMARK INTRA:                  -0.059
REMARK UNBOUND:                -0.059
REMARK  Name = 11458677
REMARK  2 active torsions:
REMARK  status: ('A' for Active; 'I' for Inactive)
REMARK    1  A    between atoms: N_3  and  C_6
REMARK    2  A    between atoms: C_15  and  C_16
REMARK                            x       y       z     vdW  Elec       q    Type
REMARK                         _______ _______ _______ _____ _____    ______ ____
ROOT
ATOM      1  N   UNL     1     -18.086  41.347 -10.048  0.00  0.00    +0.000 N 
ATOM      2  N   UNL     1     -18.906  42.321  -8.017  0.00  0.00    +0.000 NA
ATOM      3  C   UNL     1     -15.890  41.067 -11.949  0.00  0.00    +0.000 C 
ATOM      4  C   UNL     1     -16.548  42.419 -11.654  0.00  0.00    +0.000 C 
ATOM      5  C   UNL     1     -16.901  39.945 -11.692  0.00  0.00    +0.000 C 
ATOM      6  C   UNL     1     -17.183  42.488 -10.263  0.00  0.00    +0.000 C 
ATOM      7  C   UNL     1     -17.533  40.012 -10.300  0.00  0.00    +0.000 C 
ATOM      8  C   UNL     1     -19.100  41.501  -9.095  0.00  0.00    +0.000 A 
ATOM      9  C   UNL     1     -20.298  40.798  -9.276  0.00  0.00    +0.000 A 
ATOM     10  C   UNL     1     -21.314  40.939  -8.338  0.00  0.00    +0.000 A 
ATOM     11  C   UNL     1     -19.916  42.434  -7.126  0.00  0.00    +0.000 A 
ATOM     12  C   UNL     1     -21.127  41.770  -7.239  0.00  0.00    +0.000 A 
ENDROOT
BRANCH  12  15
ATOM     13  O   UNL     1     -23.191  41.229  -6.242  0.00  0.00    +0.000 OA
ATOM     14  N   UNL     1     -21.982  42.916  -5.265  0.00  0.00    +0.000 N 
ATOM     15  C   UNL     1     -22.169  41.939  -6.241  0.00  0.00    +0.000 C 
ATOM     16  H   UNL     1     -21.180  43.530  -5.193  0.00  0.00    +0.000 HD
ATOM     17  H   UNL     1     -22.691  43.050  -4.552  0.00  0.00    +0.000 HD
ENDBRANCH  12  15
BRANCH   3  18
ATOM     18  N   UNL     1     -14.675  40.893 -11.152  0.00  0.00    +0.000 NA
ATOM     19  H   UNL     1     -14.713  39.999 -10.664  0.00  0.00    +0.000 HD
ATOM     20  H   UNL     1     -14.620  41.606 -10.427  0.00  0.00    +0.000 HD
ENDBRANCH   3  18
TORSDOF 2
ENDMDL
MODEL 2
REMARK VINA RESULT:    -7.110      1.081      1.919
REMARK INTER + INTRA:          -7.793
REMARK INTER:                  -7.733
REMARK INTRA:                  -0.060
REMARK UNBOUND:                -0.059
REMARK  Name = 11458677
REMARK  2 active torsions:
REMARK  status: ('A' for Active; 'I' for Inactive)
REMARK    1  A    between atoms: N_3  and  C_6
REMARK    2  A    between atoms: C_15  and  C_16
REMARK                            x       y       z     vdW  Elec       q    Type
REMARK                         _______ _______ _______ _____ _____    ______ ____
ROOT
ATOM      1  N   UNL     1     -18.108  41.233 -10.046  0.00  0.00    +0.000 N 
ATOM      2  N   UNL     1     -20.331  40.765  -9.279  0.00  0.00    +0.000 NA
ATOM      3  C   UNL     1     -16.062  40.844 -12.088  0.00  0.00    +0.000 C 
ATOM      4  C   UNL     1     -16.643  39.678 -11.281  0.00  0.00    +0.000 C 
ATOM      5  C   UNL     1     -16.164  42.132 -11.264  0.00  0.00    +0.000 C 
ATOM      6  C   UNL     1     -18.057  39.951 -10.765  0.00  0.00    +0.000 C 
ATOM      7  C   UNL     1     -17.579  42.405 -10.750  0.00  0.00    +0.000 C 
ATOM      8  C   UNL     1     -19.132  41.402  -9.106  0.00  0.00    +0.000 A 
ATOM      9  C   UNL     1     -18.895  42.232  -8.002  0.00  0.00    +0.000 A 
ATOM     10  C   UNL     1     -19.902  42.411  -7.061  0.00  0.00    +0.000 A 
ATOM     11  C   UNL     1     -21.286  40.962  -8.343  0.00  0.00    +0.000 A 
ATOM     12  C   UNL     1     -21.123  41.767  -7.227  0.00  0.00    +0.000 A 
ENDROOT
BRANCH  12  15
ATOM     13  O   UNL     1     -23.211  41.214  -6.287  0.00  0.00    +0.000 OA
ATOM     14  N   UNL     1     -22.045  42.918  -5.287  0.00  0.00    +0.000 N 
ATOM     15  C   UNL     1     -22.195  41.934  -6.261  0.00  0.00    +0.000 C 
ATOM     16  H   UNL     1     -21.252  43.540  -5.195  0.00  0.00    +0.000 HD
ATOM     17  H   UNL     1     -22.776  43.051  -4.596  0.00  0.00    +0.000 HD
ENDBRANCH  12  15
BRANCH   3  18
ATOM     18  N   UNL     1     -16.738  40.973 -13.380  0.00  0.00    +0.000 NA
ATOM     19  H   UNL     1     -17.391  40.199 -13.501  0.00  0.00    +0.000 HD
ATOM     20  H   UNL     1     -16.067  40.895 -14.142  0.00  0.00    +0.000 HD
ENDBRANCH   3  18
TORSDOF 2
ENDMDL
MODEL 3
REMARK VINA RESULT:    -5.872      5.575      7.429
REMARK INTER + INTRA:          -6.446
REMARK INTER:                  -6.399
REMARK INTRA:                  -0.048
REMARK UNBOUND:                -0.059
REMARK  Name = 11458677
REMARK  2 active torsions:
REMARK  status: ('A' for Active; 'I' for Inactive)
REMARK    1  A    between atoms: N_3  and  C_6
REMARK    2  A    between atoms: C_15  and  C_16
REMARK                            x       y       z     vdW  Elec       q    Type
REMARK                         _______ _______ _______ _____ _____    ______ ____
ROOT
ATOM      1  N   UNL     1     -18.552  42.274 -12.976  0.00  0.00    +0.000 N 
ATOM      2  N   UNL     1     -19.866  42.585 -14.957  0.00  0.00    +0.000 NA
ATOM      3  C   UNL     1     -17.723  40.507 -10.808  0.00  0.00    +0.000 C 
ATOM      4  C   UNL     1     -19.185  40.919 -11.014  0.00  0.00    +0.000 C 
ATOM      5  C   UNL     1     -16.805  41.595 -11.376  0.00  0.00    +0.000 C 
ATOM      6  C   UNL     1     -19.509  41.282 -12.464  0.00  0.00    +0.000 C 
ATOM      7  C   UNL     1     -17.128  41.955 -12.827  0.00  0.00    +0.000 C 
ATOM      8  C   UNL     1     -18.967  43.074 -14.048  0.00  0.00    +0.000 A 
ATOM      9  C   UNL     1     -18.440  44.367 -14.160  0.00  0.00    +0.000 A 
ATOM     10  C   UNL     1     -18.841  45.173 -15.219  0.00  0.00    +0.000 A 
ATOM     11  C   UNL     1     -20.233  43.398 -15.973  0.00  0.00    +0.000 A 
ATOM     12  C   UNL     1     -19.755  44.686 -16.147  0.00  0.00    +0.000 A 
ENDROOT
BRANCH  12  15
ATOM     13  O   UNL     1     -19.740  45.334 -18.412  0.00  0.00    +0.000 OA
ATOM     14  N   UNL     1     -21.159  46.477 -17.018  0.00  0.00    +0.000 N 
ATOM     15  C   UNL     1     -20.194  45.503 -17.265  0.00  0.00    +0.000 C 
ATOM     16  H   UNL     1     -21.580  46.675 -16.119  0.00  0.00    +0.000 HD
ATOM     17  H   UNL     1     -21.489  47.058 -17.783  0.00  0.00    +0.000 HD
ENDBRANCH  12  15
BRANCH   3  18
ATOM     18  N   UNL     1     -17.457  39.203 -11.417  0.00  0.00    +0.000 NA
ATOM     19  H   UNL     1     -17.170  39.333 -12.387  0.00  0.00    +0.000 HD
ATOM     20  H   UNL     1     -18.309  38.646 -11.451  0.00  0.00    +0.000 HD
ENDBRANCH   3  18
TORSDOF 2
ENDMDL
MODEL 4
REMARK VINA RESULT:    -5.856      5.018      6.676
REMARK INTER + INTRA:          -6.429
REMARK INTER:                  -6.374
REMARK INTRA:                  -0.055
REMARK UNBOUND:                -0.059
REMARK  Name = 11458677
REMARK  2 active torsions:
REMARK  status: ('A' for Active; 'I' for Inactive)
REMARK    1  A    between atoms: N_3  and  C_6
REMARK    2  A    between atoms: C_15  and  C_16
REMARK                            x       y       z     vdW  Elec       q    Type
REMARK                         _______ _______ _______ _____ _____    ______ ____
ROOT
ATOM      1  N   UNL     1     -19.168  43.671 -15.121  0.00  0.00    +0.000 N 
ATOM      2  N   UNL     1     -19.955  41.993 -13.600  0.00  0.00    +0.000 NA
ATOM      3  C   UNL     1     -19.771  45.517 -17.297  0.00  0.00    +0.000 C 
ATOM      4  C   UNL     1     -19.939  44.001 -17.441  0.00  0.00    +0.000 C 
ATOM      5  C   UNL     1     -18.694  45.810 -16.248  0.00  0.00    +0.000 C 
ATOM      6  C   UNL     1     -20.191  43.294 -16.108  0.00  0.00    +0.000 C 
ATOM      7  C   UNL     1     -18.948  45.105 -14.913  0.00  0.00    +0.000 C 
ATOM      8  C   UNL     1     -18.938  42.781 -14.064  0.00  0.00    +0.000 A 
ATOM      9  C   UNL     1     -17.654  42.728 -13.504  0.00  0.00    +0.000 A 
ATOM     10  C   UNL     1     -17.409  41.851 -12.454  0.00  0.00    +0.000 A 
ATOM     11  C   UNL     1     -19.680  41.153 -12.577  0.00  0.00    +0.000 A 
ATOM     12  C   UNL     1     -18.436  41.045 -11.975  0.00  0.00    +0.000 A 
ENDROOT
BRANCH  12  15
ATOM     13  O   UNL     1     -18.702  38.974 -10.885  0.00  0.00    +0.000 OA
ATOM     14  N   UNL     1     -17.415  40.545  -9.820  0.00  0.00    +0.000 N 
ATOM     15  C   UNL     1     -18.213  40.119 -10.879  0.00  0.00    +0.000 C 
ATOM     16  H   UNL     1     -16.979  41.455  -9.740  0.00  0.00    +0.000 HD
ATOM     17  H   UNL     1     -17.238  39.916  -9.044  0.00  0.00    +0.000 HD
ENDBRANCH  12  15
BRANCH   3  18
ATOM     18  N   UNL     1     -21.044  46.154 -16.957  0.00  0.00    +0.000 NA
ATOM     19  H   UNL     1     -21.692  45.451 -16.600  0.00  0.00    +0.000 HD
ATOM     20  H   UNL     1     -21.483  46.540 -17.791  0.00  0.00    +0.000 HD
ENDBRANCH   3  18
TORSDOF 2
ENDMDL
MODEL 5
REMARK VINA RESULT:    -5.566      4.491      6.230
REMARK INTER + INTRA:          -6.113
REMARK INTER:                  -6.054
REMARK INTRA:                  -0.060
REMARK UNBOUND:                -0.059
REMARK  Name = 11458677
REMARK  2 active torsions:
REMARK  status: ('A' for Active; 'I' for Inactive)
REMARK    1  A    between atoms: N_3  and  C_6
REMARK    2  A    between atoms: C_15  and  C_16
REMARK                            x       y       z     vdW  Elec       q    Type
REMARK                         _______ _______ _______ _____ _____    ______ ____
ROOT
ATOM      1  N   UNL     1     -17.815  45.327 -12.636  0.00  0.00    +0.000 N 
ATOM      2  N   UNL     1     -18.943  43.305 -13.257  0.00  0.00    +0.000 NA
ATOM      3  C   UNL     1     -17.300  48.145 -13.191  0.00  0.00    +0.000 C 
ATOM      4  C   UNL     1     -16.942  47.037 -14.187  0.00  0.00    +0.000 C 
ATOM      5  C   UNL     1     -17.284  47.573 -11.770  0.00  0.00    +0.000 C 
ATOM      6  C   UNL     1     -17.811  45.786 -14.033  0.00  0.00    +0.000 C 
ATOM      7  C   UNL     1     -18.156  46.324 -11.616  0.00  0.00    +0.000 C 
ATOM      8  C   UNL     1     -18.112  43.979 -12.404  0.00  0.00    +0.000 A 
ATOM      9  C   UNL     1     -17.543  43.353 -11.287  0.00  0.00    +0.000 A 
ATOM     10  C   UNL     1     -17.829  42.015 -11.042  0.00  0.00    +0.000 A 
ATOM     11  C   UNL     1     -19.198  42.005 -12.987  0.00  0.00    +0.000 A 
ATOM     12  C   UNL     1     -18.671  41.321 -11.904  0.00  0.00    +0.000 A 
ENDROOT
BRANCH  12  15
ATOM     13  O   UNL     1     -18.510  39.294 -10.714  0.00  0.00    +0.000 OA
ATOM     14  N   UNL     1     -19.870  39.304 -12.561  0.00  0.00    +0.000 N 
ATOM     15  C   UNL     1     -18.990  39.922 -11.676  0.00  0.00    +0.000 C 
ATOM     16  H   UNL     1     -20.306  39.743 -13.362  0.00  0.00    +0.000 HD
ATOM     17  H   UNL     1     -20.115  38.329 -12.421  0.00  0.00    +0.000 HD
ENDBRANCH  12  15
BRANCH   3  18
ATOM     18  N   UNL     1     -18.594  48.744 -13.519  0.00  0.00    +0.000 NA
ATOM     19  H   UNL     1     -19.258  48.552 -12.769  0.00  0.00    +0.000 HD
ATOM     20  H   UNL     1     -18.985  48.312 -14.354  0.00  0.00    +0.000 HD
ENDBRANCH   3  18
TORSDOF 2
ENDMDL
