MODEL 1
REMARK VINA RESULT:    -6.298      0.000      0.000
REMARK INTER + INTRA:          -8.466
REMARK INTER:                  -8.138
REMARK INTRA:                  -0.327
REMARK UNBOUND:                -0.327
REMARK  Name = 115408596
REMARK  6 active torsions:
REMARK  status: ('A' for Active; 'I' for Inactive)
REMARK    1  A    between atoms: N_4  and  C_8
REMARK    2  A    between atoms: N_4  and  C_9
REMARK    3  A    between atoms: N_5  and  C_11
REMARK    4  A    between atoms: C_7  and  C_10
REMARK    5  A    between atoms: C_9  and  C_13
REMARK    6  A    between atoms: C_11  and  C_14
REMARK                            x       y       z     vdW  Elec       q    Type
REMARK                         _______ _______ _______ _____ _____    ______ ____
ROOT
ATOM      1  N   UNL     1     -17.273  40.905 -12.347  0.00  0.00    +0.000 NA
ATOM      2  C   UNL     1     -18.500  41.044 -10.268  0.00  0.00    +0.000 A 
ATOM      3  C   UNL     1     -17.512  41.470 -11.142  0.00  0.00    +0.000 A 
ATOM      4  C   UNL     1     -19.294  39.971 -10.656  0.00  0.00    +0.000 A 
ATOM      5  C   UNL     1     -19.079  39.363 -11.889  0.00  0.00    +0.000 A 
ATOM      6  C   UNL     1     -18.066  39.864 -12.690  0.00  0.00    +0.000 A 
ENDROOT
BRANCH   2   9
ATOM      7  O   UNL     1     -18.062  42.658  -8.626  0.00  0.00    +0.000 OA
ATOM      8  N   UNL     1     -19.755  41.137  -8.185  0.00  0.00    +0.000 N 
ATOM      9  C   UNL     1     -18.735  41.675  -8.977  0.00  0.00    +0.000 C 
ATOM     10  H   UNL     1     -20.272  40.333  -8.530  0.00  0.00    +0.000 HD
BRANCH   8  11
ATOM     11  C   UNL     1     -20.123  41.666  -6.891  0.00  0.00    +0.000 C 
BRANCH  11  14
ATOM     12  F   UNL     1     -21.983  42.419  -5.664  0.00  0.00    +0.000 F 
ATOM     13  F   UNL     1     -22.356  41.524  -7.617  0.00  0.00    +0.000 F 
ATOM     14  C   UNL     1     -21.493  42.305  -6.923  0.00  0.00    +0.000 C 
ENDBRANCH  11  14
ENDBRANCH   8  11
ENDBRANCH   2   9
BRANCH   3  15
ATOM     15  N   UNL     1     -16.700  42.565 -10.754  0.00  0.00    +0.000 N 
ATOM     16  H   UNL     1     -16.585  42.706  -9.756  0.00  0.00    +0.000 HD
BRANCH  15  17
ATOM     17  C   UNL     1     -16.436  43.670 -11.616  0.00  0.00    +0.000 C 
ATOM     18  C   UNL     1     -17.596  44.648 -11.581  0.00  0.00    +0.000 C 
ENDBRANCH  15  17
ENDBRANCH   3  15
TORSDOF 5
ENDMDL
MODEL 2
REMARK VINA RESULT:    -5.927      4.106      5.680
REMARK INTER + INTRA:          -7.987
REMARK INTER:                  -7.396
REMARK INTRA:                  -0.591
REMARK UNBOUND:                -0.327
REMARK  Name = 115408596
REMARK  6 active torsions:
REMARK  status: ('A' for Active; 'I' for Inactive)
REMARK    1  A    between atoms: N_4  and  C_8
REMARK    2  A    between atoms: N_4  and  C_9
REMARK    3  A    between atoms: N_5  and  C_11
REMARK    4  A    between atoms: C_7  and  C_10
REMARK    5  A    between atoms: C_9  and  C_13
REMARK    6  A    between atoms: C_11  and  C_14
REMARK                            x       y       z     vdW  Elec       q    Type
REMARK                         _______ _______ _______ _____ _____    ______ ____
ROOT
ATOM      1  N   UNL     1     -19.138  39.606 -10.556  0.00  0.00    +0.000 NA
ATOM      2  C   UNL     1     -17.545  41.229 -11.380  0.00  0.00    +0.000 A 
ATOM      3  C   UNL     1     -18.278  40.633 -10.366  0.00  0.00    +0.000 A 
ATOM      4  C   UNL     1     -17.704  40.740 -12.671  0.00  0.00    +0.000 A 
ATOM      5  C   UNL     1     -18.579  39.684 -12.907  0.00  0.00    +0.000 A 
ATOM      6  C   UNL     1     -19.265  39.157 -11.825  0.00  0.00    +0.000 A 
ENDROOT
BRANCH   2   9
ATOM      7  O   UNL     1     -17.046  43.422 -10.719  0.00  0.00    +0.000 OA
ATOM      8  N   UNL     1     -15.270  42.092 -11.391  0.00  0.00    +0.000 N 
ATOM      9  C   UNL     1     -16.626  42.332 -11.143  0.00  0.00    +0.000 C 
ATOM     10  H   UNL     1     -14.989  41.178 -11.735  0.00  0.00    +0.000 HD
BRANCH   8  11
ATOM     11  C   UNL     1     -14.234  43.078 -11.182  0.00  0.00    +0.000 C 
BRANCH  11  14
ATOM     12  F   UNL     1     -12.099  42.627 -12.061  0.00  0.00    +0.000 F 
ATOM     13  F   UNL     1     -13.029  41.090 -10.825  0.00  0.00    +0.000 F 
ATOM     14  C   UNL     1     -12.884  42.429 -10.974  0.00  0.00    +0.000 C 
ENDBRANCH  11  14
ENDBRANCH   8  11
ENDBRANCH   2   9
BRANCH   3  15
ATOM     15  N   UNL     1     -18.120  41.125  -9.046  0.00  0.00    +0.000 N 
ATOM     16  H   UNL     1     -17.194  41.456  -8.799  0.00  0.00    +0.000 HD
BRANCH  15  17
ATOM     17  C   UNL     1     -19.005  40.775  -7.983  0.00  0.00    +0.000 C 
ATOM     18  C   UNL     1     -19.576  42.027  -7.345  0.00  0.00    +0.000 C 
ENDBRANCH  15  17
ENDBRANCH   3  15
TORSDOF 5
ENDMDL
MODEL 3
REMARK VINA RESULT:    -5.820      4.347      5.643
REMARK INTER + INTRA:          -7.848
REMARK INTER:                  -7.093
REMARK INTRA:                  -0.755
REMARK UNBOUND:                -0.327
REMARK  Name = 115408596
REMARK  6 active torsions:
REMARK  status: ('A' for Active; 'I' for Inactive)
REMARK    1  A    between atoms: N_4  and  C_8
REMARK    2  A    between atoms: N_4  and  C_9
REMARK    3  A    between atoms: N_5  and  C_11
REMARK    4  A    between atoms: C_7  and  C_10
REMARK    5  A    between atoms: C_9  and  C_13
REMARK    6  A    between atoms: C_11  and  C_14
REMARK                            x       y       z     vdW  Elec       q    Type
REMARK                         _______ _______ _______ _____ _____    ______ ____
ROOT
ATOM      1  N   UNL     1     -16.867  40.566 -11.784  0.00  0.00    +0.000 NA
ATOM      2  C   UNL     1     -18.560  41.795 -12.998  0.00  0.00    +0.000 A 
ATOM      3  C   UNL     1     -17.253  41.581 -12.591  0.00  0.00    +0.000 A 
ATOM      4  C   UNL     1     -19.534  40.911 -12.549  0.00  0.00    +0.000 A 
ATOM      5  C   UNL     1     -19.177  39.854 -11.718  0.00  0.00    +0.000 A 
ATOM      6  C   UNL     1     -17.843  39.727 -11.368  0.00  0.00    +0.000 A 
ENDROOT
BRANCH   2   9
ATOM      7  O   UNL     1     -18.886  44.069 -13.463  0.00  0.00    +0.000 OA
ATOM      8  N   UNL     1     -19.347  42.566 -15.168  0.00  0.00    +0.000 N 
ATOM      9  C   UNL     1     -18.943  42.896 -13.869  0.00  0.00    +0.000 C 
ATOM     10  H   UNL     1     -19.370  41.587 -15.440  0.00  0.00    +0.000 HD
BRANCH   8  11
ATOM     11  C   UNL     1     -19.734  43.547 -16.156  0.00  0.00    +0.000 C 
BRANCH  11  14
ATOM     12  F   UNL     1     -21.945  43.157 -15.454  0.00  0.00    +0.000 F 
ATOM     13  F   UNL     1     -21.334  42.328 -17.375  0.00  0.00    +0.000 F 
ATOM     14  C   UNL     1     -21.185  43.393 -16.551  0.00  0.00    +0.000 C 
ENDBRANCH  11  14
ENDBRANCH   8  11
ENDBRANCH   2   9
BRANCH   3  15
ATOM     15  N   UNL     1     -16.253  42.477 -13.046  0.00  0.00    +0.000 N 
ATOM     16  H   UNL     1     -15.829  42.258 -13.941  0.00  0.00    +0.000 HD
BRANCH  15  17
ATOM     17  C   UNL     1     -15.538  43.343 -12.167  0.00  0.00    +0.000 C 
ATOM     18  C   UNL     1     -15.427  44.729 -12.774  0.00  0.00    +0.000 C 
ENDBRANCH  15  17
ENDBRANCH   3  15
TORSDOF 5
ENDMDL
MODEL 4
REMARK VINA RESULT:    -5.467      4.376      6.167
REMARK INTER + INTRA:          -7.392
REMARK INTER:                  -6.677
REMARK INTRA:                  -0.715
REMARK UNBOUND:                -0.327
REMARK  Name = 115408596
REMARK  6 active torsions:
REMARK  status: ('A' for Active; 'I' for Inactive)
REMARK    1  A    between atoms: N_4  and  C_8
REMARK    2  A    between atoms: N_4  and  C_9
REMARK    3  A    between atoms: N_5  and  C_11
REMARK    4  A    between atoms: C_7  and  C_10
REMARK    5  A    between atoms: C_9  and  C_13
REMARK    6  A    between atoms: C_11  and  C_14
REMARK                            x       y       z     vdW  Elec       q    Type
REMARK                         _______ _______ _______ _____ _____    ______ ____
ROOT
ATOM      1  N   UNL     1     -18.681  45.790 -14.959  0.00  0.00    +0.000 NA
ATOM      2  C   UNL     1     -18.574  43.783 -13.615  0.00  0.00    +0.000 A 
ATOM      3  C   UNL     1     -18.782  44.449 -14.812  0.00  0.00    +0.000 A 
ATOM      4  C   UNL     1     -18.242  44.539 -12.497  0.00  0.00    +0.000 A 
ATOM      5  C   UNL     1     -18.128  45.921 -12.608  0.00  0.00    +0.000 A 
ATOM      6  C   UNL     1     -18.355  46.492 -13.850  0.00  0.00    +0.000 A 
ENDROOT
BRANCH   2   9
ATOM      7  O   UNL     1     -19.782  41.774 -13.663  0.00  0.00    +0.000 OA
ATOM      8  N   UNL     1     -17.516  41.632 -13.192  0.00  0.00    +0.000 N 
ATOM      9  C   UNL     1     -18.688  42.336 -13.489  0.00  0.00    +0.000 C 
ATOM     10  H   UNL     1     -16.651  42.150 -13.064  0.00  0.00    +0.000 HD
BRANCH   8  11
ATOM     11  C   UNL     1     -17.462  40.194 -13.059  0.00  0.00    +0.000 C 
BRANCH  11  14
ATOM     12  F   UNL     1     -16.920  40.868 -10.871  0.00  0.00    +0.000 F 
ATOM     13  F   UNL     1     -15.770  39.231 -11.739  0.00  0.00    +0.000 F 
ATOM     14  C   UNL     1     -17.007  39.781 -11.678  0.00  0.00    +0.000 C 
ENDBRANCH  11  14
ENDBRANCH   8  11
ENDBRANCH   2   9
BRANCH   3  15
ATOM     15  N   UNL     1     -19.119  43.684 -15.956  0.00  0.00    +0.000 N 
ATOM     16  H   UNL     1     -18.408  43.042 -16.292  0.00  0.00    +0.000 HD
BRANCH  15  17
ATOM     17  C   UNL     1     -20.144  44.075 -16.868  0.00  0.00    +0.000 C 
ATOM     18  C   UNL     1     -21.189  42.981 -16.979  0.00  0.00    +0.000 C 
ENDBRANCH  15  17
ENDBRANCH   3  15
TORSDOF 5
ENDMDL
MODEL 5
REMARK VINA RESULT:    -5.416      3.165      4.794
REMARK INTER + INTRA:          -7.327
REMARK INTER:                  -6.695
REMARK INTRA:                  -0.631
REMARK UNBOUND:                -0.327
REMARK  Name = 115408596
REMARK  6 active torsions:
REMARK  status: ('A' for Active; 'I' for Inactive)
REMARK    1  A    between atoms: N_4  and  C_8
REMARK    2  A    between atoms: N_4  and  C_9
REMARK    3  A    between atoms: N_5  and  C_11
REMARK    4  A    between atoms: C_7  and  C_10
REMARK    5  A    between atoms: C_9  and  C_13
REMARK    6  A    between atoms: C_11  and  C_14
REMARK                            x       y       z     vdW  Elec       q    Type
REMARK                         _______ _______ _______ _____ _____    ______ ____
ROOT
ATOM      1  N   UNL     1     -18.486  45.357 -14.205  0.00  0.00    +0.000 NA
ATOM      2  C   UNL     1     -18.103  43.532 -12.665  0.00  0.00    +0.000 A 
ATOM      3  C   UNL     1     -18.475  44.039 -13.900  0.00  0.00    +0.000 A 
ATOM      4  C   UNL     1     -17.717  44.435 -11.680  0.00  0.00    +0.000 A 
ATOM      5  C   UNL     1     -17.715  45.798 -11.956  0.00  0.00    +0.000 A 
ATOM      6  C   UNL     1     -18.104  46.203 -13.222  0.00  0.00    +0.000 A 
ENDROOT
BRANCH   2   9
ATOM      7  O   UNL     1     -17.175  41.382 -12.771  0.00  0.00    +0.000 OA
ATOM      8  N   UNL     1     -19.160  41.618 -11.596  0.00  0.00    +0.000 N 
ATOM      9  C   UNL     1     -18.100  42.107 -12.367  0.00  0.00    +0.000 C 
ATOM     10  H   UNL     1     -19.885  42.263 -11.294  0.00  0.00    +0.000 HD
BRANCH   8  11
ATOM     11  C   UNL     1     -19.285  40.234 -11.198  0.00  0.00    +0.000 C 
BRANCH  11  14
ATOM     12  F   UNL     1     -20.508  39.726  -9.255  0.00  0.00    +0.000 F 
ATOM     13  F   UNL     1     -18.978  41.272  -9.111  0.00  0.00    +0.000 F 
ATOM     14  C   UNL     1     -19.278  40.086  -9.694  0.00  0.00    +0.000 C 
ENDBRANCH  11  14
ENDBRANCH   8  11
ENDBRANCH   2   9
BRANCH   3  15
ATOM     15  N   UNL     1     -18.868  43.125 -14.909  0.00  0.00    +0.000 N 
ATOM     16  H   UNL     1     -18.118  42.652 -15.402  0.00  0.00    +0.000 HD
BRANCH  15  17
ATOM     17  C   UNL     1     -20.146  43.178 -15.540  0.00  0.00    +0.000 C 
ATOM     18  C   UNL     1     -19.990  43.078 -17.046  0.00  0.00    +0.000 C 
ENDBRANCH  15  17
ENDBRANCH   3  15
TORSDOF 5
ENDMDL
