MODEL 1
REMARK VINA RESULT:    -7.195      0.000      0.000
REMARK INTER + INTRA:         -10.925
REMARK INTER:                 -10.139
REMARK INTRA:                  -0.787
REMARK UNBOUND:                -0.787
REMARK  Name = 115486576
REMARK  7 active torsions:
REMARK  status: ('A' for Active; 'I' for Inactive)
REMARK    1  A    between atoms: N_5  and  C_10
REMARK    2  A    between atoms: N_5  and  C_13
REMARK    3  A    between atoms: C_8  and  C_9
REMARK    4  A    between atoms: C_8  and  C_10
REMARK    5  A    between atoms: C_9  and  C_11
REMARK    6  A    between atoms: C_11  and  C_12
REMARK    7  A    between atoms: C_14  and  C_16
REMARK                            x       y       z     vdW  Elec       q    Type
REMARK                         _______ _______ _______ _____ _____    ______ ____
ROOT
ATOM      1  N   UNL     1     -17.600  43.095 -10.265  0.00  0.00    +0.000 NA
ATOM      2  C   UNL     1     -17.664  41.857 -10.805  0.00  0.00    +0.000 A 
ATOM      3  C   UNL     1     -17.723  41.606 -12.167  0.00  0.00    +0.000 A 
ATOM      4  C   UNL     1     -17.717  42.697 -13.029  0.00  0.00    +0.000 A 
ATOM      5  C   UNL     1     -17.653  43.986 -12.512  0.00  0.00    +0.000 A 
ATOM      6  C   UNL     1     -17.596  44.129 -11.135  0.00  0.00    +0.000 A 
ENDROOT
BRANCH   3   9
ATOM      7  O   UNL     1     -18.873  39.651 -12.797  0.00  0.00    +0.000 OA
ATOM      8  N   UNL     1     -16.611  39.687 -13.175  0.00  0.00    +0.000 N 
ATOM      9  C   UNL     1     -17.794  40.260 -12.719  0.00  0.00    +0.000 C 
ATOM     10  H   UNL     1     -15.722  40.173 -13.124  0.00  0.00    +0.000 HD
ATOM     11  H   UNL     1     -16.604  38.754 -13.574  0.00  0.00    +0.000 HD
ENDBRANCH   3   9
BRANCH   2  12
ATOM     12  N   UNL     1     -17.671  40.775  -9.939  0.00  0.00    +0.000 N 
ATOM     13  H   UNL     1     -17.302  39.902 -10.304  0.00  0.00    +0.000 HD
BRANCH  12  14
ATOM     14  C   UNL     1     -18.542  40.671  -8.793  0.00  0.00    +0.000 C 
BRANCH  14  15
ATOM     15  C   UNL     1     -19.898  40.098  -9.195  0.00  0.00    +0.000 C 
BRANCH  15  16
ATOM     16  C   UNL     1     -21.047  40.640  -8.339  0.00  0.00    +0.000 C 
BRANCH  16  17
ATOM     17  C   UNL     1     -20.569  41.764  -7.418  0.00  0.00    +0.000 C 
BRANCH  17  21
ATOM     18  F   UNL     1     -21.215  42.244  -5.191  0.00  0.00    +0.000 F 
ATOM     19  F   UNL     1     -22.105  43.448  -6.783  0.00  0.00    +0.000 F 
ATOM     20  F   UNL     1     -22.709  41.369  -6.517  0.00  0.00    +0.000 F 
ATOM     21  C   UNL     1     -21.657  42.215  -6.467  0.00  0.00    +0.000 C 
ENDBRANCH  17  21
ENDBRANCH  16  17
ENDBRANCH  15  16
ENDBRANCH  14  15
ENDBRANCH  12  14
ENDBRANCH   2  12
TORSDOF 7
ENDMDL
MODEL 2
REMARK VINA RESULT:    -6.892      1.588      2.249
REMARK INTER + INTRA:         -10.499
REMARK INTER:                  -9.702
REMARK INTRA:                  -0.798
REMARK UNBOUND:                -0.787
REMARK  Name = 115486576
REMARK  7 active torsions:
REMARK  status: ('A' for Active; 'I' for Inactive)
REMARK    1  A    between atoms: N_5  and  C_10
REMARK    2  A    between atoms: N_5  and  C_13
REMARK    3  A    between atoms: C_8  and  C_9
REMARK    4  A    between atoms: C_8  and  C_10
REMARK    5  A    between atoms: C_9  and  C_11
REMARK    6  A    between atoms: C_11  and  C_12
REMARK    7  A    between atoms: C_14  and  C_16
REMARK                            x       y       z     vdW  Elec       q    Type
REMARK                         _______ _______ _______ _____ _____    ______ ____
ROOT
ATOM      1  N   UNL     1     -19.736  41.279 -12.619  0.00  0.00    +0.000 NA
ATOM      2  C   UNL     1     -18.611  41.005 -11.921  0.00  0.00    +0.000 A 
ATOM      3  C   UNL     1     -17.399  41.647 -12.117  0.00  0.00    +0.000 A 
ATOM      4  C   UNL     1     -17.339  42.636 -13.093  0.00  0.00    +0.000 A 
ATOM      5  C   UNL     1     -18.474  42.946 -13.833  0.00  0.00    +0.000 A 
ATOM      6  C   UNL     1     -19.638  42.245 -13.559  0.00  0.00    +0.000 A 
ENDROOT
BRANCH   3   9
ATOM      7  O   UNL     1     -15.856  40.151 -11.156  0.00  0.00    +0.000 OA
ATOM      8  N   UNL     1     -15.450  42.388 -10.857  0.00  0.00    +0.000 N 
ATOM      9  C   UNL     1     -16.204  41.328 -11.350  0.00  0.00    +0.000 C 
ATOM     10  H   UNL     1     -15.715  43.355 -11.011  0.00  0.00    +0.000 HD
ATOM     11  H   UNL     1     -14.605  42.223 -10.321  0.00  0.00    +0.000 HD
ENDBRANCH   3   9
BRANCH   2  12
ATOM     12  N   UNL     1     -18.679  40.017 -10.951  0.00  0.00    +0.000 N 
ATOM     13  H   UNL     1     -18.354  39.094 -11.222  0.00  0.00    +0.000 HD
BRANCH  12  14
ATOM     14  C   UNL     1     -19.562  40.074  -9.810  0.00  0.00    +0.000 C 
BRANCH  14  15
ATOM     15  C   UNL     1     -18.841  40.656  -8.597  0.00  0.00    +0.000 C 
BRANCH  15  16
ATOM     16  C   UNL     1     -19.719  41.620  -7.794  0.00  0.00    +0.000 C 
BRANCH  16  17
ATOM     17  C   UNL     1     -21.202  41.283  -7.954  0.00  0.00    +0.000 C 
BRANCH  17  21
ATOM     18  F   UNL     1     -23.096  40.999  -6.562  0.00  0.00    +0.000 F 
ATOM     19  F   UNL     1     -21.293  41.837  -5.655  0.00  0.00    +0.000 F 
ATOM     20  F   UNL     1     -22.480  43.036  -7.037  0.00  0.00    +0.000 F 
ATOM     21  C   UNL     1     -22.025  41.789  -6.788  0.00  0.00    +0.000 C 
ENDBRANCH  17  21
ENDBRANCH  16  17
ENDBRANCH  15  16
ENDBRANCH  14  15
ENDBRANCH  12  14
ENDBRANCH   2  12
TORSDOF 7
ENDMDL
MODEL 3
REMARK VINA RESULT:    -6.214      2.040      2.421
REMARK INTER + INTRA:          -9.544
REMARK INTER:                  -8.689
REMARK INTRA:                  -0.855
REMARK UNBOUND:                -0.787
REMARK  Name = 115486576
REMARK  7 active torsions:
REMARK  status: ('A' for Active; 'I' for Inactive)
REMARK    1  A    between atoms: N_5  and  C_10
REMARK    2  A    between atoms: N_5  and  C_13
REMARK    3  A    between atoms: C_8  and  C_9
REMARK    4  A    between atoms: C_8  and  C_10
REMARK    5  A    between atoms: C_9  and  C_11
REMARK    6  A    between atoms: C_11  and  C_12
REMARK    7  A    between atoms: C_14  and  C_16
REMARK                            x       y       z     vdW  Elec       q    Type
REMARK                         _______ _______ _______ _____ _____    ______ ____
ROOT
ATOM      1  N   UNL     1     -19.441  41.546 -13.269  0.00  0.00    +0.000 NA
ATOM      2  C   UNL     1     -18.261  41.662 -12.619  0.00  0.00    +0.000 A 
ATOM      3  C   UNL     1     -17.431  42.768 -12.708  0.00  0.00    +0.000 A 
ATOM      4  C   UNL     1     -17.839  43.823 -13.516  0.00  0.00    +0.000 A 
ATOM      5  C   UNL     1     -19.046  43.741 -14.201  0.00  0.00    +0.000 A 
ATOM      6  C   UNL     1     -19.803  42.592 -14.045  0.00  0.00    +0.000 A 
ENDROOT
BRANCH   3   9
ATOM      7  O   UNL     1     -16.098  42.691 -10.769  0.00  0.00    +0.000 OA
ATOM      8  N   UNL     1     -15.022  43.132 -12.745  0.00  0.00    +0.000 N 
ATOM      9  C   UNL     1     -16.163  42.862 -11.997  0.00  0.00    +0.000 C 
ATOM     10  H   UNL     1     -15.056  43.268 -13.750  0.00  0.00    +0.000 HD
ATOM     11  H   UNL     1     -14.112  43.203 -12.302  0.00  0.00    +0.000 HD
ENDBRANCH   3   9
BRANCH   2  12
ATOM     12  N   UNL     1     -17.860  40.605 -11.816  0.00  0.00    +0.000 N 
ATOM     13  H   UNL     1     -17.167  39.977 -12.210  0.00  0.00    +0.000 HD
BRANCH  12  14
ATOM     14  C   UNL     1     -18.648  40.085 -10.725  0.00  0.00    +0.000 C 
BRANCH  14  15
ATOM     15  C   UNL     1     -19.085  41.209  -9.789  0.00  0.00    +0.000 C 
BRANCH  15  16
ATOM     16  C   UNL     1     -19.371  40.717  -8.367  0.00  0.00    +0.000 C 
BRANCH  16  17
ATOM     17  C   UNL     1     -19.697  41.883  -7.433  0.00  0.00    +0.000 C 
BRANCH  17  21
ATOM     18  F   UNL     1     -21.205  41.510  -5.646  0.00  0.00    +0.000 F 
ATOM     19  F   UNL     1     -21.742  43.030  -7.121  0.00  0.00    +0.000 F 
ATOM     20  F   UNL     1     -21.833  40.916  -7.648  0.00  0.00    +0.000 F 
ATOM     21  C   UNL     1     -21.132  41.838  -6.954  0.00  0.00    +0.000 C 
ENDBRANCH  17  21
ENDBRANCH  16  17
ENDBRANCH  15  16
ENDBRANCH  14  15
ENDBRANCH  12  14
ENDBRANCH   2  12
TORSDOF 7
ENDMDL
MODEL 4
REMARK VINA RESULT:    -6.210      3.480      5.512
REMARK INTER + INTRA:          -9.538
REMARK INTER:                  -8.612
REMARK INTRA:                  -0.926
REMARK UNBOUND:                -0.787
REMARK  Name = 115486576
REMARK  7 active torsions:
REMARK  status: ('A' for Active; 'I' for Inactive)
REMARK    1  A    between atoms: N_5  and  C_10
REMARK    2  A    between atoms: N_5  and  C_13
REMARK    3  A    between atoms: C_8  and  C_9
REMARK    4  A    between atoms: C_8  and  C_10
REMARK    5  A    between atoms: C_9  and  C_11
REMARK    6  A    between atoms: C_11  and  C_12
REMARK    7  A    between atoms: C_14  and  C_16
REMARK                            x       y       z     vdW  Elec       q    Type
REMARK                         _______ _______ _______ _____ _____    ______ ____
ROOT
ATOM      1  N   UNL     1     -18.483  42.225  -8.295  0.00  0.00    +0.000 NA
ATOM      2  C   UNL     1     -18.401  41.555  -9.466  0.00  0.00    +0.000 A 
ATOM      3  C   UNL     1     -19.361  40.666  -9.921  0.00  0.00    +0.000 A 
ATOM      4  C   UNL     1     -20.478  40.450  -9.121  0.00  0.00    +0.000 A 
ATOM      5  C   UNL     1     -20.598  41.120  -7.908  0.00  0.00    +0.000 A 
ATOM      6  C   UNL     1     -19.583  41.989  -7.545  0.00  0.00    +0.000 A 
ENDROOT
BRANCH   3   9
ATOM      7  O   UNL     1     -18.502  38.968 -11.307  0.00  0.00    +0.000 OA
ATOM      8  N   UNL     1     -20.006  40.414 -12.257  0.00  0.00    +0.000 N 
ATOM      9  C   UNL     1     -19.243  39.957 -11.188  0.00  0.00    +0.000 C 
ATOM     10  H   UNL     1     -20.623  41.216 -12.176  0.00  0.00    +0.000 HD
ATOM     11  H   UNL     1     -19.967  39.954 -13.161  0.00  0.00    +0.000 HD
ENDBRANCH   3   9
BRANCH   2  12
ATOM     12  N   UNL     1     -17.284  41.775 -10.258  0.00  0.00    +0.000 N 
ATOM     13  H   UNL     1     -16.519  41.117 -10.151  0.00  0.00    +0.000 HD
BRANCH  12  14
ATOM     14  C   UNL     1     -16.951  43.055 -10.836  0.00  0.00    +0.000 C 
BRANCH  14  15
ATOM     15  C   UNL     1     -17.971  43.450 -11.901  0.00  0.00    +0.000 C 
BRANCH  15  16
ATOM     16  C   UNL     1     -17.491  44.610 -12.777  0.00  0.00    +0.000 C 
BRANCH  16  17
ATOM     17  C   UNL     1     -18.422  45.818 -12.657  0.00  0.00    +0.000 C 
BRANCH  17  21
ATOM     18  F   UNL     1     -17.573  48.019 -12.464  0.00  0.00    +0.000 F 
ATOM     19  F   UNL     1     -18.681  47.212 -10.763  0.00  0.00    +0.000 F 
ATOM     20  F   UNL     1     -16.680  46.472 -11.214  0.00  0.00    +0.000 F 
ATOM     21  C   UNL     1     -17.838  46.894 -11.767  0.00  0.00    +0.000 C 
ENDBRANCH  17  21
ENDBRANCH  16  17
ENDBRANCH  15  16
ENDBRANCH  14  15
ENDBRANCH  12  14
ENDBRANCH   2  12
TORSDOF 7
ENDMDL
MODEL 5
REMARK VINA RESULT:    -6.147      3.632      5.631
REMARK INTER + INTRA:          -9.448
REMARK INTER:                  -8.070
REMARK INTRA:                  -1.379
REMARK UNBOUND:                -0.787
REMARK  Name = 115486576
REMARK  7 active torsions:
REMARK  status: ('A' for Active; 'I' for Inactive)
REMARK    1  A    between atoms: N_5  and  C_10
REMARK    2  A    between atoms: N_5  and  C_13
REMARK    3  A    between atoms: C_8  and  C_9
REMARK    4  A    between atoms: C_8  and  C_10
REMARK    5  A    between atoms: C_9  and  C_11
REMARK    6  A    between atoms: C_11  and  C_12
REMARK    7  A    between atoms: C_14  and  C_16
REMARK                            x       y       z     vdW  Elec       q    Type
REMARK                         _______ _______ _______ _____ _____    ______ ____
ROOT
ATOM      1  N   UNL     1     -17.282  40.471 -12.323  0.00  0.00    +0.000 NA
ATOM      2  C   UNL     1     -17.408  40.952 -11.066  0.00  0.00    +0.000 A 
ATOM      3  C   UNL     1     -18.442  40.615 -10.206  0.00  0.00    +0.000 A 
ATOM      4  C   UNL     1     -19.407  39.727 -10.668  0.00  0.00    +0.000 A 
ATOM      5  C   UNL     1     -19.312  39.211 -11.956  0.00  0.00    +0.000 A 
ATOM      6  C   UNL     1     -18.239  39.612 -12.736  0.00  0.00    +0.000 A 
ENDROOT
BRANCH   3   9
ATOM      7  O   UNL     1     -18.311  42.345  -8.615  0.00  0.00    +0.000 OA
ATOM      8  N   UNL     1     -18.958  40.284  -7.848  0.00  0.00    +0.000 N 
ATOM      9  C   UNL     1     -18.553  41.151  -8.857  0.00  0.00    +0.000 C 
ATOM     10  H   UNL     1     -19.166  39.307  -8.029  0.00  0.00    +0.000 HD
ATOM     11  H   UNL     1     -19.058  40.606  -6.891  0.00  0.00    +0.000 HD
ENDBRANCH   3   9
BRANCH   2  12
ATOM     12  N   UNL     1     -16.443  41.838 -10.613  0.00  0.00    +0.000 N 
ATOM     13  H   UNL     1     -16.271  41.846  -9.613  0.00  0.00    +0.000 HD
BRANCH  12  14
ATOM     14  C   UNL     1     -16.028  43.012 -11.343  0.00  0.00    +0.000 C 
BRANCH  14  15
ATOM     15  C   UNL     1     -17.174  44.015 -11.451  0.00  0.00    +0.000 C 
BRANCH  15  16
ATOM     16  C   UNL     1     -17.366  44.541 -12.876  0.00  0.00    +0.000 C 
BRANCH  16  17
ATOM     17  C   UNL     1     -18.844  44.548 -13.270  0.00  0.00    +0.000 C 
BRANCH  17  21
ATOM     18  F   UNL     1     -19.829  42.454 -12.772  0.00  0.00    +0.000 F 
ATOM     19  F   UNL     1     -20.233  43.317 -14.737  0.00  0.00    +0.000 F 
ATOM     20  F   UNL     1     -18.260  42.505 -14.286  0.00  0.00    +0.000 F 
ATOM     21  C   UNL     1     -19.301  43.194 -13.769  0.00  0.00    +0.000 C 
ENDBRANCH  17  21
ENDBRANCH  16  17
ENDBRANCH  15  16
ENDBRANCH  14  15
ENDBRANCH  12  14
ENDBRANCH   2  12
TORSDOF 7
ENDMDL
