MODEL 1
REMARK VINA RESULT:    -7.418      0.000      0.000
REMARK INTER + INTRA:         -10.718
REMARK INTER:                 -10.019
REMARK INTRA:                  -0.698
REMARK UNBOUND:                -0.698
REMARK  Name = 115486570
REMARK  6 active torsions:
REMARK  status: ('A' for Active; 'I' for Inactive)
REMARK    1  A    between atoms: N_5  and  C_10
REMARK    2  A    between atoms: C_8  and  C_9
REMARK    3  A    between atoms: C_8  and  C_10
REMARK    4  A    between atoms: C_9  and  C_11
REMARK    5  A    between atoms: C_11  and  C_12
REMARK    6  A    between atoms: C_16  and  C_18
REMARK                            x       y       z     vdW  Elec       q    Type
REMARK                         _______ _______ _______ _____ _____    ______ ____
ROOT
ATOM      1  N   UNL     1     -18.555  40.025 -10.112  0.00  0.00    +0.000 N 
ATOM      2  N   UNL     1     -20.659  40.103  -9.054  0.00  0.00    +0.000 NA
ATOM      3  C   UNL     1     -19.406  40.597  -9.179  0.00  0.00    +0.000 A 
ATOM      4  C   UNL     1     -18.909  41.649  -8.428  0.00  0.00    +0.000 A 
ATOM      5  C   UNL     1     -19.751  42.233  -7.487  0.00  0.00    +0.000 A 
ATOM      6  C   UNL     1     -21.046  41.753  -7.330  0.00  0.00    +0.000 A 
ATOM      7  C   UNL     1     -21.448  40.696  -8.129  0.00  0.00    +0.000 A 
ATOM      8  H   UNL     1     -18.926  39.255 -10.656  0.00  0.00    +0.000 HD
ENDROOT
BRANCH   6  11
ATOM      9  O   UNL     1     -23.185  42.264  -6.485  0.00  0.00    +0.000 OA
ATOM     10  N   UNL     1     -21.388  42.983  -5.254  0.00  0.00    +0.000 N 
ATOM     11  C   UNL     1     -21.949  42.342  -6.356  0.00  0.00    +0.000 C 
ATOM     12  H   UNL     1     -20.398  43.084  -5.074  0.00  0.00    +0.000 HD
ATOM     13  H   UNL     1     -21.997  43.397  -4.555  0.00  0.00    +0.000 HD
ENDBRANCH   6  11
BRANCH   1  14
ATOM     14  C   UNL     1     -17.199  40.465 -10.335  0.00  0.00    +0.000 C 
BRANCH  14  15
ATOM     15  C   UNL     1     -16.607  39.789 -11.568  0.00  0.00    +0.000 C 
BRANCH  15  16
ATOM     16  C   UNL     1     -17.438  40.036 -12.832  0.00  0.00    +0.000 C 
BRANCH  16  17
ATOM     17  C   UNL     1     -17.431  41.514 -13.220  0.00  0.00    +0.000 C 
BRANCH  17  21
ATOM     18  F   UNL     1     -19.176  42.601 -14.391  0.00  0.00    +0.000 F 
ATOM     19  F   UNL     1     -19.742  41.198 -12.816  0.00  0.00    +0.000 F 
ATOM     20  F   UNL     1     -18.875  43.130 -12.298  0.00  0.00    +0.000 F 
ATOM     21  C   UNL     1     -18.821  42.113 -13.185  0.00  0.00    +0.000 C 
ENDBRANCH  17  21
ENDBRANCH  16  17
ENDBRANCH  15  16
ENDBRANCH  14  15
ENDBRANCH   1  14
TORSDOF 6
ENDMDL
MODEL 2
REMARK VINA RESULT:    -6.652      4.265      6.549
REMARK INTER + INTRA:          -9.683
REMARK INTER:                  -9.150
REMARK INTRA:                  -0.533
REMARK UNBOUND:                -0.698
REMARK  Name = 115486570
REMARK  6 active torsions:
REMARK  status: ('A' for Active; 'I' for Inactive)
REMARK    1  A    between atoms: N_5  and  C_10
REMARK    2  A    between atoms: C_8  and  C_9
REMARK    3  A    between atoms: C_8  and  C_10
REMARK    4  A    between atoms: C_9  and  C_11
REMARK    5  A    between atoms: C_11  and  C_12
REMARK    6  A    between atoms: C_16  and  C_18
REMARK                            x       y       z     vdW  Elec       q    Type
REMARK                         _______ _______ _______ _____ _____    ______ ____
ROOT
ATOM      1  N   UNL     1     -17.709  41.732 -10.093  0.00  0.00    +0.000 N 
ATOM      2  N   UNL     1     -17.848  43.406 -11.745  0.00  0.00    +0.000 NA
ATOM      3  C   UNL     1     -18.178  42.164 -11.324  0.00  0.00    +0.000 A 
ATOM      4  C   UNL     1     -18.964  41.283 -12.048  0.00  0.00    +0.000 A 
ATOM      5  C   UNL     1     -19.443  41.703 -13.285  0.00  0.00    +0.000 A 
ATOM      6  C   UNL     1     -19.124  42.974 -13.751  0.00  0.00    +0.000 A 
ATOM      7  C   UNL     1     -18.331  43.779 -12.952  0.00  0.00    +0.000 A 
ATOM      8  H   UNL     1     -17.133  42.382  -9.570  0.00  0.00    +0.000 HD
ENDROOT
BRANCH   6  11
ATOM      9  O   UNL     1     -20.168  42.672 -15.842  0.00  0.00    +0.000 OA
ATOM     10  N   UNL     1     -19.446  44.791 -15.343  0.00  0.00    +0.000 N 
ATOM     11  C   UNL     1     -19.609  43.441 -15.039  0.00  0.00    +0.000 C 
ATOM     12  H   UNL     1     -19.009  45.479 -14.745  0.00  0.00    +0.000 HD
ATOM     13  H   UNL     1     -19.782  45.145 -16.234  0.00  0.00    +0.000 HD
ENDBRANCH   6  11
BRANCH   1  14
ATOM     14  C   UNL     1     -17.993  40.430  -9.539  0.00  0.00    +0.000 C 
BRANCH  14  15
ATOM     15  C   UNL     1     -18.691  40.558  -8.189  0.00  0.00    +0.000 C 
BRANCH  15  16
ATOM     16  C   UNL     1     -20.026  41.306  -8.282  0.00  0.00    +0.000 C 
BRANCH  16  17
ATOM     17  C   UNL     1     -20.162  42.336  -7.160  0.00  0.00    +0.000 C 
BRANCH  17  21
ATOM     18  F   UNL     1     -22.235  43.411  -6.780  0.00  0.00    +0.000 F 
ATOM     19  F   UNL     1     -22.247  41.234  -6.957  0.00  0.00    +0.000 F 
ATOM     20  F   UNL     1     -21.420  42.181  -5.176  0.00  0.00    +0.000 F 
ATOM     21  C   UNL     1     -21.531  42.291  -6.517  0.00  0.00    +0.000 C 
ENDBRANCH  17  21
ENDBRANCH  16  17
ENDBRANCH  15  16
ENDBRANCH  14  15
ENDBRANCH   1  14
TORSDOF 6
ENDMDL
MODEL 3
REMARK VINA RESULT:    -5.964      4.444      6.294
REMARK INTER + INTRA:          -8.754
REMARK INTER:                  -8.180
REMARK INTRA:                  -0.574
REMARK UNBOUND:                -0.698
REMARK  Name = 115486570
REMARK  6 active torsions:
REMARK  status: ('A' for Active; 'I' for Inactive)
REMARK    1  A    between atoms: N_5  and  C_10
REMARK    2  A    between atoms: C_8  and  C_9
REMARK    3  A    between atoms: C_8  and  C_10
REMARK    4  A    between atoms: C_9  and  C_11
REMARK    5  A    between atoms: C_11  and  C_12
REMARK    6  A    between atoms: C_16  and  C_18
REMARK                            x       y       z     vdW  Elec       q    Type
REMARK                         _______ _______ _______ _____ _____    ______ ____
ROOT
ATOM      1  N   UNL     1     -20.220  42.900 -14.684  0.00  0.00    +0.000 N 
ATOM      2  N   UNL     1     -19.943  41.439 -12.856  0.00  0.00    +0.000 NA
ATOM      3  C   UNL     1     -19.398  42.310 -13.736  0.00  0.00    +0.000 A 
ATOM      4  C   UNL     1     -18.058  42.658 -13.755  0.00  0.00    +0.000 A 
ATOM      5  C   UNL     1     -17.220  42.074 -12.809  0.00  0.00    +0.000 A 
ATOM      6  C   UNL     1     -17.744  41.174 -11.888  0.00  0.00    +0.000 A 
ATOM      7  C   UNL     1     -19.098  40.893 -11.952  0.00  0.00    +0.000 A 
ATOM      8  H   UNL     1     -21.199  42.640 -14.664  0.00  0.00    +0.000 HD
ENDROOT
BRANCH   6  11
ATOM      9  O   UNL     1     -17.350  40.167  -9.795  0.00  0.00    +0.000 OA
ATOM     10  N   UNL     1     -15.550  40.366 -11.201  0.00  0.00    +0.000 N 
ATOM     11  C   UNL     1     -16.895  40.548 -10.889  0.00  0.00    +0.000 C 
ATOM     12  H   UNL     1     -15.104  40.641 -12.067  0.00  0.00    +0.000 HD
ATOM     13  H   UNL     1     -14.935  39.925 -10.524  0.00  0.00    +0.000 HD
ENDBRANCH   6  11
BRANCH   1  14
ATOM     14  C   UNL     1     -19.755  43.842 -15.674  0.00  0.00    +0.000 C 
BRANCH  14  15
ATOM     15  C   UNL     1     -19.816  43.232 -17.071  0.00  0.00    +0.000 C 
BRANCH  15  16
ATOM     16  C   UNL     1     -21.249  42.929 -17.522  0.00  0.00    +0.000 C 
BRANCH  16  17
ATOM     17  C   UNL     1     -21.897  44.156 -18.164  0.00  0.00    +0.000 C 
BRANCH  17  21
ATOM     18  F   UNL     1     -24.071  45.012 -17.791  0.00  0.00    +0.000 F 
ATOM     19  F   UNL     1     -23.028  44.134 -16.085  0.00  0.00    +0.000 F 
ATOM     20  F   UNL     1     -22.395  46.064 -16.877  0.00  0.00    +0.000 F 
ATOM     21  C   UNL     1     -22.860  44.844 -17.221  0.00  0.00    +0.000 C 
ENDBRANCH  17  21
ENDBRANCH  16  17
ENDBRANCH  15  16
ENDBRANCH  14  15
ENDBRANCH   1  14
TORSDOF 6
ENDMDL
MODEL 4
REMARK VINA RESULT:    -5.775      4.408      6.196
REMARK INTER + INTRA:          -8.498
REMARK INTER:                  -7.518
REMARK INTRA:                  -0.980
REMARK UNBOUND:                -0.698
REMARK  Name = 115486570
REMARK  6 active torsions:
REMARK  status: ('A' for Active; 'I' for Inactive)
REMARK    1  A    between atoms: N_5  and  C_10
REMARK    2  A    between atoms: C_8  and  C_9
REMARK    3  A    between atoms: C_8  and  C_10
REMARK    4  A    between atoms: C_9  and  C_11
REMARK    5  A    between atoms: C_11  and  C_12
REMARK    6  A    between atoms: C_16  and  C_18
REMARK                            x       y       z     vdW  Elec       q    Type
REMARK                         _______ _______ _______ _____ _____    ______ ____
ROOT
ATOM      1  N   UNL     1     -17.639  44.758 -14.268  0.00  0.00    +0.000 N 
ATOM      2  N   UNL     1     -16.913  42.789 -13.196  0.00  0.00    +0.000 NA
ATOM      3  C   UNL     1     -17.930  43.534 -13.684  0.00  0.00    +0.000 A 
ATOM      4  C   UNL     1     -19.261  43.154 -13.639  0.00  0.00    +0.000 A 
ATOM      5  C   UNL     1     -19.569  41.929 -13.056  0.00  0.00    +0.000 A 
ATOM      6  C   UNL     1     -18.550  41.134 -12.545  0.00  0.00    +0.000 A 
ATOM      7  C   UNL     1     -17.251  41.604 -12.638  0.00  0.00    +0.000 A 
ATOM      8  H   UNL     1     -16.663  45.029 -14.295  0.00  0.00    +0.000 HD
ENDROOT
BRANCH   6  11
ATOM      9  O   UNL     1     -18.150  39.407 -10.993  0.00  0.00    +0.000 OA
ATOM     10  N   UNL     1     -19.933  39.132 -12.409  0.00  0.00    +0.000 N 
ATOM     11  C   UNL     1     -18.839  39.850 -11.930  0.00  0.00    +0.000 C 
ATOM     12  H   UNL     1     -20.544  39.424 -13.160  0.00  0.00    +0.000 HD
ATOM     13  H   UNL     1     -20.162  38.235 -11.993  0.00  0.00    +0.000 HD
ENDBRANCH   6  11
BRANCH   1  14
ATOM     14  C   UNL     1     -18.638  45.640 -14.821  0.00  0.00    +0.000 C 
BRANCH  14  15
ATOM     15  C   UNL     1     -18.297  46.006 -16.262  0.00  0.00    +0.000 C 
BRANCH  15  16
ATOM     16  C   UNL     1     -19.027  45.128 -17.284  0.00  0.00    +0.000 C 
BRANCH  16  17
ATOM     17  C   UNL     1     -20.487  44.912 -16.885  0.00  0.00    +0.000 C 
BRANCH  17  21
ATOM     18  F   UNL     1     -19.785  42.652 -16.862  0.00  0.00    +0.000 F 
ATOM     19  F   UNL     1     -21.687  43.125 -15.900  0.00  0.00    +0.000 F 
ATOM     20  F   UNL     1     -21.524  43.163 -18.073  0.00  0.00    +0.000 F 
ATOM     21  C   UNL     1     -20.872  43.448 -16.926  0.00  0.00    +0.000 C 
ENDBRANCH  17  21
ENDBRANCH  16  17
ENDBRANCH  15  16
ENDBRANCH  14  15
ENDBRANCH   1  14
TORSDOF 6
ENDMDL
MODEL 5
REMARK VINA RESULT:    -5.505      4.719      6.499
REMARK INTER + INTRA:          -8.135
REMARK INTER:                  -7.637
REMARK INTRA:                  -0.498
REMARK UNBOUND:                -0.698
REMARK  Name = 115486570
REMARK  6 active torsions:
REMARK  status: ('A' for Active; 'I' for Inactive)
REMARK    1  A    between atoms: N_5  and  C_10
REMARK    2  A    between atoms: C_8  and  C_9
REMARK    3  A    between atoms: C_8  and  C_10
REMARK    4  A    between atoms: C_9  and  C_11
REMARK    5  A    between atoms: C_11  and  C_12
REMARK    6  A    between atoms: C_16  and  C_18
REMARK                            x       y       z     vdW  Elec       q    Type
REMARK                         _______ _______ _______ _____ _____    ______ ____
ROOT
ATOM      1  N   UNL     1     -19.321  44.273 -14.526  0.00  0.00    +0.000 N 
ATOM      2  N   UNL     1     -19.613  42.149 -13.548  0.00  0.00    +0.000 NA
ATOM      3  C   UNL     1     -18.805  43.200 -13.816  0.00  0.00    +0.000 A 
ATOM      4  C   UNL     1     -17.479  43.279 -13.423  0.00  0.00    +0.000 A 
ATOM      5  C   UNL     1     -16.947  42.209 -12.709  0.00  0.00    +0.000 A 
ATOM      6  C   UNL     1     -17.747  41.111 -12.415  0.00  0.00    +0.000 A 
ATOM      7  C   UNL     1     -19.060  41.129 -12.853  0.00  0.00    +0.000 A 
ATOM      8  H   UNL     1     -20.292  44.207 -14.810  0.00  0.00    +0.000 HD
ENDROOT
BRANCH   6  11
ATOM      9  O   UNL     1     -17.959  39.255 -10.980  0.00  0.00    +0.000 OA
ATOM     10  N   UNL     1     -15.856  39.714 -11.773  0.00  0.00    +0.000 N 
ATOM     11  C   UNL     1     -17.220  39.979 -11.672  0.00  0.00    +0.000 C 
ATOM     12  H   UNL     1     -15.192  40.249 -12.317  0.00  0.00    +0.000 HD
ATOM     13  H   UNL     1     -15.463  38.925 -11.270  0.00  0.00    +0.000 HD
ENDBRANCH   6  11
BRANCH   1  14
ATOM     14  C   UNL     1     -18.557  45.447 -14.871  0.00  0.00    +0.000 C 
BRANCH  14  15
ATOM     15  C   UNL     1     -19.031  46.029 -16.200  0.00  0.00    +0.000 C 
BRANCH  15  16
ATOM     16  C   UNL     1     -19.836  45.024 -17.031  0.00  0.00    +0.000 C 
BRANCH  16  17
ATOM     17  C   UNL     1     -21.300  45.449 -17.146  0.00  0.00    +0.000 C 
BRANCH  17  21
ATOM     18  F   UNL     1     -22.175  43.599 -15.958  0.00  0.00    +0.000 F 
ATOM     19  F   UNL     1     -23.515  44.636 -17.336  0.00  0.00    +0.000 F 
ATOM     20  F   UNL     1     -21.905  43.387 -18.110  0.00  0.00    +0.000 F 
ATOM     21  C   UNL     1     -22.235  44.259 -17.133  0.00  0.00    +0.000 C 
ENDBRANCH  17  21
ENDBRANCH  16  17
ENDBRANCH  15  16
ENDBRANCH  14  15
ENDBRANCH   1  14
TORSDOF 6
ENDMDL
