MODEL 1
REMARK VINA RESULT:    -6.183      0.000      0.000
REMARK INTER + INTRA:          -8.577
REMARK INTER:                  -7.990
REMARK INTRA:                  -0.587
REMARK UNBOUND:                -0.587
REMARK  Name = 115408581
REMARK  6 active torsions:
REMARK  status: ('A' for Active; 'I' for Inactive)
REMARK    1  A    between atoms: N_4  and  C_7
REMARK    2  A    between atoms: N_5  and  C_14
REMARK    3  A    between atoms: C_7  and  C_8
REMARK    4  A    between atoms: C_8  and  C_11
REMARK    5  A    between atoms: C_10  and  C_15
REMARK    6  A    between atoms: C_14  and  C_17
REMARK                            x       y       z     vdW  Elec       q    Type
REMARK                         _______ _______ _______ _____ _____    ______ ____
ROOT
ATOM      1  N   UNL     1     -17.743  41.614  -9.797  0.00  0.00    +0.000 N 
ATOM      2  N   UNL     1     -17.491  43.163 -11.554  0.00  0.00    +0.000 NA
ATOM      3  C   UNL     1     -18.129  42.087 -11.041  0.00  0.00    +0.000 A 
ATOM      4  C   UNL     1     -18.922  42.981 -13.495  0.00  0.00    +0.000 A 
ATOM      5  C   UNL     1     -19.156  41.415 -11.684  0.00  0.00    +0.000 A 
ATOM      6  C   UNL     1     -19.554  41.877 -12.934  0.00  0.00    +0.000 A 
ATOM      7  C   UNL     1     -17.905  43.583 -12.770  0.00  0.00    +0.000 A 
ATOM      8  H   UNL     1     -16.989  42.108  -9.335  0.00  0.00    +0.000 HD
ENDROOT
BRANCH   4  11
ATOM      9  O   UNL     1     -18.941  44.612 -15.179  0.00  0.00    +0.000 OA
ATOM     10  N   UNL     1     -20.104  42.650 -15.596  0.00  0.00    +0.000 N 
ATOM     11  C   UNL     1     -19.315  43.488 -14.797  0.00  0.00    +0.000 C 
ATOM     12  H   UNL     1     -20.336  41.716 -15.275  0.00  0.00    +0.000 HD
BRANCH  10  13
ATOM     13  C   UNL     1     -20.555  43.002 -16.923  0.00  0.00    +0.000 C 
BRANCH  13  16
ATOM     14  F   UNL     1     -21.686  45.063 -16.885  0.00  0.00    +0.000 F 
ATOM     15  F   UNL     1     -22.547  43.418 -15.743  0.00  0.00    +0.000 F 
ATOM     16  C   UNL     1     -21.883  43.723 -16.884  0.00  0.00    +0.000 C 
ENDBRANCH  13  16
ENDBRANCH  10  13
ENDBRANCH   4  11
BRANCH   1  17
ATOM     17  C   UNL     1     -18.349  40.476  -9.149  0.00  0.00    +0.000 C 
BRANCH  17  18
ATOM     18  C   UNL     1     -19.228  40.921  -7.985  0.00  0.00    +0.000 C 
ATOM     19  C   UNL     1     -20.714  40.834  -8.300  0.00  0.00    +0.000 C 
ENDBRANCH  17  18
ENDBRANCH   1  17
TORSDOF 5
ENDMDL
MODEL 2
REMARK VINA RESULT:    -5.582      3.597      6.638
REMARK INTER + INTRA:          -7.800
REMARK INTER:                  -7.357
REMARK INTRA:                  -0.443
REMARK UNBOUND:                -0.587
REMARK  Name = 115408581
REMARK  6 active torsions:
REMARK  status: ('A' for Active; 'I' for Inactive)
REMARK    1  A    between atoms: N_4  and  C_7
REMARK    2  A    between atoms: N_5  and  C_14
REMARK    3  A    between atoms: C_7  and  C_8
REMARK    4  A    between atoms: C_8  and  C_11
REMARK    5  A    between atoms: C_10  and  C_15
REMARK    6  A    between atoms: C_14  and  C_17
REMARK                            x       y       z     vdW  Elec       q    Type
REMARK                         _______ _______ _______ _____ _____    ______ ____
ROOT
ATOM      1  N   UNL     1     -18.977  44.873 -15.865  0.00  0.00    +0.000 N 
ATOM      2  N   UNL     1     -18.156  44.678 -13.665  0.00  0.00    +0.000 NA
ATOM      3  C   UNL     1     -18.847  44.141 -14.696  0.00  0.00    +0.000 A 
ATOM      4  C   UNL     1     -18.619  42.662 -12.413  0.00  0.00    +0.000 A 
ATOM      5  C   UNL     1     -19.443  42.890 -14.662  0.00  0.00    +0.000 A 
ATOM      6  C   UNL     1     -19.321  42.143 -13.495  0.00  0.00    +0.000 A 
ATOM      7  C   UNL     1     -18.059  43.923 -12.548  0.00  0.00    +0.000 A 
ATOM      8  H   UNL     1     -18.541  45.788 -15.881  0.00  0.00    +0.000 HD
ENDROOT
BRANCH   4  11
ATOM      9  O   UNL     1     -17.558  42.169 -10.381  0.00  0.00    +0.000 OA
ATOM     10  N   UNL     1     -19.417  40.900 -10.937  0.00  0.00    +0.000 N 
ATOM     11  C   UNL     1     -18.474  41.906 -11.182  0.00  0.00    +0.000 C 
ATOM     12  H   UNL     1     -20.186  40.758 -11.584  0.00  0.00    +0.000 HD
BRANCH  10  13
ATOM     13  C   UNL     1     -19.421  40.079  -9.748  0.00  0.00    +0.000 C 
BRANCH  13  16
ATOM     14  F   UNL     1     -19.711  40.631  -7.480  0.00  0.00    +0.000 F 
ATOM     15  F   UNL     1     -21.448  39.889  -8.568  0.00  0.00    +0.000 F 
ATOM     16  C   UNL     1     -20.332  40.649  -8.684  0.00  0.00    +0.000 C 
ENDBRANCH  13  16
ENDBRANCH  10  13
ENDBRANCH   4  11
BRANCH   1  17
ATOM     17  C   UNL     1     -19.689  44.405 -17.029  0.00  0.00    +0.000 C 
BRANCH  17  18
ATOM     18  C   UNL     1     -21.037  45.109 -17.157  0.00  0.00    +0.000 C 
ATOM     19  C   UNL     1     -22.215  44.178 -16.909  0.00  0.00    +0.000 C 
ENDBRANCH  17  18
ENDBRANCH   1  17
TORSDOF 5
ENDMDL
MODEL 3
REMARK VINA RESULT:    -5.393      3.142      3.880
REMARK INTER + INTRA:          -7.557
REMARK INTER:                  -7.073
REMARK INTRA:                  -0.484
REMARK UNBOUND:                -0.587
REMARK  Name = 115408581
REMARK  6 active torsions:
REMARK  status: ('A' for Active; 'I' for Inactive)
REMARK    1  A    between atoms: N_4  and  C_7
REMARK    2  A    between atoms: N_5  and  C_14
REMARK    3  A    between atoms: C_7  and  C_8
REMARK    4  A    between atoms: C_8  and  C_11
REMARK    5  A    between atoms: C_10  and  C_15
REMARK    6  A    between atoms: C_14  and  C_17
REMARK                            x       y       z     vdW  Elec       q    Type
REMARK                         _______ _______ _______ _____ _____    ______ ____
ROOT
ATOM      1  N   UNL     1     -19.989  40.281 -10.203  0.00  0.00    +0.000 N 
ATOM      2  N   UNL     1     -19.188  41.311 -12.166  0.00  0.00    +0.000 NA
ATOM      3  C   UNL     1     -19.131  41.177 -10.822  0.00  0.00    +0.000 A 
ATOM      4  C   UNL     1     -17.423  42.953 -11.995  0.00  0.00    +0.000 A 
ATOM      5  C   UNL     1     -18.260  41.885 -10.009  0.00  0.00    +0.000 A 
ATOM      6  C   UNL     1     -17.393  42.788 -10.614  0.00  0.00    +0.000 A 
ATOM      7  C   UNL     1     -18.331  42.197 -12.719  0.00  0.00    +0.000 A 
ATOM      8  H   UNL     1     -20.625  39.770 -10.805  0.00  0.00    +0.000 HD
ENDROOT
BRANCH   4  11
ATOM      9  O   UNL     1     -15.425  43.511 -13.088  0.00  0.00    +0.000 OA
ATOM     10  N   UNL     1     -16.980  45.206 -12.800  0.00  0.00    +0.000 N 
ATOM     11  C   UNL     1     -16.530  43.887 -12.656  0.00  0.00    +0.000 C 
ATOM     12  H   UNL     1     -17.912  45.460 -12.491  0.00  0.00    +0.000 HD
BRANCH  10  13
ATOM     13  C   UNL     1     -16.218  46.245 -13.456  0.00  0.00    +0.000 C 
BRANCH  13  16
ATOM     14  F   UNL     1     -17.628  45.585 -15.220  0.00  0.00    +0.000 F 
ATOM     15  F   UNL     1     -15.491  45.717 -15.630  0.00  0.00    +0.000 F 
ATOM     16  C   UNL     1     -16.506  46.291 -14.940  0.00  0.00    +0.000 C 
ENDBRANCH  13  16
ENDBRANCH  10  13
ENDBRANCH   4  11
BRANCH   1  17
ATOM     17  C   UNL     1     -20.020  40.054  -8.779  0.00  0.00    +0.000 C 
BRANCH  17  18
ATOM     18  C   UNL     1     -21.109  40.894  -8.121  0.00  0.00    +0.000 C 
ATOM     19  C   UNL     1     -20.565  41.843  -7.063  0.00  0.00    +0.000 C 
ENDBRANCH  17  18
ENDBRANCH   1  17
TORSDOF 5
ENDMDL
MODEL 4
REMARK VINA RESULT:    -5.358      1.957      2.442
REMARK INTER + INTRA:          -7.510
REMARK INTER:                  -7.139
REMARK INTRA:                  -0.371
REMARK UNBOUND:                -0.587
REMARK  Name = 115408581
REMARK  6 active torsions:
REMARK  status: ('A' for Active; 'I' for Inactive)
REMARK    1  A    between atoms: N_4  and  C_7
REMARK    2  A    between atoms: N_5  and  C_14
REMARK    3  A    between atoms: C_7  and  C_8
REMARK    4  A    between atoms: C_8  and  C_11
REMARK    5  A    between atoms: C_10  and  C_15
REMARK    6  A    between atoms: C_14  and  C_17
REMARK                            x       y       z     vdW  Elec       q    Type
REMARK                         _______ _______ _______ _____ _____    ______ ____
ROOT
ATOM      1  N   UNL     1     -19.487  40.324 -11.473  0.00  0.00    +0.000 N 
ATOM      2  N   UNL     1     -19.787  41.619 -13.419  0.00  0.00    +0.000 NA
ATOM      3  C   UNL     1     -19.206  41.466 -12.207  0.00  0.00    +0.000 A 
ATOM      4  C   UNL     1     -18.625  43.731 -13.615  0.00  0.00    +0.000 A 
ATOM      5  C   UNL     1     -18.338  42.386 -11.641  0.00  0.00    +0.000 A 
ATOM      6  C   UNL     1     -18.047  43.537 -12.366  0.00  0.00    +0.000 A 
ATOM      7  C   UNL     1     -19.480  42.750 -14.093  0.00  0.00    +0.000 A 
ATOM      8  H   UNL     1     -20.125  39.658 -11.893  0.00  0.00    +0.000 HD
ENDROOT
BRANCH   4  11
ATOM      9  O   UNL     1     -17.255  45.518 -14.269  0.00  0.00    +0.000 OA
ATOM     10  N   UNL     1     -19.325  45.343 -15.298  0.00  0.00    +0.000 N 
ATOM     11  C   UNL     1     -18.340  44.922 -14.395  0.00  0.00    +0.000 C 
ATOM     12  H   UNL     1     -20.171  44.794 -15.417  0.00  0.00    +0.000 HD
BRANCH  10  13
ATOM     13  C   UNL     1     -19.182  46.493 -16.160  0.00  0.00    +0.000 C 
BRANCH  13  16
ATOM     14  F   UNL     1     -21.360  45.900 -16.822  0.00  0.00    +0.000 F 
ATOM     15  F   UNL     1     -19.784  45.792 -18.324  0.00  0.00    +0.000 F 
ATOM     16  C   UNL     1     -20.225  46.499 -17.255  0.00  0.00    +0.000 C 
ENDBRANCH  13  16
ENDBRANCH  10  13
ENDBRANCH   4  11
BRANCH   1  17
ATOM     17  C   UNL     1     -18.929  40.051 -10.172  0.00  0.00    +0.000 C 
BRANCH  17  18
ATOM     18  C   UNL     1     -19.996  40.174  -9.089  0.00  0.00    +0.000 C 
ATOM     19  C   UNL     1     -19.489  40.876  -7.837  0.00  0.00    +0.000 C 
ENDBRANCH  17  18
ENDBRANCH   1  17
TORSDOF 5
ENDMDL
MODEL 5
REMARK VINA RESULT:    -5.117      5.612      6.383
REMARK INTER + INTRA:          -7.199
REMARK INTER:                  -7.262
REMARK INTRA:                   0.062
REMARK UNBOUND:                -0.587
REMARK  Name = 115408581
REMARK  6 active torsions:
REMARK  status: ('A' for Active; 'I' for Inactive)
REMARK    1  A    between atoms: N_4  and  C_7
REMARK    2  A    between atoms: N_5  and  C_14
REMARK    3  A    between atoms: C_7  and  C_8
REMARK    4  A    between atoms: C_8  and  C_11
REMARK    5  A    between atoms: C_10  and  C_15
REMARK    6  A    between atoms: C_14  and  C_17
REMARK                            x       y       z     vdW  Elec       q    Type
REMARK                         _______ _______ _______ _____ _____    ______ ____
ROOT
ATOM      1  N   UNL     1     -19.667  39.943  -9.525  0.00  0.00    +0.000 N 
ATOM      2  N   UNL     1     -17.751  39.926 -10.897  0.00  0.00    +0.000 NA
ATOM      3  C   UNL     1     -18.605  40.617 -10.108  0.00  0.00    +0.000 A 
ATOM      4  C   UNL     1     -16.530  41.986 -11.234  0.00  0.00    +0.000 A 
ATOM      5  C   UNL     1     -18.489  41.971  -9.839  0.00  0.00    +0.000 A 
ATOM      6  C   UNL     1     -17.428  42.661 -10.416  0.00  0.00    +0.000 A 
ATOM      7  C   UNL     1     -16.733  40.630 -11.440  0.00  0.00    +0.000 A 
ATOM      8  H   UNL     1     -19.746  38.954  -9.730  0.00  0.00    +0.000 HD
ENDROOT
BRANCH   4  11
ATOM      9  O   UNL     1     -15.568  43.315 -12.909  0.00  0.00    +0.000 OA
ATOM     10  N   UNL     1     -14.178  42.610 -11.192  0.00  0.00    +0.000 N 
ATOM     11  C   UNL     1     -15.412  42.678 -11.851  0.00  0.00    +0.000 C 
ATOM     12  H   UNL     1     -14.106  42.133 -10.300  0.00  0.00    +0.000 HD
BRANCH  10  13
ATOM     13  C   UNL     1     -12.980  43.264 -11.667  0.00  0.00    +0.000 C 
BRANCH  13  16
ATOM     14  F   UNL     1     -11.794  41.567 -10.549  0.00  0.00    +0.000 F 
ATOM     15  F   UNL     1     -10.640  43.021 -11.692  0.00  0.00    +0.000 F 
ATOM     16  C   UNL     1     -11.799  42.319 -11.676  0.00  0.00    +0.000 C 
ENDBRANCH  13  16
ENDBRANCH  10  13
ENDBRANCH   4  11
BRANCH   1  17
ATOM     17  C   UNL     1     -20.641  40.572  -8.667  0.00  0.00    +0.000 C 
BRANCH  17  18
ATOM     18  C   UNL     1     -20.004  40.995  -7.347  0.00  0.00    +0.000 C 
ATOM     19  C   UNL     1     -20.863  41.979  -6.565  0.00  0.00    +0.000 C 
ENDBRANCH  17  18
ENDBRANCH   1  17
TORSDOF 5
ENDMDL
