MODEL 1
REMARK VINA RESULT:    -6.098      0.000      0.000
REMARK INTER + INTRA:          -7.749
REMARK INTER:                  -7.345
REMARK INTRA:                  -0.404
REMARK UNBOUND:                -0.404
REMARK  Name = 115408583
REMARK  4 active torsions:
REMARK  status: ('A' for Active; 'I' for Inactive)
REMARK    1  A    between atoms: N_4  and  C_7
REMARK    2  A    between atoms: N_6  and  C_10
REMARK    3  A    between atoms: C_7  and  C_11
REMARK    4  A    between atoms: C_8  and  C_9
REMARK                            x       y       z     vdW  Elec       q    Type
REMARK                         _______ _______ _______ _____ _____    ______ ____
ROOT
ATOM      1  N   UNL     1     -18.270  41.817 -13.374  0.00  0.00    +0.000 NA
ATOM      2  C   UNL     1     -18.378  41.453 -10.987  0.00  0.00    +0.000 A 
ATOM      3  C   UNL     1     -18.840  41.264 -12.280  0.00  0.00    +0.000 A 
ATOM      4  C   UNL     1     -17.260  42.260 -10.806  0.00  0.00    +0.000 A 
ATOM      5  C   UNL     1     -16.646  42.845 -11.908  0.00  0.00    +0.000 A 
ATOM      6  C   UNL     1     -17.185  42.594 -13.159  0.00  0.00    +0.000 A 
ENDROOT
BRANCH   2   9
ATOM      7  O   UNL     1     -19.394  39.659  -9.869  0.00  0.00    +0.000 OA
ATOM      8  N   UNL     1     -19.136  41.635  -8.682  0.00  0.00    +0.000 N 
ATOM      9  C   UNL     1     -19.011  40.841  -9.826  0.00  0.00    +0.000 C 
ATOM     10  H   UNL     1     -18.785  42.587  -8.703  0.00  0.00    +0.000 HD
BRANCH   8  11
ATOM     11  C   UNL     1     -19.719  41.164  -7.445  0.00  0.00    +0.000 C 
BRANCH  11  14
ATOM     12  F   UNL     1     -21.406  41.654  -5.880  0.00  0.00    +0.000 F 
ATOM     13  F   UNL     1     -22.020  41.244  -7.932  0.00  0.00    +0.000 F 
ATOM     14  C   UNL     1     -21.054  41.823  -7.177  0.00  0.00    +0.000 C 
ENDBRANCH  11  14
ENDBRANCH   8  11
ENDBRANCH   2   9
BRANCH   3  15
ATOM     15  N   UNL     1     -19.977  40.441 -12.472  0.00  0.00    +0.000 N 
ATOM     16  H   UNL     1     -20.370  39.961 -11.671  0.00  0.00    +0.000 HD
ATOM     17  H   UNL     1     -20.062  39.992 -13.376  0.00  0.00    +0.000 HD
ENDBRANCH   3  15
TORSDOF 4
ENDMDL
MODEL 2
REMARK VINA RESULT:    -6.061      1.691      2.250
REMARK INTER + INTRA:          -7.705
REMARK INTER:                  -7.324
REMARK INTRA:                  -0.381
REMARK UNBOUND:                -0.404
REMARK  Name = 115408583
REMARK  4 active torsions:
REMARK  status: ('A' for Active; 'I' for Inactive)
REMARK    1  A    between atoms: N_4  and  C_7
REMARK    2  A    between atoms: N_6  and  C_10
REMARK    3  A    between atoms: C_7  and  C_11
REMARK    4  A    between atoms: C_8  and  C_9
REMARK                            x       y       z     vdW  Elec       q    Type
REMARK                         _______ _______ _______ _____ _____    ______ ____
ROOT
ATOM      1  N   UNL     1     -17.175  41.512 -12.010  0.00  0.00    +0.000 NA
ATOM      2  C   UNL     1     -18.765  40.546 -10.465  0.00  0.00    +0.000 A 
ATOM      3  C   UNL     1     -17.784  41.464 -10.804  0.00  0.00    +0.000 A 
ATOM      4  C   UNL     1     -19.146  39.617 -11.427  0.00  0.00    +0.000 A 
ATOM      5  C   UNL     1     -18.544  39.634 -12.681  0.00  0.00    +0.000 A 
ATOM      6  C   UNL     1     -17.573  40.593 -12.919  0.00  0.00    +0.000 A 
ENDROOT
BRANCH   2   9
ATOM      7  O   UNL     1     -18.721  40.425  -8.124  0.00  0.00    +0.000 OA
ATOM      8  N   UNL     1     -20.799  40.634  -9.133  0.00  0.00    +0.000 N 
ATOM      9  C   UNL     1     -19.405  40.521  -9.157  0.00  0.00    +0.000 C 
ATOM     10  H   UNL     1     -21.301  40.729 -10.010  0.00  0.00    +0.000 HD
BRANCH   8  11
ATOM     11  C   UNL     1     -21.576  40.648  -7.914  0.00  0.00    +0.000 C 
BRANCH  11  14
ATOM     12  F   UNL     1     -21.014  41.815  -5.949  0.00  0.00    +0.000 F 
ATOM     13  F   UNL     1     -22.707  42.549  -7.112  0.00  0.00    +0.000 F 
ATOM     14  C   UNL     1     -21.478  41.984  -7.211  0.00  0.00    +0.000 C 
ENDBRANCH  11  14
ENDBRANCH   8  11
ENDBRANCH   2   9
BRANCH   3  15
ATOM     15  N   UNL     1     -17.393  42.416  -9.829  0.00  0.00    +0.000 N 
ATOM     16  H   UNL     1     -18.111  42.882  -9.290  0.00  0.00    +0.000 HD
ATOM     17  H   UNL     1     -16.539  42.928 -10.015  0.00  0.00    +0.000 HD
ENDBRANCH   3  15
TORSDOF 4
ENDMDL
MODEL 3
REMARK VINA RESULT:    -5.927      3.343      5.101
REMARK INTER + INTRA:          -7.544
REMARK INTER:                  -7.026
REMARK INTRA:                  -0.517
REMARK UNBOUND:                -0.404
REMARK  Name = 115408583
REMARK  4 active torsions:
REMARK  status: ('A' for Active; 'I' for Inactive)
REMARK    1  A    between atoms: N_4  and  C_7
REMARK    2  A    between atoms: N_6  and  C_10
REMARK    3  A    between atoms: C_7  and  C_11
REMARK    4  A    between atoms: C_8  and  C_9
REMARK                            x       y       z     vdW  Elec       q    Type
REMARK                         _______ _______ _______ _____ _____    ______ ____
ROOT
ATOM      1  N   UNL     1     -21.055  40.363  -8.668  0.00  0.00    +0.000 NA
ATOM      2  C   UNL     1     -18.843  41.183  -9.195  0.00  0.00    +0.000 A 
ATOM      3  C   UNL     1     -19.948  40.384  -9.443  0.00  0.00    +0.000 A 
ATOM      4  C   UNL     1     -18.878  42.015  -8.081  0.00  0.00    +0.000 A 
ATOM      5  C   UNL     1     -20.001  42.022  -7.260  0.00  0.00    +0.000 A 
ATOM      6  C   UNL     1     -21.053  41.186  -7.595  0.00  0.00    +0.000 A 
ENDROOT
BRANCH   2   9
ATOM      7  O   UNL     1     -17.117  40.117 -10.370  0.00  0.00    +0.000 OA
ATOM      8  N   UNL     1     -17.209  42.430 -10.497  0.00  0.00    +0.000 N 
ATOM      9  C   UNL     1     -17.663  41.186 -10.050  0.00  0.00    +0.000 C 
ATOM     10  H   UNL     1     -17.711  43.267 -10.216  0.00  0.00    +0.000 HD
BRANCH   8  11
ATOM     11  C   UNL     1     -16.067  42.596 -11.368  0.00  0.00    +0.000 C 
BRANCH  11  14
ATOM     12  F   UNL     1     -17.543  43.587 -12.910  0.00  0.00    +0.000 F 
ATOM     13  F   UNL     1     -16.896  41.541 -13.301  0.00  0.00    +0.000 F 
ATOM     14  C   UNL     1     -16.490  42.739 -12.813  0.00  0.00    +0.000 C 
ENDBRANCH  11  14
ENDBRANCH   8  11
ENDBRANCH   2   9
BRANCH   3  15
ATOM     15  N   UNL     1     -19.920  39.536 -10.578  0.00  0.00    +0.000 N 
ATOM     16  H   UNL     1     -20.006  38.537 -10.440  0.00  0.00    +0.000 HD
ATOM     17  H   UNL     1     -19.369  39.855 -11.366  0.00  0.00    +0.000 HD
ENDBRANCH   3  15
TORSDOF 4
ENDMDL
MODEL 4
REMARK VINA RESULT:    -5.570      3.682      5.419
REMARK INTER + INTRA:          -7.114
REMARK INTER:                  -6.653
REMARK INTRA:                  -0.461
REMARK UNBOUND:                -0.404
REMARK  Name = 115408583
REMARK  4 active torsions:
REMARK  status: ('A' for Active; 'I' for Inactive)
REMARK    1  A    between atoms: N_4  and  C_7
REMARK    2  A    between atoms: N_6  and  C_10
REMARK    3  A    between atoms: C_7  and  C_11
REMARK    4  A    between atoms: C_8  and  C_9
REMARK                            x       y       z     vdW  Elec       q    Type
REMARK                         _______ _______ _______ _____ _____    ______ ____
ROOT
ATOM      1  N   UNL     1     -19.535  39.705 -10.068  0.00  0.00    +0.000 NA
ATOM      2  C   UNL     1     -18.568  41.434 -11.453  0.00  0.00    +0.000 A 
ATOM      3  C   UNL     1     -19.251  40.242 -11.276  0.00  0.00    +0.000 A 
ATOM      4  C   UNL     1     -18.151  42.121 -10.318  0.00  0.00    +0.000 A 
ATOM      5  C   UNL     1     -18.425  41.601  -9.058  0.00  0.00    +0.000 A 
ATOM      6  C   UNL     1     -19.114  40.401  -8.988  0.00  0.00    +0.000 A 
ENDROOT
BRANCH   2   9
ATOM      7  O   UNL     1     -17.403  41.480 -13.487  0.00  0.00    +0.000 OA
ATOM      8  N   UNL     1     -19.044  43.088 -13.174  0.00  0.00    +0.000 N 
ATOM      9  C   UNL     1     -18.279  41.990 -12.769  0.00  0.00    +0.000 C 
ATOM     10  H   UNL     1     -19.760  43.447 -12.550  0.00  0.00    +0.000 HD
BRANCH   8  11
ATOM     11  C   UNL     1     -18.892  43.735 -14.458  0.00  0.00    +0.000 C 
BRANCH  11  14
ATOM     12  F   UNL     1     -20.186  44.173 -16.374  0.00  0.00    +0.000 F 
ATOM     13  F   UNL     1     -21.055  42.891 -14.839  0.00  0.00    +0.000 F 
ATOM     14  C   UNL     1     -19.895  43.213 -15.463  0.00  0.00    +0.000 C 
ENDBRANCH  11  14
ENDBRANCH   8  11
ENDBRANCH   2   9
BRANCH   3  15
ATOM     15  N   UNL     1     -19.682  39.539 -12.429  0.00  0.00    +0.000 N 
ATOM     16  H   UNL     1     -19.377  39.864 -13.337  0.00  0.00    +0.000 HD
ATOM     17  H   UNL     1     -20.587  39.088 -12.370  0.00  0.00    +0.000 HD
ENDBRANCH   3  15
TORSDOF 4
ENDMDL
MODEL 5
REMARK VINA RESULT:    -5.506      1.929      2.422
REMARK INTER + INTRA:          -7.037
REMARK INTER:                  -6.646
REMARK INTRA:                  -0.391
REMARK UNBOUND:                -0.404
REMARK  Name = 115408583
REMARK  4 active torsions:
REMARK  status: ('A' for Active; 'I' for Inactive)
REMARK    1  A    between atoms: N_4  and  C_7
REMARK    2  A    between atoms: N_6  and  C_10
REMARK    3  A    between atoms: C_7  and  C_11
REMARK    4  A    between atoms: C_8  and  C_9
REMARK                            x       y       z     vdW  Elec       q    Type
REMARK                         _______ _______ _______ _____ _____    ______ ____
ROOT
ATOM      1  N   UNL     1     -17.767  44.483 -13.790  0.00  0.00    +0.000 NA
ATOM      2  C   UNL     1     -18.040  42.426 -12.550  0.00  0.00    +0.000 A 
ATOM      3  C   UNL     1     -18.525  43.462 -13.332  0.00  0.00    +0.000 A 
ATOM      4  C   UNL     1     -16.689  42.438 -12.218  0.00  0.00    +0.000 A 
ATOM      5  C   UNL     1     -15.877  43.472 -12.672  0.00  0.00    +0.000 A 
ATOM      6  C   UNL     1     -16.459  44.461 -13.448  0.00  0.00    +0.000 A 
ENDROOT
BRANCH   2   9
ATOM      7  O   UNL     1     -19.604  40.708 -12.865  0.00  0.00    +0.000 OA
ATOM      8  N   UNL     1     -18.809  41.032 -10.711  0.00  0.00    +0.000 N 
ATOM      9  C   UNL     1     -18.881  41.336 -12.073  0.00  0.00    +0.000 C 
ATOM     10  H   UNL     1     -18.184  41.569 -10.118  0.00  0.00    +0.000 HD
BRANCH   8  11
ATOM     11  C   UNL     1     -19.564  39.965 -10.092  0.00  0.00    +0.000 C 
BRANCH  11  14
ATOM     12  F   UNL     1     -19.448  40.118  -7.747  0.00  0.00    +0.000 F 
ATOM     13  F   UNL     1     -21.408  39.783  -8.642  0.00  0.00    +0.000 F 
ATOM     14  C   UNL     1     -20.226  40.425  -8.813  0.00  0.00    +0.000 C 
ENDBRANCH  11  14
ENDBRANCH   8  11
ENDBRANCH   2   9
BRANCH   3  15
ATOM     15  N   UNL     1     -19.900  43.454 -13.677  0.00  0.00    +0.000 N 
ATOM     16  H   UNL     1     -20.499  44.177 -13.298  0.00  0.00    +0.000 HD
ATOM     17  H   UNL     1     -20.314  42.548 -13.858  0.00  0.00    +0.000 HD
ENDBRANCH   3  15
TORSDOF 4
ENDMDL
