MODEL 1
REMARK VINA RESULT:    -6.305      0.000      0.000
REMARK INTER + INTRA:          -7.928
REMARK INTER:                  -7.779
REMARK INTRA:                  -0.149
REMARK UNBOUND:                -0.149
REMARK  Name = 115408627
REMARK  5 active torsions:
REMARK  status: ('A' for Active; 'I' for Inactive)
REMARK    1  A    between atoms: N_4  and  C_8
REMARK    2  A    between atoms: N_5  and  C_9
REMARK    3  A    between atoms: N_5  and  C_15
REMARK    4  A    between atoms: C_7  and  C_10
REMARK    5  A    between atoms: C_8  and  C_12
REMARK                            x       y       z     vdW  Elec       q    Type
REMARK                         _______ _______ _______ _____ _____    ______ ____
ROOT
ATOM      1  N   UNL     1     -17.137  40.680 -12.294  0.00  0.00    +0.000 NA
ATOM      2  C   UNL     1     -18.479  40.987 -10.307  0.00  0.00    +0.000 A 
ATOM      3  C   UNL     1     -17.394  41.289 -11.115  0.00  0.00    +0.000 A 
ATOM      4  C   UNL     1     -19.356  39.997 -10.736  0.00  0.00    +0.000 A 
ATOM      5  C   UNL     1     -19.124  39.348 -11.943  0.00  0.00    +0.000 A 
ATOM      6  C   UNL     1     -18.010  39.722 -12.678  0.00  0.00    +0.000 A 
ENDROOT
BRANCH   2   9
ATOM      7  O   UNL     1     -18.029  42.628  -8.692  0.00  0.00    +0.000 OA
ATOM      8  N   UNL     1     -19.803  41.193  -8.275  0.00  0.00    +0.000 N 
ATOM      9  C   UNL     1     -18.733  41.665  -9.041  0.00  0.00    +0.000 C 
ATOM     10  H   UNL     1     -20.342  40.402  -8.618  0.00  0.00    +0.000 HD
BRANCH   8  11
ATOM     11  C   UNL     1     -20.195  41.774  -7.010  0.00  0.00    +0.000 C 
BRANCH  11  14
ATOM     12  F   UNL     1     -22.290  41.093  -7.835  0.00  0.00    +0.000 F 
ATOM     13  F   UNL     1     -22.121  43.123  -7.056  0.00  0.00    +0.000 F 
ATOM     14  C   UNL     1     -21.698  41.848  -6.877  0.00  0.00    +0.000 C 
ENDBRANCH  11  14
ENDBRANCH   8  11
ENDBRANCH   2   9
BRANCH   3  15
ATOM     15  N   UNL     1     -16.498  42.299 -10.685  0.00  0.00    +0.000 N 
ATOM     16  C   UNL     1     -16.072  43.362 -11.535  0.00  0.00    +0.000 C 
ATOM     17  H   UNL     1     -16.386  42.426  -9.685  0.00  0.00    +0.000 HD
ENDBRANCH   3  15
TORSDOF 4
ENDMDL
MODEL 2
REMARK VINA RESULT:    -5.907      4.429      5.605
REMARK INTER + INTRA:          -7.437
REMARK INTER:                  -6.854
REMARK INTRA:                  -0.582
REMARK UNBOUND:                -0.149
REMARK  Name = 115408627
REMARK  5 active torsions:
REMARK  status: ('A' for Active; 'I' for Inactive)
REMARK    1  A    between atoms: N_4  and  C_8
REMARK    2  A    between atoms: N_5  and  C_9
REMARK    3  A    between atoms: N_5  and  C_15
REMARK    4  A    between atoms: C_7  and  C_10
REMARK    5  A    between atoms: C_8  and  C_12
REMARK                            x       y       z     vdW  Elec       q    Type
REMARK                         _______ _______ _______ _____ _____    ______ ____
ROOT
ATOM      1  N   UNL     1     -16.876  40.503 -11.796  0.00  0.00    +0.000 NA
ATOM      2  C   UNL     1     -18.584  41.795 -12.918  0.00  0.00    +0.000 A 
ATOM      3  C   UNL     1     -17.266  41.539 -12.571  0.00  0.00    +0.000 A 
ATOM      4  C   UNL     1     -19.563  40.932 -12.438  0.00  0.00    +0.000 A 
ATOM      5  C   UNL     1     -19.199  39.855 -11.638  0.00  0.00    +0.000 A 
ATOM      6  C   UNL     1     -17.855  39.686 -11.347  0.00  0.00    +0.000 A 
ENDROOT
BRANCH   2   9
ATOM      7  O   UNL     1     -18.960  44.077 -13.309  0.00  0.00    +0.000 OA
ATOM      8  N   UNL     1     -19.334  42.626 -15.079  0.00  0.00    +0.000 N 
ATOM      9  C   UNL     1     -18.974  42.918 -13.760  0.00  0.00    +0.000 C 
ATOM     10  H   UNL     1     -19.322  41.657 -15.388  0.00  0.00    +0.000 HD
BRANCH   8  11
ATOM     11  C   UNL     1     -19.721  43.632 -16.042  0.00  0.00    +0.000 C 
BRANCH  11  14
ATOM     12  F   UNL     1     -21.963  43.170 -15.501  0.00  0.00    +0.000 F 
ATOM     13  F   UNL     1     -21.171  42.313 -17.343  0.00  0.00    +0.000 F 
ATOM     14  C   UNL     1     -21.129  43.406 -16.543  0.00  0.00    +0.000 C 
ENDBRANCH  11  14
ENDBRANCH   8  11
ENDBRANCH   2   9
BRANCH   3  15
ATOM     15  N   UNL     1     -16.263  42.413 -13.060  0.00  0.00    +0.000 N 
ATOM     16  C   UNL     1     -15.592  43.357 -12.227  0.00  0.00    +0.000 C 
ATOM     17  H   UNL     1     -15.822  42.168 -13.939  0.00  0.00    +0.000 HD
ENDBRANCH   3  15
TORSDOF 4
ENDMDL
MODEL 3
REMARK VINA RESULT:    -5.900      3.497      5.334
REMARK INTER + INTRA:          -7.428
REMARK INTER:                  -7.034
REMARK INTRA:                  -0.394
REMARK UNBOUND:                -0.149
REMARK  Name = 115408627
REMARK  5 active torsions:
REMARK  status: ('A' for Active; 'I' for Inactive)
REMARK    1  A    between atoms: N_4  and  C_8
REMARK    2  A    between atoms: N_5  and  C_9
REMARK    3  A    between atoms: N_5  and  C_15
REMARK    4  A    between atoms: C_7  and  C_10
REMARK    5  A    between atoms: C_8  and  C_12
REMARK                            x       y       z     vdW  Elec       q    Type
REMARK                         _______ _______ _______ _____ _____    ______ ____
ROOT
ATOM      1  N   UNL     1     -20.752  39.944  -9.146  0.00  0.00    +0.000 NA
ATOM      2  C   UNL     1     -18.598  41.002  -9.440  0.00  0.00    +0.000 A 
ATOM      3  C   UNL     1     -19.596  40.121  -9.825  0.00  0.00    +0.000 A 
ATOM      4  C   UNL     1     -18.799  41.749  -8.285  0.00  0.00    +0.000 A 
ATOM      5  C   UNL     1     -19.975  41.595  -7.560  0.00  0.00    +0.000 A 
ATOM      6  C   UNL     1     -20.912  40.687  -8.028  0.00  0.00    +0.000 A 
ENDROOT
BRANCH   2   9
ATOM      7  O   UNL     1     -16.681  40.186 -10.518  0.00  0.00    +0.000 OA
ATOM      8  N   UNL     1     -17.015  42.481 -10.549  0.00  0.00    +0.000 N 
ATOM      9  C   UNL     1     -17.364  41.174 -10.196  0.00  0.00    +0.000 C 
ATOM     10  H   UNL     1     -17.618  43.246 -10.257  0.00  0.00    +0.000 HD
BRANCH   8  11
ATOM     11  C   UNL     1     -15.836  42.812 -11.316  0.00  0.00    +0.000 C 
BRANCH  11  14
ATOM     12  F   UNL     1     -16.791  42.240 -13.389  0.00  0.00    +0.000 F 
ATOM     13  F   UNL     1     -15.071  43.581 -13.404  0.00  0.00    +0.000 F 
ATOM     14  C   UNL     1     -16.193  43.254 -12.717  0.00  0.00    +0.000 C 
ENDBRANCH  11  14
ENDBRANCH   8  11
ENDBRANCH   2   9
BRANCH   3  15
ATOM     15  N   UNL     1     -19.400  39.358 -11.004  0.00  0.00    +0.000 N 
ATOM     16  C   UNL     1     -19.617  39.890 -12.309  0.00  0.00    +0.000 C 
ATOM     17  H   UNL     1     -18.831  38.523 -10.927  0.00  0.00    +0.000 HD
ENDBRANCH   3  15
TORSDOF 4
ENDMDL
MODEL 4
REMARK VINA RESULT:    -5.655      2.146      3.355
REMARK INTER + INTRA:          -7.126
REMARK INTER:                  -6.606
REMARK INTRA:                  -0.520
REMARK UNBOUND:                -0.149
REMARK  Name = 115408627
REMARK  5 active torsions:
REMARK  status: ('A' for Active; 'I' for Inactive)
REMARK    1  A    between atoms: N_4  and  C_8
REMARK    2  A    between atoms: N_5  and  C_9
REMARK    3  A    between atoms: N_5  and  C_15
REMARK    4  A    between atoms: C_7  and  C_10
REMARK    5  A    between atoms: C_8  and  C_12
REMARK                            x       y       z     vdW  Elec       q    Type
REMARK                         _______ _______ _______ _____ _____    ______ ____
ROOT
ATOM      1  N   UNL     1     -17.203  43.537 -13.534  0.00  0.00    +0.000 NA
ATOM      2  C   UNL     1     -17.332  42.205 -11.521  0.00  0.00    +0.000 A 
ATOM      3  C   UNL     1     -17.856  42.688 -12.709  0.00  0.00    +0.000 A 
ATOM      4  C   UNL     1     -16.056  42.619 -11.156  0.00  0.00    +0.000 A 
ATOM      5  C   UNL     1     -15.353  43.492 -11.979  0.00  0.00    +0.000 A 
ATOM      6  C   UNL     1     -15.965  43.918 -13.146  0.00  0.00    +0.000 A 
ENDROOT
BRANCH   2   9
ATOM      7  O   UNL     1     -18.571  40.254 -11.119  0.00  0.00    +0.000 OA
ATOM      8  N   UNL     1     -18.125  41.617  -9.296  0.00  0.00    +0.000 N 
ATOM      9  C   UNL     1     -18.059  41.287 -10.654  0.00  0.00    +0.000 C 
ATOM     10  H   UNL     1     -17.683  42.475  -8.977  0.00  0.00    +0.000 HD
BRANCH   8  11
ATOM     11  C   UNL     1     -18.788  40.798  -8.308  0.00  0.00    +0.000 C 
BRANCH  11  14
ATOM     12  F   UNL     1     -20.571  41.330  -6.868  0.00  0.00    +0.000 F 
ATOM     13  F   UNL     1     -21.027  40.163  -8.653  0.00  0.00    +0.000 F 
ATOM     14  C   UNL     1     -20.249  41.164  -8.174  0.00  0.00    +0.000 C 
ENDBRANCH  11  14
ENDBRANCH   8  11
ENDBRANCH   2   9
BRANCH   3  15
ATOM     15  N   UNL     1     -19.155  42.267 -13.089  0.00  0.00    +0.000 N 
ATOM     16  C   UNL     1     -19.895  42.900 -14.132  0.00  0.00    +0.000 C 
ATOM     17  H   UNL     1     -19.441  41.335 -12.812  0.00  0.00    +0.000 HD
ENDBRANCH   3  15
TORSDOF 4
ENDMDL
MODEL 5
REMARK VINA RESULT:    -5.432      2.642      3.355
REMARK INTER + INTRA:          -6.850
REMARK INTER:                  -6.347
REMARK INTRA:                  -0.503
REMARK UNBOUND:                -0.149
REMARK  Name = 115408627
REMARK  5 active torsions:
REMARK  status: ('A' for Active; 'I' for Inactive)
REMARK    1  A    between atoms: N_4  and  C_8
REMARK    2  A    between atoms: N_5  and  C_9
REMARK    3  A    between atoms: N_5  and  C_15
REMARK    4  A    between atoms: C_7  and  C_10
REMARK    5  A    between atoms: C_8  and  C_12
REMARK                            x       y       z     vdW  Elec       q    Type
REMARK                         _______ _______ _______ _____ _____    ______ ____
ROOT
ATOM      1  N   UNL     1     -17.340  44.505 -13.387  0.00  0.00    +0.000 NA
ATOM      2  C   UNL     1     -18.251  42.406 -12.604  0.00  0.00    +0.000 A 
ATOM      3  C   UNL     1     -17.325  43.437 -12.558  0.00  0.00    +0.000 A 
ATOM      4  C   UNL     1     -19.256  42.476 -13.561  0.00  0.00    +0.000 A 
ATOM      5  C   UNL     1     -19.304  43.559 -14.431  0.00  0.00    +0.000 A 
ATOM      6  C   UNL     1     -18.332  44.538 -14.305  0.00  0.00    +0.000 A 
ENDROOT
BRANCH   2   9
ATOM      7  O   UNL     1     -17.213  40.528 -11.657  0.00  0.00    +0.000 OA
ATOM      8  N   UNL     1     -19.322  41.081 -10.866  0.00  0.00    +0.000 N 
ATOM      9  C   UNL     1     -18.210  41.269 -11.693  0.00  0.00    +0.000 C 
ATOM     10  H   UNL     1     -20.105  41.725 -10.942  0.00  0.00    +0.000 HD
BRANCH   8  11
ATOM     11  C   UNL     1     -19.423  40.015  -9.895  0.00  0.00    +0.000 C 
BRANCH  11  14
ATOM     12  F   UNL     1     -19.527  40.345  -7.568  0.00  0.00    +0.000 F 
ATOM     13  F   UNL     1     -21.312  39.585  -8.562  0.00  0.00    +0.000 F 
ATOM     14  C   UNL     1     -20.260  40.426  -8.706  0.00  0.00    +0.000 C 
ENDBRANCH  11  14
ENDBRANCH   8  11
ENDBRANCH   2   9
BRANCH   3  15
ATOM     15  N   UNL     1     -16.299  43.374 -11.582  0.00  0.00    +0.000 N 
ATOM     16  C   UNL     1     -14.915  43.475 -11.913  0.00  0.00    +0.000 C 
ATOM     17  H   UNL     1     -16.563  43.544 -10.618  0.00  0.00    +0.000 HD
ENDBRANCH   3  15
TORSDOF 4
ENDMDL
