MODEL 1
REMARK VINA RESULT:    -7.154      0.000      0.000
REMARK INTER + INTRA:          -9.780
REMARK INTER:                  -9.245
REMARK INTRA:                  -0.535
REMARK UNBOUND:                -0.535
REMARK  Name = 115522092
REMARK  5 active torsions:
REMARK  status: ('A' for Active; 'I' for Inactive)
REMARK    1  A    between atoms: N_5  and  C_9
REMARK    2  A    between atoms: C_8  and  C_9
REMARK    3  A    between atoms: C_8  and  C_10
REMARK    4  A    between atoms: C_10  and  C_11
REMARK    5  A    between atoms: C_12  and  C_13
REMARK                            x       y       z     vdW  Elec       q    Type
REMARK                         _______ _______ _______ _____ _____    ______ ____
ROOT
ATOM      1  O   UNL     1     -19.372  39.141 -10.804  0.00  0.00    +0.000 OA
ATOM      2  N   UNL     1     -17.489  40.464 -10.517  0.00  0.00    +0.000 N 
ATOM      3  C   UNL     1     -18.772  40.029 -10.205  0.00  0.00    +0.000 C 
ATOM      4  H   UNL     1     -17.071  41.239 -10.014  0.00  0.00    +0.000 HD
ENDROOT
BRANCH   3   7
ATOM      5  N   UNL     1     -19.302  42.293  -7.242  0.00  0.00    +0.000 NA
ATOM      6  N   UNL     1     -21.232  42.713  -5.909  0.00  0.00    +0.000 N 
ATOM      7  C   UNL     1     -19.442  40.725  -9.078  0.00  0.00    +0.000 A 
ATOM      8  C   UNL     1     -20.782  40.493  -8.786  0.00  0.00    +0.000 A 
ATOM      9  C   UNL     1     -18.752  41.626  -8.282  0.00  0.00    +0.000 A 
ATOM     10  C   UNL     1     -21.382  41.161  -7.724  0.00  0.00    +0.000 A 
ATOM     11  C   UNL     1     -20.606  42.041  -6.989  0.00  0.00    +0.000 A 
ATOM     12  H   UNL     1     -22.229  42.882  -5.960  0.00  0.00    +0.000 HD
ATOM     13  H   UNL     1     -20.662  43.361  -5.379  0.00  0.00    +0.000 HD
ENDBRANCH   3   7
BRANCH   2  14
ATOM     14  C   UNL     1     -16.721  39.905 -11.596  0.00  0.00    +0.000 C 
BRANCH  14  15
ATOM     15  C   UNL     1     -17.238  40.334 -12.966  0.00  0.00    +0.000 C 
BRANCH  15  16
ATOM     16  C   UNL     1     -17.282  41.856 -13.125  0.00  0.00    +0.000 C 
BRANCH  16  20
ATOM     17  F   UNL     1     -18.904  43.526 -12.764  0.00  0.00    +0.000 F 
ATOM     18  F   UNL     1     -18.895  42.550 -14.713  0.00  0.00    +0.000 F 
ATOM     19  F   UNL     1     -19.612  41.473 -12.953  0.00  0.00    +0.000 F 
ATOM     20  C   UNL     1     -18.687  42.351 -13.395  0.00  0.00    +0.000 C 
ENDBRANCH  16  20
ENDBRANCH  15  16
ENDBRANCH  14  15
ENDBRANCH   2  14
TORSDOF 5
ENDMDL
MODEL 2
REMARK VINA RESULT:    -7.110      1.724      2.290
REMARK INTER + INTRA:          -9.724
REMARK INTER:                  -9.027
REMARK INTRA:                  -0.697
REMARK UNBOUND:                -0.535
REMARK  Name = 115522092
REMARK  5 active torsions:
REMARK  status: ('A' for Active; 'I' for Inactive)
REMARK    1  A    between atoms: N_5  and  C_9
REMARK    2  A    between atoms: C_8  and  C_9
REMARK    3  A    between atoms: C_8  and  C_10
REMARK    4  A    between atoms: C_10  and  C_11
REMARK    5  A    between atoms: C_12  and  C_13
REMARK                            x       y       z     vdW  Elec       q    Type
REMARK                         _______ _______ _______ _____ _____    ______ ____
ROOT
ATOM      1  O   UNL     1     -17.981  40.390  -9.241  0.00  0.00    +0.000 OA
ATOM      2  N   UNL     1     -19.884  39.780 -10.417  0.00  0.00    +0.000 N 
ATOM      3  C   UNL     1     -19.202  40.392  -9.372  0.00  0.00    +0.000 C 
ATOM      4  H   UNL     1     -20.898  39.775 -10.437  0.00  0.00    +0.000 HD
ENDROOT
BRANCH   3   7
ATOM      5  N   UNL     1     -22.228  41.432  -7.385  0.00  0.00    +0.000 NA
ATOM      6  N   UNL     1     -22.460  42.912  -5.533  0.00  0.00    +0.000 N 
ATOM      7  C   UNL     1     -20.040  41.068  -8.350  0.00  0.00    +0.000 A 
ATOM      8  C   UNL     1     -19.479  41.941  -7.425  0.00  0.00    +0.000 A 
ATOM      9  C   UNL     1     -21.408  40.849  -8.289  0.00  0.00    +0.000 A 
ATOM     10  C   UNL     1     -20.291  42.559  -6.480  0.00  0.00    +0.000 A 
ATOM     11  C   UNL     1     -21.646  42.274  -6.502  0.00  0.00    +0.000 A 
ATOM     12  H   UNL     1     -22.041  43.173  -4.648  0.00  0.00    +0.000 HD
ATOM     13  H   UNL     1     -23.449  42.695  -5.549  0.00  0.00    +0.000 HD
ENDBRANCH   3   7
BRANCH   2  14
ATOM     14  C   UNL     1     -19.214  39.065 -11.469  0.00  0.00    +0.000 C 
BRANCH  14  15
ATOM     15  C   UNL     1     -18.925  39.945 -12.682  0.00  0.00    +0.000 C 
BRANCH  15  16
ATOM     16  C   UNL     1     -17.441  40.303 -12.805  0.00  0.00    +0.000 C 
BRANCH  16  20
ATOM     17  F   UNL     1     -16.791  42.465 -13.481  0.00  0.00    +0.000 F 
ATOM     18  F   UNL     1     -18.282  42.321 -11.896  0.00  0.00    +0.000 F 
ATOM     19  F   UNL     1     -16.195  41.822 -11.485  0.00  0.00    +0.000 F 
ATOM     20  C   UNL     1     -17.177  41.740 -12.407  0.00  0.00    +0.000 C 
ENDBRANCH  16  20
ENDBRANCH  15  16
ENDBRANCH  14  15
ENDBRANCH   2  14
TORSDOF 5
ENDMDL
MODEL 3
REMARK VINA RESULT:    -6.393      3.989      6.363
REMARK INTER + INTRA:          -8.797
REMARK INTER:                  -8.508
REMARK INTRA:                  -0.289
REMARK UNBOUND:                -0.535
REMARK  Name = 115522092
REMARK  5 active torsions:
REMARK  status: ('A' for Active; 'I' for Inactive)
REMARK    1  A    between atoms: N_5  and  C_9
REMARK    2  A    between atoms: C_8  and  C_9
REMARK    3  A    between atoms: C_8  and  C_10
REMARK    4  A    between atoms: C_10  and  C_11
REMARK    5  A    between atoms: C_12  and  C_13
REMARK                            x       y       z     vdW  Elec       q    Type
REMARK                         _______ _______ _______ _____ _____    ______ ____
ROOT
ATOM      1  O   UNL     1     -18.932  40.978 -11.158  0.00  0.00    +0.000 OA
ATOM      2  N   UNL     1     -18.121  41.542  -9.060  0.00  0.00    +0.000 N 
ATOM      3  C   UNL     1     -18.189  41.646 -10.445  0.00  0.00    +0.000 C 
ATOM      4  H   UNL     1     -17.447  42.088  -8.535  0.00  0.00    +0.000 HD
ENDROOT
BRANCH   3   7
ATOM      5  N   UNL     1     -15.051  43.153 -11.883  0.00  0.00    +0.000 NA
ATOM      6  N   UNL     1     -14.624  45.302 -12.818  0.00  0.00    +0.000 N 
ATOM      7  C   UNL     1     -17.267  42.627 -11.072  0.00  0.00    +0.000 A 
ATOM      8  C   UNL     1     -17.708  43.896 -11.434  0.00  0.00    +0.000 A 
ATOM      9  C   UNL     1     -15.941  42.308 -11.316  0.00  0.00    +0.000 A 
ATOM     10  C   UNL     1     -16.821  44.792 -12.020  0.00  0.00    +0.000 A 
ATOM     11  C   UNL     1     -15.516  44.377 -12.221  0.00  0.00    +0.000 A 
ATOM     12  H   UNL     1     -15.005  46.003 -13.443  0.00  0.00    +0.000 HD
ATOM     13  H   UNL     1     -13.672  44.992 -12.969  0.00  0.00    +0.000 HD
ENDBRANCH   3   7
BRANCH   2  14
ATOM     14  C   UNL     1     -18.932  40.621  -8.310  0.00  0.00    +0.000 C 
BRANCH  14  15
ATOM     15  C   UNL     1     -20.310  41.187  -7.982  0.00  0.00    +0.000 C 
BRANCH  15  16
ATOM     16  C   UNL     1     -20.294  42.087  -6.744  0.00  0.00    +0.000 C 
BRANCH  16  20
ATOM     17  F   UNL     1     -22.484  41.291  -6.396  0.00  0.00    +0.000 F 
ATOM     18  F   UNL     1     -21.689  42.695  -4.931  0.00  0.00    +0.000 F 
ATOM     19  F   UNL     1     -22.259  43.395  -6.920  0.00  0.00    +0.000 F 
ATOM     20  C   UNL     1     -21.692  42.375  -6.241  0.00  0.00    +0.000 C 
ENDBRANCH  16  20
ENDBRANCH  15  16
ENDBRANCH  14  15
ENDBRANCH   2  14
TORSDOF 5
ENDMDL
MODEL 4
REMARK VINA RESULT:    -5.754      3.734      6.279
REMARK INTER + INTRA:          -7.971
REMARK INTER:                  -7.629
REMARK INTRA:                  -0.342
REMARK UNBOUND:                -0.535
REMARK  Name = 115522092
REMARK  5 active torsions:
REMARK  status: ('A' for Active; 'I' for Inactive)
REMARK    1  A    between atoms: N_5  and  C_9
REMARK    2  A    between atoms: C_8  and  C_9
REMARK    3  A    between atoms: C_8  and  C_10
REMARK    4  A    between atoms: C_10  and  C_11
REMARK    5  A    between atoms: C_12  and  C_13
REMARK                            x       y       z     vdW  Elec       q    Type
REMARK                         _______ _______ _______ _____ _____    ______ ____
ROOT
ATOM      1  O   UNL     1     -19.748  41.973 -13.598  0.00  0.00    +0.000 OA
ATOM      2  N   UNL     1     -18.558  41.471 -11.671  0.00  0.00    +0.000 N 
ATOM      3  C   UNL     1     -18.805  42.182 -12.840  0.00  0.00    +0.000 C 
ATOM      4  H   UNL     1     -17.730  41.661 -11.118  0.00  0.00    +0.000 HD
ENDROOT
BRANCH   3   7
ATOM      5  N   UNL     1     -17.376  45.392 -14.196  0.00  0.00    +0.000 NA
ATOM      6  N   UNL     1     -15.159  46.266 -14.159  0.00  0.00    +0.000 N 
ATOM      7  C   UNL     1     -17.825  43.246 -13.177  0.00  0.00    +0.000 A 
ATOM      8  C   UNL     1     -16.486  43.129 -12.818  0.00  0.00    +0.000 A 
ATOM      9  C   UNL     1     -18.216  44.388 -13.859  0.00  0.00    +0.000 A 
ATOM     10  C   UNL     1     -15.593  44.142 -13.148  0.00  0.00    +0.000 A 
ATOM     11  C   UNL     1     -16.082  45.242 -13.831  0.00  0.00    +0.000 A 
ATOM     12  H   UNL     1     -14.350  46.394 -13.565  0.00  0.00    +0.000 HD
ATOM     13  H   UNL     1     -15.524  47.072 -14.654  0.00  0.00    +0.000 HD
ENDBRANCH   3   7
BRANCH   2  14
ATOM     14  C   UNL     1     -19.402  40.396 -11.225  0.00  0.00    +0.000 C 
BRANCH  14  15
ATOM     15  C   UNL     1     -19.219  40.085  -9.742  0.00  0.00    +0.000 C 
BRANCH  15  16
ATOM     16  C   UNL     1     -20.476  40.384  -8.922  0.00  0.00    +0.000 C 
BRANCH  16  20
ATOM     17  F   UNL     1     -19.258  42.288  -8.257  0.00  0.00    +0.000 F 
ATOM     18  F   UNL     1     -21.326  42.140  -7.581  0.00  0.00    +0.000 F 
ATOM     19  F   UNL     1     -19.793  40.854  -6.705  0.00  0.00    +0.000 F 
ATOM     20  C   UNL     1     -20.215  41.424  -7.853  0.00  0.00    +0.000 C 
ENDBRANCH  16  20
ENDBRANCH  15  16
ENDBRANCH  14  15
ENDBRANCH   2  14
TORSDOF 5
ENDMDL
MODEL 5
REMARK VINA RESULT:    -5.667      4.118      5.661
REMARK INTER + INTRA:          -7.858
REMARK INTER:                  -7.479
REMARK INTRA:                  -0.379
REMARK UNBOUND:                -0.535
REMARK  Name = 115522092
REMARK  5 active torsions:
REMARK  status: ('A' for Active; 'I' for Inactive)
REMARK    1  A    between atoms: N_5  and  C_9
REMARK    2  A    between atoms: C_8  and  C_9
REMARK    3  A    between atoms: C_8  and  C_10
REMARK    4  A    between atoms: C_10  and  C_11
REMARK    5  A    between atoms: C_12  and  C_13
REMARK                            x       y       z     vdW  Elec       q    Type
REMARK                         _______ _______ _______ _____ _____    ______ ____
ROOT
ATOM      1  O   UNL     1     -18.853  44.735 -14.368  0.00  0.00    +0.000 OA
ATOM      2  N   UNL     1     -19.492  42.712 -15.304  0.00  0.00    +0.000 N 
ATOM      3  C   UNL     1     -19.024  43.522 -14.277  0.00  0.00    +0.000 C 
ATOM      4  H   UNL     1     -19.561  41.709 -15.178  0.00  0.00    +0.000 HD
ENDROOT
BRANCH   3   7
ATOM      5  N   UNL     1     -19.088  40.991 -11.489  0.00  0.00    +0.000 NA
ATOM      6  N   UNL     1     -17.847  40.856  -9.459  0.00  0.00    +0.000 N 
ATOM      7  C   UNL     1     -18.696  42.837 -13.001  0.00  0.00    +0.000 A 
ATOM      8  C   UNL     1     -17.737  43.351 -12.136  0.00  0.00    +0.000 A 
ATOM      9  C   UNL     1     -19.338  41.664 -12.634  0.00  0.00    +0.000 A 
ATOM     10  C   UNL     1     -17.452  42.686 -10.948  0.00  0.00    +0.000 A 
ATOM     11  C   UNL     1     -18.148  41.521 -10.673  0.00  0.00    +0.000 A 
ATOM     12  H   UNL     1     -16.918  40.960  -9.070  0.00  0.00    +0.000 HD
ATOM     13  H   UNL     1     -18.355  40.001  -9.265  0.00  0.00    +0.000 HD
ENDBRANCH   3   7
BRANCH   2  14
ATOM     14  C   UNL     1     -19.828  43.225 -16.605  0.00  0.00    +0.000 C 
BRANCH  14  15
ATOM     15  C   UNL     1     -21.233  42.825 -17.047  0.00  0.00    +0.000 C 
BRANCH  15  16
ATOM     16  C   UNL     1     -22.322  43.648 -16.354  0.00  0.00    +0.000 C 
BRANCH  16  20
ATOM     17  F   UNL     1     -22.160  45.942 -16.865  0.00  0.00    +0.000 F 
ATOM     18  F   UNL     1     -22.530  44.575 -18.522  0.00  0.00    +0.000 F 
ATOM     19  F   UNL     1     -24.117  45.007 -17.084  0.00  0.00    +0.000 F 
ATOM     20  C   UNL     1     -22.790  44.800 -17.217  0.00  0.00    +0.000 C 
ENDBRANCH  16  20
ENDBRANCH  15  16
ENDBRANCH  14  15
ENDBRANCH   2  14
TORSDOF 5
ENDMDL
