MODEL 1
REMARK VINA RESULT:    -6.493      0.000      0.000
REMARK INTER + INTRA:          -9.753
REMARK INTER:                  -9.339
REMARK INTRA:                  -0.414
REMARK UNBOUND:                -0.414
REMARK  Name = 11558021
REMARK  10 active torsions:
REMARK  status: ('A' for Active; 'I' for Inactive)
REMARK    1  A    between atoms: N_2  and  C_8
REMARK    2  A    between atoms: N_3  and  C_10
REMARK    3  A    between atoms: N_5  and  C_13
REMARK    4  A    between atoms: C_6  and  C_8
REMARK    5  A    between atoms: C_6  and  C_11
REMARK    6  A    between atoms: C_6  and  C_12
REMARK    7  A    between atoms: C_7  and  C_9
REMARK    8  A    between atoms: C_7  and  C_10
REMARK    9  A    between atoms: C_9  and  C_13
REMARK   10  A    between atoms: C_15  and  C_16
REMARK                            x       y       z     vdW  Elec       q    Type
REMARK                         _______ _______ _______ _____ _____    ______ ____
ROOT
ATOM      1  N   UNL     1     -17.892  41.681  -9.557  0.00  0.00    +0.000 N 
ATOM      2  N   UNL     1     -17.594  43.251 -11.324  0.00  0.00    +0.000 NA
ATOM      3  C   UNL     1     -18.206  42.135 -10.829  0.00  0.00    +0.000 A 
ATOM      4  C   UNL     1     -18.864  42.999 -13.366  0.00  0.00    +0.000 A 
ATOM      5  C   UNL     1     -19.154  41.421 -11.574  0.00  0.00    +0.000 A 
ATOM      6  C   UNL     1     -19.480  41.864 -12.851  0.00  0.00    +0.000 A 
ATOM      7  C   UNL     1     -17.937  43.651 -12.570  0.00  0.00    +0.000 A 
ATOM      8  H   UNL     1     -17.202  42.214  -9.040  0.00  0.00    +0.000 HD
ENDROOT
BRANCH   4  11
ATOM      9  O   UNL     1     -18.786  44.603 -15.074  0.00  0.00    +0.000 OA
ATOM     10  N   UNL     1     -19.930  42.637 -15.524  0.00  0.00    +0.000 N 
ATOM     11  C   UNL     1     -19.183  43.486 -14.696  0.00  0.00    +0.000 C 
ATOM     12  H   UNL     1     -20.147  41.697 -15.209  0.00  0.00    +0.000 HD
BRANCH  10  13
ATOM     13  C   UNL     1     -20.307  42.968 -16.879  0.00  0.00    +0.000 C 
BRANCH  13  14
ATOM     14  C   UNL     1     -21.271  44.158 -16.942  0.00  0.00    +0.000 C 
ATOM     15  C   UNL     1     -22.657  43.738 -16.452  0.00  0.00    +0.000 C 
ATOM     16  C   UNL     1     -21.370  44.731 -18.358  0.00  0.00    +0.000 C 
ENDBRANCH  13  14
ENDBRANCH  10  13
ENDBRANCH   4  11
BRANCH   1  17
ATOM     17  C   UNL     1     -18.486  40.513  -8.953  0.00  0.00    +0.000 C 
BRANCH  17  18
ATOM     18  C   UNL     1     -19.359  40.899  -7.760  0.00  0.00    +0.000 C 
BRANCH  18  19
ATOM     19  C   UNL     1     -20.844  41.008  -8.130  0.00  0.00    +0.000 C 
BRANCH  19  20
ATOM     20  C   UNL     1     -21.630  41.920  -7.185  0.00  0.00    +0.000 C 
BRANCH  20  21
ATOM     21  N   UNL     1     -23.012  41.484  -7.033  0.00  0.00    +0.000 NA
ATOM     22  H   UNL     1     -23.094  40.504  -7.297  0.00  0.00    +0.000 HD
ATOM     23  H   UNL     1     -23.604  42.005  -7.679  0.00  0.00    +0.000 HD
ENDBRANCH  20  21
ENDBRANCH  19  20
ENDBRANCH  18  19
ENDBRANCH  17  18
ENDBRANCH   1  17
TORSDOF 8
ENDMDL
MODEL 2
REMARK VINA RESULT:    -6.224      3.785      7.290
REMARK INTER + INTRA:          -9.366
REMARK INTER:                  -8.766
REMARK INTRA:                  -0.600
REMARK UNBOUND:                -0.414
REMARK  Name = 11558021
REMARK  10 active torsions:
REMARK  status: ('A' for Active; 'I' for Inactive)
REMARK    1  A    between atoms: N_2  and  C_8
REMARK    2  A    between atoms: N_3  and  C_10
REMARK    3  A    between atoms: N_5  and  C_13
REMARK    4  A    between atoms: C_6  and  C_8
REMARK    5  A    between atoms: C_6  and  C_11
REMARK    6  A    between atoms: C_6  and  C_12
REMARK    7  A    between atoms: C_7  and  C_9
REMARK    8  A    between atoms: C_7  and  C_10
REMARK    9  A    between atoms: C_9  and  C_13
REMARK   10  A    between atoms: C_15  and  C_16
REMARK                            x       y       z     vdW  Elec       q    Type
REMARK                         _______ _______ _______ _____ _____    ______ ____
ROOT
ATOM      1  N   UNL     1     -16.198  42.678 -13.184  0.00  0.00    +0.000 N 
ATOM      2  N   UNL     1     -17.815  41.154 -12.324  0.00  0.00    +0.000 NA
ATOM      3  C   UNL     1     -17.011  42.245 -12.149  0.00  0.00    +0.000 A 
ATOM      4  C   UNL     1     -18.612  41.420 -10.057  0.00  0.00    +0.000 A 
ATOM      5  C   UNL     1     -16.980  42.951 -10.939  0.00  0.00    +0.000 A 
ATOM      6  C   UNL     1     -17.790  42.529  -9.890  0.00  0.00    +0.000 A 
ATOM      7  C   UNL     1     -18.588  40.774 -11.282  0.00  0.00    +0.000 A 
ATOM      8  H   UNL     1     -16.239  42.149 -14.048  0.00  0.00    +0.000 HD
ENDROOT
BRANCH   4  11
ATOM      9  O   UNL     1     -20.013  39.839  -9.042  0.00  0.00    +0.000 OA
ATOM     10  N   UNL     1     -19.629  41.808  -7.880  0.00  0.00    +0.000 N 
ATOM     11  C   UNL     1     -19.469  40.956  -8.981  0.00  0.00    +0.000 C 
ATOM     12  H   UNL     1     -19.088  42.665  -7.829  0.00  0.00    +0.000 HD
BRANCH  10  13
ATOM     13  C   UNL     1     -20.430  41.479  -6.723  0.00  0.00    +0.000 C 
BRANCH  13  14
ATOM     14  C   UNL     1     -21.789  42.188  -6.734  0.00  0.00    +0.000 C 
ATOM     15  C   UNL     1     -22.107  42.736  -5.342  0.00  0.00    +0.000 C 
ATOM     16  C   UNL     1     -22.910  41.254  -7.196  0.00  0.00    +0.000 C 
ENDBRANCH  13  14
ENDBRANCH  10  13
ENDBRANCH   4  11
BRANCH   1  17
ATOM     17  C   UNL     1     -15.318  43.817 -13.090  0.00  0.00    +0.000 C 
BRANCH  17  18
ATOM     18  C   UNL     1     -15.933  45.041 -13.767  0.00  0.00    +0.000 C 
BRANCH  18  19
ATOM     19  C   UNL     1     -16.669  45.951 -12.775  0.00  0.00    +0.000 C 
BRANCH  19  20
ATOM     20  C   UNL     1     -17.994  46.485 -13.323  0.00  0.00    +0.000 C 
BRANCH  20  21
ATOM     21  N   UNL     1     -19.131  46.044 -12.525  0.00  0.00    +0.000 NA
ATOM     22  H   UNL     1     -18.816  45.389 -11.811  0.00  0.00    +0.000 HD
ATOM     23  H   UNL     1     -19.782  45.530 -13.119  0.00  0.00    +0.000 HD
ENDBRANCH  20  21
ENDBRANCH  19  20
ENDBRANCH  18  19
ENDBRANCH  17  18
ENDBRANCH   1  17
TORSDOF 8
ENDMDL
MODEL 3
REMARK VINA RESULT:    -6.211      3.217      5.267
REMARK INTER + INTRA:          -9.348
REMARK INTER:                  -8.745
REMARK INTRA:                  -0.603
REMARK UNBOUND:                -0.414
REMARK  Name = 11558021
REMARK  10 active torsions:
REMARK  status: ('A' for Active; 'I' for Inactive)
REMARK    1  A    between atoms: N_2  and  C_8
REMARK    2  A    between atoms: N_3  and  C_10
REMARK    3  A    between atoms: N_5  and  C_13
REMARK    4  A    between atoms: C_6  and  C_8
REMARK    5  A    between atoms: C_6  and  C_11
REMARK    6  A    between atoms: C_6  and  C_12
REMARK    7  A    between atoms: C_7  and  C_9
REMARK    8  A    between atoms: C_7  and  C_10
REMARK    9  A    between atoms: C_9  and  C_13
REMARK   10  A    between atoms: C_15  and  C_16
REMARK                            x       y       z     vdW  Elec       q    Type
REMARK                         _______ _______ _______ _____ _____    ______ ____
ROOT
ATOM      1  N   UNL     1     -20.000  40.182 -10.259  0.00  0.00    +0.000 N 
ATOM      2  N   UNL     1     -19.118  41.291 -12.174  0.00  0.00    +0.000 NA
ATOM      3  C   UNL     1     -19.135  41.108 -10.820  0.00  0.00    +0.000 A 
ATOM      4  C   UNL     1     -17.397  42.965 -11.890  0.00  0.00    +0.000 A 
ATOM      5  C   UNL     1     -18.297  41.837  -9.967  0.00  0.00    +0.000 A 
ATOM      6  C   UNL     1     -17.423  42.770 -10.514  0.00  0.00    +0.000 A 
ATOM      7  C   UNL     1     -18.255  42.207 -12.670  0.00  0.00    +0.000 A 
ATOM      8  H   UNL     1     -20.597  39.669 -10.899  0.00  0.00    +0.000 HD
ENDROOT
BRANCH   4  11
ATOM      9  O   UNL     1     -16.600  44.233 -13.694  0.00  0.00    +0.000 OA
ATOM     10  N   UNL     1     -15.533  44.513 -11.655  0.00  0.00    +0.000 N 
ATOM     11  C   UNL     1     -16.495  43.932 -12.491  0.00  0.00    +0.000 C 
ATOM     12  H   UNL     1     -15.549  44.312 -10.660  0.00  0.00    +0.000 HD
BRANCH  10  13
ATOM     13  C   UNL     1     -14.582  45.507 -12.098  0.00  0.00    +0.000 C 
BRANCH  13  14
ATOM     14  C   UNL     1     -13.179  45.264 -11.531  0.00  0.00    +0.000 C 
ATOM     15  C   UNL     1     -13.114  43.891 -10.860  0.00  0.00    +0.000 C 
ATOM     16  C   UNL     1     -12.777  46.351 -10.532  0.00  0.00    +0.000 C 
ENDBRANCH  13  14
ENDBRANCH  10  13
ENDBRANCH   4  11
BRANCH   1  17
ATOM     17  C   UNL     1     -20.089  39.922  -8.843  0.00  0.00    +0.000 C 
BRANCH  17  18
ATOM     18  C   UNL     1     -21.378  40.498  -8.261  0.00  0.00    +0.000 C 
BRANCH  18  19
ATOM     19  C   UNL     1     -21.131  41.763  -7.428  0.00  0.00    +0.000 C 
BRANCH  19  20
ATOM     20  C   UNL     1     -22.416  42.354  -6.843  0.00  0.00    +0.000 C 
BRANCH  20  21
ATOM     21  N   UNL     1     -22.202  43.688  -6.296  0.00  0.00    +0.000 NA
ATOM     22  H   UNL     1     -23.099  44.154  -6.168  0.00  0.00    +0.000 HD
ATOM     23  H   UNL     1     -21.681  44.249  -6.968  0.00  0.00    +0.000 HD
ENDBRANCH  20  21
ENDBRANCH  19  20
ENDBRANCH  18  19
ENDBRANCH  17  18
ENDBRANCH   1  17
TORSDOF 8
ENDMDL
MODEL 4
REMARK VINA RESULT:    -6.205      1.563      1.770
REMARK INTER + INTRA:          -9.339
REMARK INTER:                  -8.801
REMARK INTRA:                  -0.538
REMARK UNBOUND:                -0.414
REMARK  Name = 11558021
REMARK  10 active torsions:
REMARK  status: ('A' for Active; 'I' for Inactive)
REMARK    1  A    between atoms: N_2  and  C_8
REMARK    2  A    between atoms: N_3  and  C_10
REMARK    3  A    between atoms: N_5  and  C_13
REMARK    4  A    between atoms: C_6  and  C_8
REMARK    5  A    between atoms: C_6  and  C_11
REMARK    6  A    between atoms: C_6  and  C_12
REMARK    7  A    between atoms: C_7  and  C_9
REMARK    8  A    between atoms: C_7  and  C_10
REMARK    9  A    between atoms: C_9  and  C_13
REMARK   10  A    between atoms: C_15  and  C_16
REMARK                            x       y       z     vdW  Elec       q    Type
REMARK                         _______ _______ _______ _____ _____    ______ ____
ROOT
ATOM      1  N   UNL     1     -17.615  41.504 -10.028  0.00  0.00    +0.000 N 
ATOM      2  N   UNL     1     -17.402  42.904 -11.944  0.00  0.00    +0.000 NA
ATOM      3  C   UNL     1     -18.075  41.928 -11.265  0.00  0.00    +0.000 A 
ATOM      4  C   UNL     1     -19.028  42.737 -13.725  0.00  0.00    +0.000 A 
ATOM      5  C   UNL     1     -19.230  41.330 -11.785  0.00  0.00    +0.000 A 
ATOM      6  C   UNL     1     -19.704  41.744 -13.025  0.00  0.00    +0.000 A 
ATOM      7  C   UNL     1     -17.893  43.281 -13.146  0.00  0.00    +0.000 A 
ATOM      8  H   UNL     1     -16.777  41.951  -9.676  0.00  0.00    +0.000 HD
ENDROOT
BRANCH   4  11
ATOM      9  O   UNL     1     -20.491  42.663 -15.556  0.00  0.00    +0.000 OA
ATOM     10  N   UNL     1     -18.803  44.251 -15.617  0.00  0.00    +0.000 N 
ATOM     11  C   UNL     1     -19.499  43.191 -15.022  0.00  0.00    +0.000 C 
ATOM     12  H   UNL     1     -18.063  44.716 -15.101  0.00  0.00    +0.000 HD
BRANCH  10  13
ATOM     13  C   UNL     1     -19.163  44.830 -16.892  0.00  0.00    +0.000 C 
BRANCH  13  14
ATOM     14  C   UNL     1     -19.348  46.350 -16.810  0.00  0.00    +0.000 C 
ATOM     15  C   UNL     1     -18.858  46.866 -15.457  0.00  0.00    +0.000 C 
ATOM     16  C   UNL     1     -20.808  46.754 -17.026  0.00  0.00    +0.000 C 
ENDBRANCH  13  14
ENDBRANCH  10  13
ENDBRANCH   4  11
BRANCH   1  17
ATOM     17  C   UNL     1     -18.258  40.480  -9.241  0.00  0.00    +0.000 C 
BRANCH  17  18
ATOM     18  C   UNL     1     -19.217  41.095  -8.223  0.00  0.00    +0.000 C 
BRANCH  18  19
ATOM     19  C   UNL     1     -20.682  40.735  -8.506  0.00  0.00    +0.000 C 
BRANCH  19  20
ATOM     20  C   UNL     1     -21.662  41.431  -7.558  0.00  0.00    +0.000 C 
BRANCH  20  21
ATOM     21  N   UNL     1     -22.997  40.851  -7.633  0.00  0.00    +0.000 NA
ATOM     22  H   UNL     1     -23.540  41.132  -6.818  0.00  0.00    +0.000 HD
ATOM     23  H   UNL     1     -22.927  39.834  -7.594  0.00  0.00    +0.000 HD
ENDBRANCH  20  21
ENDBRANCH  19  20
ENDBRANCH  18  19
ENDBRANCH  17  18
ENDBRANCH   1  17
TORSDOF 8
ENDMDL
MODEL 5
REMARK VINA RESULT:    -6.197      3.211      3.966
REMARK INTER + INTRA:          -9.328
REMARK INTER:                  -8.852
REMARK INTRA:                  -0.475
REMARK UNBOUND:                -0.414
REMARK  Name = 11558021
REMARK  10 active torsions:
REMARK  status: ('A' for Active; 'I' for Inactive)
REMARK    1  A    between atoms: N_2  and  C_8
REMARK    2  A    between atoms: N_3  and  C_10
REMARK    3  A    between atoms: N_5  and  C_13
REMARK    4  A    between atoms: C_6  and  C_8
REMARK    5  A    between atoms: C_6  and  C_11
REMARK    6  A    between atoms: C_6  and  C_12
REMARK    7  A    between atoms: C_7  and  C_9
REMARK    8  A    between atoms: C_7  and  C_10
REMARK    9  A    between atoms: C_9  and  C_13
REMARK   10  A    between atoms: C_15  and  C_16
REMARK                            x       y       z     vdW  Elec       q    Type
REMARK                         _______ _______ _______ _____ _____    ______ ____
ROOT
ATOM      1  N   UNL     1     -19.768  40.266 -10.503  0.00  0.00    +0.000 N 
ATOM      2  N   UNL     1     -18.911  41.228 -12.507  0.00  0.00    +0.000 NA
ATOM      3  C   UNL     1     -18.899  41.135 -11.144  0.00  0.00    +0.000 A 
ATOM      4  C   UNL     1     -17.152  42.881 -12.374  0.00  0.00    +0.000 A 
ATOM      5  C   UNL     1     -18.027  41.901 -10.360  0.00  0.00    +0.000 A 
ATOM      6  C   UNL     1     -17.149  42.778 -10.987  0.00  0.00    +0.000 A 
ATOM      7  C   UNL     1     -18.043  42.091 -13.082  0.00  0.00    +0.000 A 
ATOM      8  H   UNL     1     -20.390  39.725 -11.094  0.00  0.00    +0.000 HD
ENDROOT
BRANCH   4  11
ATOM      9  O   UNL     1     -15.017  43.705 -12.885  0.00  0.00    +0.000 OA
ATOM     10  N   UNL     1     -16.819  44.726 -13.926  0.00  0.00    +0.000 N 
ATOM     11  C   UNL     1     -16.247  43.787 -13.058  0.00  0.00    +0.000 C 
ATOM     12  H   UNL     1     -17.816  44.691 -14.112  0.00  0.00    +0.000 HD
BRANCH  10  13
ATOM     13  C   UNL     1     -16.051  45.678 -14.696  0.00  0.00    +0.000 C 
BRANCH  13  14
ATOM     14  C   UNL     1     -15.651  46.906 -13.871  0.00  0.00    +0.000 C 
ATOM     15  C   UNL     1     -16.899  47.647 -13.392  0.00  0.00    +0.000 C 
ATOM     16  C   UNL     1     -14.756  47.856 -14.671  0.00  0.00    +0.000 C 
ENDBRANCH  13  14
ENDBRANCH  10  13
ENDBRANCH   4  11
BRANCH   1  17
ATOM     17  C   UNL     1     -19.828  40.102  -9.071  0.00  0.00    +0.000 C 
BRANCH  17  18
ATOM     18  C   UNL     1     -21.127  40.675  -8.509  0.00  0.00    +0.000 C 
BRANCH  18  19
ATOM     19  C   UNL     1     -20.883  41.686  -7.381  0.00  0.00    +0.000 C 
BRANCH  19  20
ATOM     20  C   UNL     1     -22.175  42.152  -6.705  0.00  0.00    +0.000 C 
BRANCH  20  21
ATOM     21  N   UNL     1     -22.169  43.586  -6.449  0.00  0.00    +0.000 NA
ATOM     22  H   UNL     1     -23.011  43.847  -5.938  0.00  0.00    +0.000 HD
ATOM     23  H   UNL     1     -22.205  44.088  -7.336  0.00  0.00    +0.000 HD
ENDBRANCH  20  21
ENDBRANCH  19  20
ENDBRANCH  18  19
ENDBRANCH  17  18
ENDBRANCH   1  17
TORSDOF 8
ENDMDL
