MODEL 1
REMARK VINA RESULT:    -6.327      0.000      0.000
REMARK INTER + INTRA:          -9.662
REMARK INTER:                  -8.916
REMARK INTRA:                  -0.745
REMARK UNBOUND:                -0.745
REMARK  Name = 115522145
REMARK  8 active torsions:
REMARK  status: ('A' for Active; 'I' for Inactive)
REMARK    1  A    between atoms: N_5  and  C_10
REMARK    2  A    between atoms: N_6  and  C_15
REMARK    3  A    between atoms: N_6  and  C_19
REMARK    4  A    between atoms: C_8  and  C_9
REMARK    5  A    between atoms: C_8  and  C_10
REMARK    6  A    between atoms: C_9  and  C_11
REMARK    7  A    between atoms: C_11  and  C_12
REMARK    8  A    between atoms: C_13  and  C_14
REMARK                            x       y       z     vdW  Elec       q    Type
REMARK                         _______ _______ _______ _____ _____    ______ ____
ROOT
ATOM      1  O   UNL     1     -16.977  41.104 -11.011  0.00  0.00    +0.000 OA
ATOM      2  N   UNL     1     -19.244  41.117 -10.517  0.00  0.00    +0.000 N 
ATOM      3  C   UNL     1     -18.121  41.482 -11.251  0.00  0.00    +0.000 C 
ATOM      4  H   UNL     1     -20.152  41.486 -10.783  0.00  0.00    +0.000 HD
ENDROOT
BRANCH   3   6
ATOM      5  N   UNL     1     -17.753  44.403 -13.623  0.00  0.00    +0.000 NA
ATOM      6  C   UNL     1     -18.354  42.418 -12.381  0.00  0.00    +0.000 A 
ATOM      7  C   UNL     1     -17.563  43.533 -12.605  0.00  0.00    +0.000 A 
ATOM      8  C   UNL     1     -19.407  42.181 -13.256  0.00  0.00    +0.000 A 
ATOM      9  C   UNL     1     -19.635  43.053 -14.315  0.00  0.00    +0.000 A 
ATOM     10  C   UNL     1     -18.788  44.139 -14.453  0.00  0.00    +0.000 A 
BRANCH   7  11
ATOM     11  N   UNL     1     -16.489  43.784 -11.716  0.00  0.00    +0.000 N 
ATOM     12  C   UNL     1     -15.137  43.908 -12.156  0.00  0.00    +0.000 C 
ATOM     13  H   UNL     1     -16.727  44.216 -10.830  0.00  0.00    +0.000 HD
ENDBRANCH   7  11
ENDBRANCH   3   6
BRANCH   2  14
ATOM     14  C   UNL     1     -19.176  40.241  -9.380  0.00  0.00    +0.000 C 
BRANCH  14  15
ATOM     15  C   UNL     1     -20.260  40.541  -8.350  0.00  0.00    +0.000 C 
BRANCH  15  16
ATOM     16  C   UNL     1     -20.046  41.884  -7.646  0.00  0.00    +0.000 C 
BRANCH  16  17
ATOM     17  C   UNL     1     -20.706  41.897  -6.266  0.00  0.00    +0.000 C 
BRANCH  17  21
ATOM     18  F   UNL     1     -22.542  42.760  -5.046  0.00  0.00    +0.000 F 
ATOM     19  F   UNL     1     -21.993  43.779  -6.898  0.00  0.00    +0.000 F 
ATOM     20  F   UNL     1     -22.952  41.822  -6.972  0.00  0.00    +0.000 F 
ATOM     21  C   UNL     1     -22.058  42.575  -6.293  0.00  0.00    +0.000 C 
ENDBRANCH  17  21
ENDBRANCH  16  17
ENDBRANCH  15  16
ENDBRANCH  14  15
ENDBRANCH   2  14
TORSDOF 7
ENDMDL
MODEL 2
REMARK VINA RESULT:    -6.313      2.503      3.768
REMARK INTER + INTRA:          -9.641
REMARK INTER:                  -8.801
REMARK INTRA:                  -0.840
REMARK UNBOUND:                -0.745
REMARK  Name = 115522145
REMARK  8 active torsions:
REMARK  status: ('A' for Active; 'I' for Inactive)
REMARK    1  A    between atoms: N_5  and  C_10
REMARK    2  A    between atoms: N_6  and  C_15
REMARK    3  A    between atoms: N_6  and  C_19
REMARK    4  A    between atoms: C_8  and  C_9
REMARK    5  A    between atoms: C_8  and  C_10
REMARK    6  A    between atoms: C_9  and  C_11
REMARK    7  A    between atoms: C_11  and  C_12
REMARK    8  A    between atoms: C_13  and  C_14
REMARK                            x       y       z     vdW  Elec       q    Type
REMARK                         _______ _______ _______ _____ _____    ______ ____
ROOT
ATOM      1  O   UNL     1     -19.651  41.290 -13.443  0.00  0.00    +0.000 OA
ATOM      2  N   UNL     1     -17.410  41.510 -12.884  0.00  0.00    +0.000 N 
ATOM      3  C   UNL     1     -18.629  41.967 -13.373  0.00  0.00    +0.000 C 
ATOM      4  H   UNL     1     -16.614  42.139 -12.872  0.00  0.00    +0.000 HD
ENDROOT
BRANCH   3   6
ATOM      5  N   UNL     1     -19.191  44.993 -15.569  0.00  0.00    +0.000 NA
ATOM      6  C   UNL     1     -18.654  43.371 -13.859  0.00  0.00    +0.000 A 
ATOM      7  C   UNL     1     -19.159  43.725 -15.099  0.00  0.00    +0.000 A 
ATOM      8  C   UNL     1     -18.151  44.382 -13.048  0.00  0.00    +0.000 A 
ATOM      9  C   UNL     1     -18.167  45.698 -13.495  0.00  0.00    +0.000 A 
ATOM     10  C   UNL     1     -18.693  45.949 -14.752  0.00  0.00    +0.000 A 
BRANCH   7  11
ATOM     11  N   UNL     1     -19.671  42.700 -15.933  0.00  0.00    +0.000 N 
ATOM     12  C   UNL     1     -20.223  42.961 -17.223  0.00  0.00    +0.000 C 
ATOM     13  H   UNL     1     -19.327  41.763 -15.759  0.00  0.00    +0.000 HD
ENDBRANCH   7  11
ENDBRANCH   3   6
BRANCH   2  14
ATOM     14  C   UNL     1     -17.221  40.169 -12.404  0.00  0.00    +0.000 C 
BRANCH  14  15
ATOM     15  C   UNL     1     -17.026  40.116 -10.892  0.00  0.00    +0.000 C 
BRANCH  15  16
ATOM     16  C   UNL     1     -18.122  40.867 -10.131  0.00  0.00    +0.000 C 
BRANCH  16  17
ATOM     17  C   UNL     1     -19.424  40.065 -10.098  0.00  0.00    +0.000 C 
BRANCH  17  21
ATOM     18  F   UNL     1     -19.347  40.029  -7.733  0.00  0.00    +0.000 F 
ATOM     19  F   UNL     1     -20.679  41.481  -8.677  0.00  0.00    +0.000 F 
ATOM     20  F   UNL     1     -21.184  39.360  -8.700  0.00  0.00    +0.000 F 
ATOM     21  C   UNL     1     -20.162  40.239  -8.789  0.00  0.00    +0.000 C 
ENDBRANCH  17  21
ENDBRANCH  16  17
ENDBRANCH  15  16
ENDBRANCH  14  15
ENDBRANCH   2  14
TORSDOF 7
ENDMDL
MODEL 3
REMARK VINA RESULT:    -6.174      1.559      2.660
REMARK INTER + INTRA:          -9.445
REMARK INTER:                  -8.756
REMARK INTRA:                  -0.689
REMARK UNBOUND:                -0.745
REMARK  Name = 115522145
REMARK  8 active torsions:
REMARK  status: ('A' for Active; 'I' for Inactive)
REMARK    1  A    between atoms: N_5  and  C_10
REMARK    2  A    between atoms: N_6  and  C_15
REMARK    3  A    between atoms: N_6  and  C_19
REMARK    4  A    between atoms: C_8  and  C_9
REMARK    5  A    between atoms: C_8  and  C_10
REMARK    6  A    between atoms: C_9  and  C_11
REMARK    7  A    between atoms: C_11  and  C_12
REMARK    8  A    between atoms: C_13  and  C_14
REMARK                            x       y       z     vdW  Elec       q    Type
REMARK                         _______ _______ _______ _____ _____    ______ ____
ROOT
ATOM      1  O   UNL     1     -18.526  42.200 -12.142  0.00  0.00    +0.000 OA
ATOM      2  N   UNL     1     -17.582  41.520 -10.135  0.00  0.00    +0.000 N 
ATOM      3  C   UNL     1     -17.634  42.275 -11.302  0.00  0.00    +0.000 C 
ATOM      4  H   UNL     1     -16.799  41.642  -9.500  0.00  0.00    +0.000 HD
ENDROOT
BRANCH   3   6
ATOM      5  N   UNL     1     -15.673  45.417 -12.062  0.00  0.00    +0.000 NA
ATOM      6  C   UNL     1     -16.501  43.209 -11.528  0.00  0.00    +0.000 A 
ATOM      7  C   UNL     1     -16.684  44.545 -11.847  0.00  0.00    +0.000 A 
ATOM      8  C   UNL     1     -15.197  42.738 -11.422  0.00  0.00    +0.000 A 
ATOM      9  C   UNL     1     -14.131  43.604 -11.636  0.00  0.00    +0.000 A 
ATOM     10  C   UNL     1     -14.419  44.921 -11.950  0.00  0.00    +0.000 A 
BRANCH   7  11
ATOM     11  N   UNL     1     -18.010  45.032 -11.960  0.00  0.00    +0.000 N 
ATOM     12  C   UNL     1     -18.492  45.688 -13.132  0.00  0.00    +0.000 C 
ATOM     13  H   UNL     1     -18.700  44.608 -11.351  0.00  0.00    +0.000 HD
ENDBRANCH   7  11
ENDBRANCH   3   6
BRANCH   2  14
ATOM     14  C   UNL     1     -18.589  40.556  -9.789  0.00  0.00    +0.000 C 
BRANCH  14  15
ATOM     15  C   UNL     1     -18.890  40.541  -8.294  0.00  0.00    +0.000 C 
BRANCH  15  16
ATOM     16  C   UNL     1     -20.313  41.011  -7.975  0.00  0.00    +0.000 C 
BRANCH  16  17
ATOM     17  C   UNL     1     -20.305  42.139  -6.942  0.00  0.00    +0.000 C 
BRANCH  17  21
ATOM     18  F   UNL     1     -21.594  42.568  -5.004  0.00  0.00    +0.000 F 
ATOM     19  F   UNL     1     -22.295  43.418  -6.890  0.00  0.00    +0.000 F 
ATOM     20  F   UNL     1     -22.457  41.273  -6.531  0.00  0.00    +0.000 F 
ATOM     21  C   UNL     1     -21.674  42.357  -6.335  0.00  0.00    +0.000 C 
ENDBRANCH  17  21
ENDBRANCH  16  17
ENDBRANCH  15  16
ENDBRANCH  14  15
ENDBRANCH   2  14
TORSDOF 7
ENDMDL
MODEL 4
REMARK VINA RESULT:    -5.803      2.828      4.136
REMARK INTER + INTRA:          -8.922
REMARK INTER:                  -8.255
REMARK INTRA:                  -0.667
REMARK UNBOUND:                -0.745
REMARK  Name = 115522145
REMARK  8 active torsions:
REMARK  status: ('A' for Active; 'I' for Inactive)
REMARK    1  A    between atoms: N_5  and  C_10
REMARK    2  A    between atoms: N_6  and  C_15
REMARK    3  A    between atoms: N_6  and  C_19
REMARK    4  A    between atoms: C_8  and  C_9
REMARK    5  A    between atoms: C_8  and  C_10
REMARK    6  A    between atoms: C_9  and  C_11
REMARK    7  A    between atoms: C_11  and  C_12
REMARK    8  A    between atoms: C_13  and  C_14
REMARK                            x       y       z     vdW  Elec       q    Type
REMARK                         _______ _______ _______ _____ _____    ______ ____
ROOT
ATOM      1  O   UNL     1     -18.759  44.207 -13.567  0.00  0.00    +0.000 OA
ATOM      2  N   UNL     1     -19.217  41.978 -14.016  0.00  0.00    +0.000 N 
ATOM      3  C   UNL     1     -19.252  43.342 -14.285  0.00  0.00    +0.000 C 
ATOM      4  H   UNL     1     -19.661  41.333 -14.663  0.00  0.00    +0.000 HD
ENDROOT
BRANCH   3   6
ATOM      5  N   UNL     1     -20.083  45.063 -17.547  0.00  0.00    +0.000 NA
ATOM      6  C   UNL     1     -19.968  43.746 -15.523  0.00  0.00    +0.000 A 
ATOM      7  C   UNL     1     -19.454  44.673 -16.415  0.00  0.00    +0.000 A 
ATOM      8  C   UNL     1     -21.206  43.183 -15.809  0.00  0.00    +0.000 A 
ATOM      9  C   UNL     1     -21.884  43.559 -16.963  0.00  0.00    +0.000 A 
ATOM     10  C   UNL     1     -21.286  44.494 -17.791  0.00  0.00    +0.000 A 
BRANCH   7  11
ATOM     11  N   UNL     1     -18.193  45.254 -16.129  0.00  0.00    +0.000 N 
ATOM     12  C   UNL     1     -17.621  46.286 -16.930  0.00  0.00    +0.000 C 
ATOM     13  H   UNL     1     -17.869  45.179 -15.171  0.00  0.00    +0.000 HD
ENDBRANCH   7  11
ENDBRANCH   3   6
BRANCH   2  14
ATOM     14  C   UNL     1     -18.586  41.434 -12.845  0.00  0.00    +0.000 C 
BRANCH  14  15
ATOM     15  C   UNL     1     -19.501  40.484 -12.080  0.00  0.00    +0.000 C 
BRANCH  15  16
ATOM     16  C   UNL     1     -18.901  40.036 -10.744  0.00  0.00    +0.000 C 
BRANCH  16  17
ATOM     17  C   UNL     1     -19.125  41.087  -9.655  0.00  0.00    +0.000 C 
BRANCH  17  21
ATOM     18  F   UNL     1     -20.960  41.544  -8.231  0.00  0.00    +0.000 F 
ATOM     19  F   UNL     1     -20.754  39.505  -8.988  0.00  0.00    +0.000 F 
ATOM     20  F   UNL     1     -19.379  40.249  -7.468  0.00  0.00    +0.000 F 
ATOM     21  C   UNL     1     -20.067  40.592  -8.580  0.00  0.00    +0.000 C 
ENDBRANCH  17  21
ENDBRANCH  16  17
ENDBRANCH  15  16
ENDBRANCH  14  15
ENDBRANCH   2  14
TORSDOF 7
ENDMDL
MODEL 5
REMARK VINA RESULT:    -5.599      4.738      6.466
REMARK INTER + INTRA:          -8.635
REMARK INTER:                  -7.948
REMARK INTRA:                  -0.687
REMARK UNBOUND:                -0.745
REMARK  Name = 115522145
REMARK  8 active torsions:
REMARK  status: ('A' for Active; 'I' for Inactive)
REMARK    1  A    between atoms: N_5  and  C_10
REMARK    2  A    between atoms: N_6  and  C_15
REMARK    3  A    between atoms: N_6  and  C_19
REMARK    4  A    between atoms: C_8  and  C_9
REMARK    5  A    between atoms: C_8  and  C_10
REMARK    6  A    between atoms: C_9  and  C_11
REMARK    7  A    between atoms: C_11  and  C_12
REMARK    8  A    between atoms: C_13  and  C_14
REMARK                            x       y       z     vdW  Elec       q    Type
REMARK                         _______ _______ _______ _____ _____    ______ ____
ROOT
ATOM      1  O   UNL     1     -19.966  42.332 -17.002  0.00  0.00    +0.000 OA
ATOM      2  N   UNL     1     -20.008  43.275 -14.882  0.00  0.00    +0.000 N 
ATOM      3  C   UNL     1     -20.381  43.183 -16.218  0.00  0.00    +0.000 C 
ATOM      4  H   UNL     1     -20.395  44.018 -14.309  0.00  0.00    +0.000 HD
ENDROOT
BRANCH   3   6
ATOM      5  N   UNL     1     -21.754  46.316 -17.828  0.00  0.00    +0.000 NA
ATOM      6  C   UNL     1     -21.330  44.218 -16.706  0.00  0.00    +0.000 A 
ATOM      7  C   UNL     1     -20.915  45.357 -17.376  0.00  0.00    +0.000 A 
ATOM      8  C   UNL     1     -22.692  44.051 -16.484  0.00  0.00    +0.000 A 
ATOM      9  C   UNL     1     -23.586  45.016 -16.934  0.00  0.00    +0.000 A 
ATOM     10  C   UNL     1     -23.072  46.120 -17.594  0.00  0.00    +0.000 A 
BRANCH   7  11
ATOM     11  N   UNL     1     -19.528  45.535 -17.603  0.00  0.00    +0.000 N 
ATOM     12  C   UNL     1     -18.906  45.229 -18.850  0.00  0.00    +0.000 C 
ATOM     13  H   UNL     1     -19.053  46.199 -17.001  0.00  0.00    +0.000 HD
ENDBRANCH   7  11
ENDBRANCH   3   6
BRANCH   2  14
ATOM     14  C   UNL     1     -19.079  42.365 -14.271  0.00  0.00    +0.000 C 
BRANCH  14  15
ATOM     15  C   UNL     1     -19.386  42.123 -12.797  0.00  0.00    +0.000 C 
BRANCH  15  16
ATOM     16  C   UNL     1     -19.242  40.651 -12.400  0.00  0.00    +0.000 C 
BRANCH  16  17
ATOM     17  C   UNL     1     -17.844  40.123 -12.726  0.00  0.00    +0.000 C 
BRANCH  17  21
ATOM     18  F   UNL     1     -16.407  41.532 -11.480  0.00  0.00    +0.000 F 
ATOM     19  F   UNL     1     -17.506  39.992 -10.388  0.00  0.00    +0.000 F 
ATOM     20  F   UNL     1     -15.845  39.435 -11.686  0.00  0.00    +0.000 F 
ATOM     21  C   UNL     1     -16.895  40.276 -11.557  0.00  0.00    +0.000 C 
ENDBRANCH  17  21
ENDBRANCH  16  17
ENDBRANCH  15  16
ENDBRANCH  14  15
ENDBRANCH   2  14
TORSDOF 7
ENDMDL
