MODEL 1
REMARK VINA RESULT:    -6.863      0.000      0.000
REMARK INTER + INTRA:          -9.759
REMARK INTER:                  -9.270
REMARK INTRA:                  -0.489
REMARK UNBOUND:                -0.489
REMARK  Name = 115522075
REMARK  7 active torsions:
REMARK  status: ('A' for Active; 'I' for Inactive)
REMARK    1  A    between atoms: N_5  and  C_9
REMARK    2  A    between atoms: N_6  and  C_14
REMARK    3  A    between atoms: N_6  and  C_18
REMARK    4  A    between atoms: C_8  and  C_9
REMARK    5  A    between atoms: C_8  and  C_10
REMARK    6  A    between atoms: C_10  and  C_11
REMARK    7  A    between atoms: C_12  and  C_13
REMARK                            x       y       z     vdW  Elec       q    Type
REMARK                         _______ _______ _______ _____ _____    ______ ____
ROOT
ATOM      1  O   UNL     1     -19.420  41.175 -11.042  0.00  0.00    +0.000 OA
ATOM      2  N   UNL     1     -18.074  41.498  -9.181  0.00  0.00    +0.000 N 
ATOM      3  C   UNL     1     -18.445  41.696 -10.506  0.00  0.00    +0.000 C 
ATOM      4  H   UNL     1     -17.246  41.964  -8.822  0.00  0.00    +0.000 HD
ENDROOT
BRANCH   3   6
ATOM      5  N   UNL     1     -15.767  42.886 -12.895  0.00  0.00    +0.000 NA
ATOM      6  C   UNL     1     -17.565  42.585 -11.306  0.00  0.00    +0.000 A 
ATOM      7  C   UNL     1     -16.584  42.100 -12.158  0.00  0.00    +0.000 A 
ATOM      8  C   UNL     1     -17.718  43.963 -11.206  0.00  0.00    +0.000 A 
ATOM      9  C   UNL     1     -16.896  44.804 -11.948  0.00  0.00    +0.000 A 
ATOM     10  C   UNL     1     -15.945  44.221 -12.771  0.00  0.00    +0.000 A 
BRANCH   7  11
ATOM     11  N   UNL     1     -16.421  40.696 -12.263  0.00  0.00    +0.000 N 
ATOM     12  C   UNL     1     -17.182  39.899 -13.168  0.00  0.00    +0.000 C 
ATOM     13  H   UNL     1     -15.538  40.315 -11.939  0.00  0.00    +0.000 HD
ENDBRANCH   7  11
ENDBRANCH   3   6
BRANCH   2  14
ATOM     14  C   UNL     1     -18.811  40.646  -8.287  0.00  0.00    +0.000 C 
BRANCH  14  15
ATOM     15  C   UNL     1     -19.644  41.434  -7.281  0.00  0.00    +0.000 C 
BRANCH  15  16
ATOM     16  C   UNL     1     -21.108  41.564  -7.708  0.00  0.00    +0.000 C 
BRANCH  16  20
ATOM     17  F   UNL     1     -23.105  41.369  -6.451  0.00  0.00    +0.000 F 
ATOM     18  F   UNL     1     -21.320  42.071  -5.405  0.00  0.00    +0.000 F 
ATOM     19  F   UNL     1     -22.334  43.374  -6.828  0.00  0.00    +0.000 F 
ATOM     20  C   UNL     1     -21.975  42.094  -6.585  0.00  0.00    +0.000 C 
ENDBRANCH  16  20
ENDBRANCH  15  16
ENDBRANCH  14  15
ENDBRANCH   2  14
TORSDOF 6
ENDMDL
MODEL 2
REMARK VINA RESULT:    -6.798      1.836      2.128
REMARK INTER + INTRA:          -9.671
REMARK INTER:                  -9.080
REMARK INTRA:                  -0.591
REMARK UNBOUND:                -0.489
REMARK  Name = 115522075
REMARK  7 active torsions:
REMARK  status: ('A' for Active; 'I' for Inactive)
REMARK    1  A    between atoms: N_5  and  C_9
REMARK    2  A    between atoms: N_6  and  C_14
REMARK    3  A    between atoms: N_6  and  C_18
REMARK    4  A    between atoms: C_8  and  C_9
REMARK    5  A    between atoms: C_8  and  C_10
REMARK    6  A    between atoms: C_10  and  C_11
REMARK    7  A    between atoms: C_12  and  C_13
REMARK                            x       y       z     vdW  Elec       q    Type
REMARK                         _______ _______ _______ _____ _____    ______ ____
ROOT
ATOM      1  O   UNL     1     -19.359  40.068 -12.142  0.00  0.00    +0.000 OA
ATOM      2  N   UNL     1     -19.223  41.000 -10.022  0.00  0.00    +0.000 N 
ATOM      3  C   UNL     1     -18.983  40.964 -11.392  0.00  0.00    +0.000 C 
ATOM      4  H   UNL     1     -18.866  41.779  -9.476  0.00  0.00    +0.000 HD
ENDROOT
BRANCH   3   6
ATOM      5  N   UNL     1     -17.815  43.746 -13.670  0.00  0.00    +0.000 NA
ATOM      6  C   UNL     1     -18.193  42.092 -11.947  0.00  0.00    +0.000 A 
ATOM      7  C   UNL     1     -18.517  42.720 -13.140  0.00  0.00    +0.000 A 
ATOM      8  C   UNL     1     -17.077  42.548 -11.254  0.00  0.00    +0.000 A 
ATOM      9  C   UNL     1     -16.329  43.601 -11.768  0.00  0.00    +0.000 A 
ATOM     10  C   UNL     1     -16.736  44.161 -12.968  0.00  0.00    +0.000 A 
BRANCH   7  11
ATOM     11  N   UNL     1     -19.652  42.259 -13.853  0.00  0.00    +0.000 N 
ATOM     12  C   UNL     1     -20.259  43.011 -14.902  0.00  0.00    +0.000 C 
ATOM     13  H   UNL     1     -19.822  41.259 -13.841  0.00  0.00    +0.000 HD
ENDBRANCH   7  11
ENDBRANCH   3   6
BRANCH   2  14
ATOM     14  C   UNL     1     -19.951  39.969  -9.334  0.00  0.00    +0.000 C 
BRANCH  14  15
ATOM     15  C   UNL     1     -21.058  40.527  -8.446  0.00  0.00    +0.000 C 
BRANCH  15  16
ATOM     16  C   UNL     1     -20.581  41.695  -7.580  0.00  0.00    +0.000 C 
BRANCH  16  20
ATOM     17  F   UNL     1     -21.182  41.958  -5.304  0.00  0.00    +0.000 F 
ATOM     18  F   UNL     1     -21.990  43.399  -6.734  0.00  0.00    +0.000 F 
ATOM     19  F   UNL     1     -22.742  41.353  -6.704  0.00  0.00    +0.000 F 
ATOM     20  C   UNL     1     -21.630  42.109  -6.569  0.00  0.00    +0.000 C 
ENDBRANCH  16  20
ENDBRANCH  15  16
ENDBRANCH  14  15
ENDBRANCH   2  14
TORSDOF 6
ENDMDL
MODEL 3
REMARK VINA RESULT:    -6.551      2.028      2.274
REMARK INTER + INTRA:          -9.337
REMARK INTER:                  -9.477
REMARK INTRA:                   0.139
REMARK UNBOUND:                -0.489
REMARK  Name = 115522075
REMARK  7 active torsions:
REMARK  status: ('A' for Active; 'I' for Inactive)
REMARK    1  A    between atoms: N_5  and  C_9
REMARK    2  A    between atoms: N_6  and  C_14
REMARK    3  A    between atoms: N_6  and  C_18
REMARK    4  A    between atoms: C_8  and  C_9
REMARK    5  A    between atoms: C_8  and  C_10
REMARK    6  A    between atoms: C_10  and  C_11
REMARK    7  A    between atoms: C_12  and  C_13
REMARK                            x       y       z     vdW  Elec       q    Type
REMARK                         _______ _______ _______ _____ _____    ______ ____
ROOT
ATOM      1  O   UNL     1     -16.843  41.850 -10.540  0.00  0.00    +0.000 OA
ATOM      2  N   UNL     1     -19.036  41.520  -9.858  0.00  0.00    +0.000 N 
ATOM      3  C   UNL     1     -18.050  41.905 -10.760  0.00  0.00    +0.000 C 
ATOM      4  H   UNL     1     -20.013  41.608 -10.122  0.00  0.00    +0.000 HD
ENDROOT
BRANCH   3   6
ATOM      5  N   UNL     1     -19.879  42.216 -14.055  0.00  0.00    +0.000 NA
ATOM      6  C   UNL     1     -18.528  42.437 -12.062  0.00  0.00    +0.000 A 
ATOM      7  C   UNL     1     -19.430  41.757 -12.865  0.00  0.00    +0.000 A 
ATOM      8  C   UNL     1     -18.058  43.668 -12.507  0.00  0.00    +0.000 A 
ATOM      9  C   UNL     1     -18.496  44.173 -13.726  0.00  0.00    +0.000 A 
ATOM     10  C   UNL     1     -19.399  43.415 -14.455  0.00  0.00    +0.000 A 
BRANCH   7  11
ATOM     11  N   UNL     1     -19.912  40.501 -12.418  0.00  0.00    +0.000 N 
ATOM     12  C   UNL     1     -19.177  39.291 -12.586  0.00  0.00    +0.000 C 
ATOM     13  H   UNL     1     -20.617  40.518 -11.689  0.00  0.00    +0.000 HD
ENDBRANCH   7  11
ENDBRANCH   3   6
BRANCH   2  14
ATOM     14  C   UNL     1     -18.733  41.009  -8.548  0.00  0.00    +0.000 C 
BRANCH  14  15
ATOM     15  C   UNL     1     -19.686  41.534  -7.480  0.00  0.00    +0.000 C 
BRANCH  15  16
ATOM     16  C   UNL     1     -21.154  41.279  -7.829  0.00  0.00    +0.000 C 
BRANCH  16  20
ATOM     17  F   UNL     1     -21.526  41.782  -5.545  0.00  0.00    +0.000 F 
ATOM     18  F   UNL     1     -22.415  43.116  -7.029  0.00  0.00    +0.000 F 
ATOM     19  F   UNL     1     -23.232  41.117  -6.730  0.00  0.00    +0.000 F 
ATOM     20  C   UNL     1     -22.087  41.832  -6.772  0.00  0.00    +0.000 C 
ENDBRANCH  16  20
ENDBRANCH  15  16
ENDBRANCH  14  15
ENDBRANCH   2  14
TORSDOF 6
ENDMDL
MODEL 4
REMARK VINA RESULT:    -6.119      1.895      2.736
REMARK INTER + INTRA:          -8.754
REMARK INTER:                  -8.133
REMARK INTRA:                  -0.621
REMARK UNBOUND:                -0.489
REMARK  Name = 115522075
REMARK  7 active torsions:
REMARK  status: ('A' for Active; 'I' for Inactive)
REMARK    1  A    between atoms: N_5  and  C_9
REMARK    2  A    between atoms: N_6  and  C_14
REMARK    3  A    between atoms: N_6  and  C_18
REMARK    4  A    between atoms: C_8  and  C_9
REMARK    5  A    between atoms: C_8  and  C_10
REMARK    6  A    between atoms: C_10  and  C_11
REMARK    7  A    between atoms: C_12  and  C_13
REMARK                            x       y       z     vdW  Elec       q    Type
REMARK                         _______ _______ _______ _____ _____    ______ ____
ROOT
ATOM      1  O   UNL     1     -16.777  42.312 -10.424  0.00  0.00    +0.000 OA
ATOM      2  N   UNL     1     -18.921  41.547  -9.983  0.00  0.00    +0.000 N 
ATOM      3  C   UNL     1     -17.947  42.161 -10.763  0.00  0.00    +0.000 C 
ATOM      4  H   UNL     1     -19.869  41.472 -10.341  0.00  0.00    +0.000 HD
ENDROOT
BRANCH   3   6
ATOM      5  N   UNL     1     -18.495  44.457 -13.717  0.00  0.00    +0.000 NA
ATOM      6  C   UNL     1     -18.395  42.679 -12.081  0.00  0.00    +0.000 A 
ATOM      7  C   UNL     1     -18.098  43.958 -12.524  0.00  0.00    +0.000 A 
ATOM      8  C   UNL     1     -19.147  41.859 -12.915  0.00  0.00    +0.000 A 
ATOM      9  C   UNL     1     -19.574  42.336 -14.149  0.00  0.00    +0.000 A 
ATOM     10  C   UNL     1     -19.224  43.630 -14.500  0.00  0.00    +0.000 A 
BRANCH   7  11
ATOM     11  N   UNL     1     -17.333  44.801 -11.678  0.00  0.00    +0.000 N 
ATOM     12  C   UNL     1     -16.063  45.324 -12.059  0.00  0.00    +0.000 C 
ATOM     13  H   UNL     1     -17.839  45.294 -10.950  0.00  0.00    +0.000 HD
ENDBRANCH   7  11
ENDBRANCH   3   6
BRANCH   2  14
ATOM     14  C   UNL     1     -18.649  41.017  -8.675  0.00  0.00    +0.000 C 
BRANCH  14  15
ATOM     15  C   UNL     1     -19.510  41.659  -7.592  0.00  0.00    +0.000 C 
BRANCH  15  16
ATOM     16  C   UNL     1     -21.005  41.436  -7.825  0.00  0.00    +0.000 C 
BRANCH  16  20
ATOM     17  F   UNL     1     -21.159  41.911  -5.510  0.00  0.00    +0.000 F 
ATOM     18  F   UNL     1     -22.206  43.247  -6.885  0.00  0.00    +0.000 F 
ATOM     19  F   UNL     1     -22.964  41.234  -6.531  0.00  0.00    +0.000 F 
ATOM     20  C   UNL     1     -21.837  41.966  -6.676  0.00  0.00    +0.000 C 
ENDBRANCH  16  20
ENDBRANCH  15  16
ENDBRANCH  14  15
ENDBRANCH   2  14
TORSDOF 6
ENDMDL
MODEL 5
REMARK VINA RESULT:    -6.093      2.144      3.059
REMARK INTER + INTRA:          -8.719
REMARK INTER:                  -7.985
REMARK INTRA:                  -0.733
REMARK UNBOUND:                -0.489
REMARK  Name = 115522075
REMARK  7 active torsions:
REMARK  status: ('A' for Active; 'I' for Inactive)
REMARK    1  A    between atoms: N_5  and  C_9
REMARK    2  A    between atoms: N_6  and  C_14
REMARK    3  A    between atoms: N_6  and  C_18
REMARK    4  A    between atoms: C_8  and  C_9
REMARK    5  A    between atoms: C_8  and  C_10
REMARK    6  A    between atoms: C_10  and  C_11
REMARK    7  A    between atoms: C_12  and  C_13
REMARK                            x       y       z     vdW  Elec       q    Type
REMARK                         _______ _______ _______ _____ _____    ______ ____
ROOT
ATOM      1  O   UNL     1     -16.963  41.922 -13.202  0.00  0.00    +0.000 OA
ATOM      2  N   UNL     1     -17.002  41.747 -10.889  0.00  0.00    +0.000 N 
ATOM      3  C   UNL     1     -16.874  42.436 -12.090  0.00  0.00    +0.000 C 
ATOM      4  H   UNL     1     -16.904  42.253 -10.013  0.00  0.00    +0.000 HD
ENDROOT
BRANCH   3   6
ATOM      5  N   UNL     1     -15.053  45.748 -12.181  0.00  0.00    +0.000 NA
ATOM      6  C   UNL     1     -16.586  43.889 -11.982  0.00  0.00    +0.000 A 
ATOM      7  C   UNL     1     -15.343  44.431 -12.273  0.00  0.00    +0.000 A 
ATOM      8  C   UNL     1     -17.594  44.754 -11.573  0.00  0.00    +0.000 A 
ATOM      9  C   UNL     1     -17.333  46.116 -11.466  0.00  0.00    +0.000 A 
ATOM     10  C   UNL     1     -16.058  46.558 -11.779  0.00  0.00    +0.000 A 
BRANCH   7  11
ATOM     11  N   UNL     1     -14.310  43.554 -12.689  0.00  0.00    +0.000 N 
ATOM     12  C   UNL     1     -13.173  43.265 -11.878  0.00  0.00    +0.000 C 
ATOM     13  H   UNL     1     -14.547  42.883 -13.412  0.00  0.00    +0.000 HD
ENDBRANCH   7  11
ENDBRANCH   3   6
BRANCH   2  14
ATOM     14  C   UNL     1     -17.256  40.333 -10.828  0.00  0.00    +0.000 C 
BRANCH  14  15
ATOM     15  C   UNL     1     -18.598  40.007 -10.182  0.00  0.00    +0.000 C 
BRANCH  15  16
ATOM     16  C   UNL     1     -19.137  41.162  -9.336  0.00  0.00    +0.000 C 
BRANCH  16  20
ATOM     17  F   UNL     1     -21.049  41.646  -8.025  0.00  0.00    +0.000 F 
ATOM     18  F   UNL     1     -20.813  39.597  -8.746  0.00  0.00    +0.000 F 
ATOM     19  F   UNL     1     -19.523  40.350  -7.158  0.00  0.00    +0.000 F 
ATOM     20  C   UNL     1     -20.144  40.686  -8.310  0.00  0.00    +0.000 C 
ENDBRANCH  16  20
ENDBRANCH  15  16
ENDBRANCH  14  15
ENDBRANCH   2  14
TORSDOF 6
ENDMDL
