MODEL 1
REMARK VINA RESULT:    -7.002      0.000      0.000
REMARK INTER + INTRA:         -10.192
REMARK INTER:                  -9.458
REMARK INTRA:                  -0.733
REMARK UNBOUND:                -0.733
REMARK  Name = 115522150
REMARK  7 active torsions:
REMARK  status: ('A' for Active; 'I' for Inactive)
REMARK    1  A    between atoms: N_5  and  C_10
REMARK    2  A    between atoms: N_7  and  C_19
REMARK    3  A    between atoms: C_8  and  C_9
REMARK    4  A    between atoms: C_8  and  C_10
REMARK    5  A    between atoms: C_9  and  C_11
REMARK    6  A    between atoms: C_11  and  C_12
REMARK    7  A    between atoms: C_13  and  C_14
REMARK                            x       y       z     vdW  Elec       q    Type
REMARK                         _______ _______ _______ _____ _____    ______ ____
ROOT
ATOM      1  O   UNL     1     -19.352  39.007 -10.956  0.00  0.00    +0.000 OA
ATOM      2  N   UNL     1     -17.435  40.300 -10.768  0.00  0.00    +0.000 N 
ATOM      3  C   UNL     1     -18.715  39.898 -10.401  0.00  0.00    +0.000 C 
ATOM      4  H   UNL     1     -16.992  41.086 -10.306  0.00  0.00    +0.000 HD
ENDROOT
BRANCH   3   7
ATOM      5  N   UNL     1     -19.104  42.242  -7.479  0.00  0.00    +0.000 NA
ATOM      6  N   UNL     1     -20.984  42.737  -6.100  0.00  0.00    +0.000 N 
ATOM      7  C   UNL     1     -19.335  40.636  -9.271  0.00  0.00    +0.000 A 
ATOM      8  C   UNL     1     -20.670  40.441  -8.934  0.00  0.00    +0.000 A 
ATOM      9  C   UNL     1     -18.602  41.539  -8.518  0.00  0.00    +0.000 A 
ATOM     10  C   UNL     1     -21.223  41.146  -7.871  0.00  0.00    +0.000 A 
ATOM     11  C   UNL     1     -20.406  42.026  -7.181  0.00  0.00    +0.000 A 
ATOM     12  C   UNL     1     -22.347  42.575  -5.713  0.00  0.00    +0.000 C 
ATOM     13  H   UNL     1     -20.383  43.379  -5.598  0.00  0.00    +0.000 HD
ENDBRANCH   3   7
BRANCH   2  14
ATOM     14  C   UNL     1     -16.716  39.699 -11.856  0.00  0.00    +0.000 C 
BRANCH  14  15
ATOM     15  C   UNL     1     -16.854  40.492 -13.152  0.00  0.00    +0.000 C 
BRANCH  15  16
ATOM     16  C   UNL     1     -17.719  41.745 -12.986  0.00  0.00    +0.000 C 
BRANCH  16  17
ATOM     17  C   UNL     1     -16.868  43.015 -13.030  0.00  0.00    +0.000 C 
BRANCH  17  21
ATOM     18  F   UNL     1     -15.729  43.067 -10.956  0.00  0.00    +0.000 F 
ATOM     19  F   UNL     1     -16.459  44.965 -11.753  0.00  0.00    +0.000 F 
ATOM     20  F   UNL     1     -17.866  43.505 -10.952  0.00  0.00    +0.000 F 
ATOM     21  C   UNL     1     -16.724  43.645 -11.662  0.00  0.00    +0.000 C 
ENDBRANCH  17  21
ENDBRANCH  16  17
ENDBRANCH  15  16
ENDBRANCH  14  15
ENDBRANCH   2  14
TORSDOF 6
ENDMDL
MODEL 2
REMARK VINA RESULT:    -6.621      3.430      6.569
REMARK INTER + INTRA:          -9.676
REMARK INTER:                  -9.223
REMARK INTRA:                  -0.453
REMARK UNBOUND:                -0.733
REMARK  Name = 115522150
REMARK  7 active torsions:
REMARK  status: ('A' for Active; 'I' for Inactive)
REMARK    1  A    between atoms: N_5  and  C_10
REMARK    2  A    between atoms: N_7  and  C_19
REMARK    3  A    between atoms: C_8  and  C_9
REMARK    4  A    between atoms: C_8  and  C_10
REMARK    5  A    between atoms: C_9  and  C_11
REMARK    6  A    between atoms: C_11  and  C_12
REMARK    7  A    between atoms: C_13  and  C_14
REMARK                            x       y       z     vdW  Elec       q    Type
REMARK                         _______ _______ _______ _____ _____    ______ ____
ROOT
ATOM      1  O   UNL     1     -19.974  40.807 -12.731  0.00  0.00    +0.000 OA
ATOM      2  N   UNL     1     -18.923  40.828 -10.663  0.00  0.00    +0.000 N 
ATOM      3  C   UNL     1     -19.113  41.248 -11.974  0.00  0.00    +0.000 C 
ATOM      4  H   UNL     1     -18.150  41.190 -10.114  0.00  0.00    +0.000 HD
ENDROOT
BRANCH   3   7
ATOM      5  N   UNL     1     -15.911  43.124 -12.626  0.00  0.00    +0.000 NA
ATOM      6  N   UNL     1     -15.486  45.141 -13.821  0.00  0.00    +0.000 N 
ATOM      7  C   UNL     1     -18.174  42.287 -12.472  0.00  0.00    +0.000 A 
ATOM      8  C   UNL     1     -18.631  43.364 -13.223  0.00  0.00    +0.000 A 
ATOM      9  C   UNL     1     -16.818  42.214 -12.203  0.00  0.00    +0.000 A 
ATOM     10  C   UNL     1     -17.729  44.321 -13.676  0.00  0.00    +0.000 A 
ATOM     11  C   UNL     1     -16.393  44.157 -13.353  0.00  0.00    +0.000 A 
ATOM     12  C   UNL     1     -15.901  46.264 -14.595  0.00  0.00    +0.000 C 
ATOM     13  H   UNL     1     -14.510  45.016 -13.583  0.00  0.00    +0.000 HD
ENDBRANCH   3   7
BRANCH   2  14
ATOM     14  C   UNL     1     -19.733  39.814 -10.048  0.00  0.00    +0.000 C 
BRANCH  14  15
ATOM     15  C   UNL     1     -19.994  40.095  -8.571  0.00  0.00    +0.000 C 
BRANCH  15  16
ATOM     16  C   UNL     1     -20.399  41.549  -8.311  0.00  0.00    +0.000 C 
BRANCH  16  17
ATOM     17  C   UNL     1     -20.281  41.899  -6.828  0.00  0.00    +0.000 C 
BRANCH  17  21
ATOM     18  F   UNL     1     -22.526  41.318  -6.358  0.00  0.00    +0.000 F 
ATOM     19  F   UNL     1     -21.499  42.608  -4.926  0.00  0.00    +0.000 F 
ATOM     20  F   UNL     1     -22.101  43.395  -6.869  0.00  0.00    +0.000 F 
ATOM     21  C   UNL     1     -21.613  42.305  -6.236  0.00  0.00    +0.000 C 
ENDBRANCH  17  21
ENDBRANCH  16  17
ENDBRANCH  15  16
ENDBRANCH  14  15
ENDBRANCH   2  14
TORSDOF 6
ENDMDL
MODEL 3
REMARK VINA RESULT:    -6.511      3.840      6.743
REMARK INTER + INTRA:          -9.528
REMARK INTER:                  -9.093
REMARK INTRA:                  -0.435
REMARK UNBOUND:                -0.733
REMARK  Name = 115522150
REMARK  7 active torsions:
REMARK  status: ('A' for Active; 'I' for Inactive)
REMARK    1  A    between atoms: N_5  and  C_10
REMARK    2  A    between atoms: N_7  and  C_19
REMARK    3  A    between atoms: C_8  and  C_9
REMARK    4  A    between atoms: C_8  and  C_10
REMARK    5  A    between atoms: C_9  and  C_11
REMARK    6  A    between atoms: C_11  and  C_12
REMARK    7  A    between atoms: C_13  and  C_14
REMARK                            x       y       z     vdW  Elec       q    Type
REMARK                         _______ _______ _______ _____ _____    ______ ____
ROOT
ATOM      1  O   UNL     1     -19.782  40.440 -12.738  0.00  0.00    +0.000 OA
ATOM      2  N   UNL     1     -18.729  41.568 -11.006  0.00  0.00    +0.000 N 
ATOM      3  C   UNL     1     -19.240  41.448 -12.293  0.00  0.00    +0.000 C 
ATOM      4  H   UNL     1     -18.237  42.409 -10.726  0.00  0.00    +0.000 HD
ENDROOT
BRANCH   3   7
ATOM      5  N   UNL     1     -19.596  43.740 -15.262  0.00  0.00    +0.000 NA
ATOM      6  N   UNL     1     -18.694  45.903 -15.696  0.00  0.00    +0.000 N 
ATOM      7  C   UNL     1     -19.082  42.634 -13.175  0.00  0.00    +0.000 A 
ATOM      8  C   UNL     1     -18.310  43.721 -12.780  0.00  0.00    +0.000 A 
ATOM      9  C   UNL     1     -19.698  42.692 -14.413  0.00  0.00    +0.000 A 
ATOM     10  C   UNL     1     -18.180  44.818 -13.626  0.00  0.00    +0.000 A 
ATOM     11  C   UNL     1     -18.836  44.778 -14.845  0.00  0.00    +0.000 A 
ATOM     12  C   UNL     1     -17.915  47.043 -15.341  0.00  0.00    +0.000 C 
ATOM     13  H   UNL     1     -19.176  45.869 -16.586  0.00  0.00    +0.000 HD
ENDBRANCH   3   7
BRANCH   2  14
ATOM     14  C   UNL     1     -18.784  40.500 -10.048  0.00  0.00    +0.000 C 
BRANCH  14  15
ATOM     15  C   UNL     1     -18.530  40.984  -8.623  0.00  0.00    +0.000 C 
BRANCH  15  16
ATOM     16  C   UNL     1     -19.643  40.572  -7.655  0.00  0.00    +0.000 C 
BRANCH  16  17
ATOM     17  C   UNL     1     -20.959  41.274  -7.994  0.00  0.00    +0.000 C 
BRANCH  17  21
ATOM     18  F   UNL     1     -21.912  43.209  -7.021  0.00  0.00    +0.000 F 
ATOM     19  F   UNL     1     -22.698  41.272  -6.388  0.00  0.00    +0.000 F 
ATOM     20  F   UNL     1     -20.718  41.911  -5.738  0.00  0.00    +0.000 F 
ATOM     21  C   UNL     1     -21.582  41.923  -6.777  0.00  0.00    +0.000 C 
ENDBRANCH  17  21
ENDBRANCH  16  17
ENDBRANCH  15  16
ENDBRANCH  14  15
ENDBRANCH   2  14
TORSDOF 6
ENDMDL
MODEL 4
REMARK VINA RESULT:    -5.880      3.639      5.873
REMARK INTER + INTRA:          -8.675
REMARK INTER:                  -8.015
REMARK INTRA:                  -0.660
REMARK UNBOUND:                -0.733
REMARK  Name = 115522150
REMARK  7 active torsions:
REMARK  status: ('A' for Active; 'I' for Inactive)
REMARK    1  A    between atoms: N_5  and  C_10
REMARK    2  A    between atoms: N_7  and  C_19
REMARK    3  A    between atoms: C_8  and  C_9
REMARK    4  A    between atoms: C_8  and  C_10
REMARK    5  A    between atoms: C_9  and  C_11
REMARK    6  A    between atoms: C_11  and  C_12
REMARK    7  A    between atoms: C_13  and  C_14
REMARK                            x       y       z     vdW  Elec       q    Type
REMARK                         _______ _______ _______ _____ _____    ______ ____
ROOT
ATOM      1  O   UNL     1     -19.362  41.942 -13.924  0.00  0.00    +0.000 OA
ATOM      2  N   UNL     1     -17.572  41.480 -12.523  0.00  0.00    +0.000 N 
ATOM      3  C   UNL     1     -18.452  42.322 -13.192  0.00  0.00    +0.000 C 
ATOM      4  H   UNL     1     -16.803  41.863 -11.984  0.00  0.00    +0.000 HD
ENDROOT
BRANCH   3   7
ATOM      5  N   UNL     1     -18.344  46.018 -13.913  0.00  0.00    +0.000 NA
ATOM      6  N   UNL     1     -17.652  47.862 -12.572  0.00  0.00    +0.000 N 
ATOM      7  C   UNL     1     -18.233  43.780 -13.006  0.00  0.00    +0.000 A 
ATOM      8  C   UNL     1     -17.733  44.282 -11.809  0.00  0.00    +0.000 A 
ATOM      9  C   UNL     1     -18.519  44.681 -14.017  0.00  0.00    +0.000 A 
ATOM     10  C   UNL     1     -17.538  45.652 -11.663  0.00  0.00    +0.000 A 
ATOM     11  C   UNL     1     -17.855  46.469 -12.736  0.00  0.00    +0.000 A 
ATOM     12  C   UNL     1     -17.142  48.429 -11.367  0.00  0.00    +0.000 C 
ATOM     13  H   UNL     1     -17.885  48.456 -13.358  0.00  0.00    +0.000 HD
ENDBRANCH   3   7
BRANCH   2  14
ATOM     14  C   UNL     1     -17.640  40.049 -12.623  0.00  0.00    +0.000 C 
BRANCH  14  15
ATOM     15  C   UNL     1     -18.398  39.419 -11.458  0.00  0.00    +0.000 C 
BRANCH  15  16
ATOM     16  C   UNL     1     -18.457  40.335 -10.232  0.00  0.00    +0.000 C 
BRANCH  16  17
ATOM     17  C   UNL     1     -19.883  40.822  -9.973  0.00  0.00    +0.000 C 
BRANCH  17  21
ATOM     18  F   UNL     1     -21.573  40.436  -8.363  0.00  0.00    +0.000 F 
ATOM     19  F   UNL     1     -19.557  39.741  -7.893  0.00  0.00    +0.000 F 
ATOM     20  F   UNL     1     -20.010  41.874  -7.869  0.00  0.00    +0.000 F 
ATOM     21  C   UNL     1     -20.260  40.712  -8.512  0.00  0.00    +0.000 C 
ENDBRANCH  17  21
ENDBRANCH  16  17
ENDBRANCH  15  16
ENDBRANCH  14  15
ENDBRANCH   2  14
TORSDOF 6
ENDMDL
MODEL 5
REMARK VINA RESULT:    -5.804      3.995      6.417
REMARK INTER + INTRA:          -8.574
REMARK INTER:                  -7.959
REMARK INTRA:                  -0.615
REMARK UNBOUND:                -0.733
REMARK  Name = 115522150
REMARK  7 active torsions:
REMARK  status: ('A' for Active; 'I' for Inactive)
REMARK    1  A    between atoms: N_5  and  C_10
REMARK    2  A    between atoms: N_7  and  C_19
REMARK    3  A    between atoms: C_8  and  C_9
REMARK    4  A    between atoms: C_8  and  C_10
REMARK    5  A    between atoms: C_9  and  C_11
REMARK    6  A    between atoms: C_11  and  C_12
REMARK    7  A    between atoms: C_13  and  C_14
REMARK                            x       y       z     vdW  Elec       q    Type
REMARK                         _______ _______ _______ _____ _____    ______ ____
ROOT
ATOM      1  O   UNL     1     -19.799  41.715 -13.637  0.00  0.00    +0.000 OA
ATOM      2  N   UNL     1     -17.564  41.694 -13.015  0.00  0.00    +0.000 N 
ATOM      3  C   UNL     1     -18.733  42.299 -13.462  0.00  0.00    +0.000 C 
ATOM      4  H   UNL     1     -16.702  42.224 -12.953  0.00  0.00    +0.000 HD
ENDROOT
BRANCH   3   7
ATOM      5  N   UNL     1     -18.186  45.997 -12.992  0.00  0.00    +0.000 NA
ATOM      6  N   UNL     1     -18.374  47.820 -14.514  0.00  0.00    +0.000 N 
ATOM      7  C   UNL     1     -18.644  43.752 -13.763  0.00  0.00    +0.000 A 
ATOM      8  C   UNL     1     -18.920  44.238 -15.036  0.00  0.00    +0.000 A 
ATOM      9  C   UNL     1     -18.285  44.664 -12.785  0.00  0.00    +0.000 A 
ATOM     10  C   UNL     1     -18.829  45.602 -15.289  0.00  0.00    +0.000 A 
ATOM     11  C   UNL     1     -18.462  46.432 -14.242  0.00  0.00    +0.000 A 
ATOM     12  C   UNL     1     -18.645  48.370 -15.802  0.00  0.00    +0.000 C 
ATOM     13  H   UNL     1     -18.105  48.423 -13.747  0.00  0.00    +0.000 HD
ENDBRANCH   3   7
BRANCH   2  14
ATOM     14  C   UNL     1     -17.485  40.293 -12.707  0.00  0.00    +0.000 C 
BRANCH  14  15
ATOM     15  C   UNL     1     -17.573  40.021 -11.208  0.00  0.00    +0.000 C 
BRANCH  15  16
ATOM     16  C   UNL     1     -18.987  39.637 -10.762  0.00  0.00    +0.000 C 
BRANCH  16  17
ATOM     17  C   UNL     1     -19.687  40.809 -10.074  0.00  0.00    +0.000 C 
BRANCH  17  21
ATOM     18  F   UNL     1     -19.360  40.121  -7.833  0.00  0.00    +0.000 F 
ATOM     19  F   UNL     1     -21.097  41.375  -8.258  0.00  0.00    +0.000 F 
ATOM     20  F   UNL     1     -21.066  39.294  -8.909  0.00  0.00    +0.000 F 
ATOM     21  C   UNL     1     -20.306  40.400  -8.755  0.00  0.00    +0.000 C 
ENDBRANCH  17  21
ENDBRANCH  16  17
ENDBRANCH  15  16
ENDBRANCH  14  15
ENDBRANCH   2  14
TORSDOF 6
ENDMDL
