MODEL 1
REMARK VINA RESULT:    -6.225      0.000      0.000
REMARK INTER + INTRA:          -7.358
REMARK INTER:                  -7.498
REMARK INTRA:                   0.140
REMARK UNBOUND:                 0.140
REMARK  Name = 116317286
REMARK  5 active torsions:
REMARK  status: ('A' for Active; 'I' for Inactive)
REMARK    1  A    between atoms: N_4  and  C_7
REMARK    2  A    between atoms: N_4  and  C_10
REMARK    3  A    between atoms: N_6  and  C_12
REMARK    4  A    between atoms: C_7  and  C_11
REMARK    5  A    between atoms: C_8  and  C_9
REMARK                            x       y       z     vdW  Elec       q    Type
REMARK                         _______ _______ _______ _____ _____    ______ ____
ROOT
ATOM      1  N   UNL     1     -16.986  39.922 -12.471  0.00  0.00    +0.000 NA
ATOM      2  C   UNL     1     -18.333  41.039 -10.803  0.00  0.00    +0.000 A 
ATOM      3  C   UNL     1     -17.123  40.575 -11.296  0.00  0.00    +0.000 A 
ATOM      4  C   UNL     1     -19.473  40.818 -11.566  0.00  0.00    +0.000 A 
ATOM      5  C   UNL     1     -19.373  40.149 -12.780  0.00  0.00    +0.000 A 
ATOM      6  C   UNL     1     -18.117  39.724 -13.185  0.00  0.00    +0.000 A 
ENDROOT
BRANCH   2   9
ATOM      7  O   UNL     1     -17.729  42.739  -9.380  0.00  0.00    +0.000 OA
ATOM      8  N   UNL     1     -19.365  41.276  -8.576  0.00  0.00    +0.000 N 
ATOM      9  C   UNL     1     -18.449  41.752  -9.521  0.00  0.00    +0.000 C 
ATOM     10  C   UNL     1     -20.185  40.097  -8.818  0.00  0.00    +0.000 C 
BRANCH   8  11
ATOM     11  C   UNL     1     -19.559  41.928  -7.284  0.00  0.00    +0.000 C 
BRANCH  11  14
ATOM     12  F   UNL     1     -21.665  42.965  -7.126  0.00  0.00    +0.000 F 
ATOM     13  F   UNL     1     -21.042  41.683  -5.475  0.00  0.00    +0.000 F 
ATOM     14  C   UNL     1     -20.995  41.827  -6.822  0.00  0.00    +0.000 C 
ENDBRANCH  11  14
ENDBRANCH   8  11
ENDBRANCH   2   9
BRANCH   3  15
ATOM     15  N   UNL     1     -15.954  40.800 -10.526  0.00  0.00    +0.000 N 
ATOM     16  H   UNL     1     -15.829  40.273  -9.670  0.00  0.00    +0.000 HD
ATOM     17  H   UNL     1     -15.561  41.732 -10.564  0.00  0.00    +0.000 HD
ENDBRANCH   3  15
TORSDOF 4
ENDMDL
MODEL 2
REMARK VINA RESULT:    -5.859      3.486      5.339
REMARK INTER + INTRA:          -6.918
REMARK INTER:                  -6.549
REMARK INTRA:                  -0.369
REMARK UNBOUND:                 0.140
REMARK  Name = 116317286
REMARK  5 active torsions:
REMARK  status: ('A' for Active; 'I' for Inactive)
REMARK    1  A    between atoms: N_4  and  C_7
REMARK    2  A    between atoms: N_4  and  C_10
REMARK    3  A    between atoms: N_6  and  C_12
REMARK    4  A    between atoms: C_7  and  C_11
REMARK    5  A    between atoms: C_8  and  C_9
REMARK                            x       y       z     vdW  Elec       q    Type
REMARK                         _______ _______ _______ _____ _____    ______ ____
ROOT
ATOM      1  N   UNL     1     -20.586  40.116  -9.047  0.00  0.00    +0.000 NA
ATOM      2  C   UNL     1     -18.539  41.084  -9.897  0.00  0.00    +0.000 A 
ATOM      3  C   UNL     1     -19.602  40.196  -9.970  0.00  0.00    +0.000 A 
ATOM      4  C   UNL     1     -18.485  41.943  -8.806  0.00  0.00    +0.000 A 
ATOM      5  C   UNL     1     -19.478  41.891  -7.835  0.00  0.00    +0.000 A 
ATOM      6  C   UNL     1     -20.498  40.967  -8.000  0.00  0.00    +0.000 A 
ENDROOT
BRANCH   2   9
ATOM      7  O   UNL     1     -16.527  40.394 -10.765  0.00  0.00    +0.000 OA
ATOM      8  N   UNL     1     -17.649  42.040 -11.987  0.00  0.00    +0.000 N 
ATOM      9  C   UNL     1     -17.485  41.150 -10.920  0.00  0.00    +0.000 C 
ATOM     10  C   UNL     1     -18.814  42.906 -12.102  0.00  0.00    +0.000 C 
BRANCH   8  11
ATOM     11  C   UNL     1     -16.661  42.162 -13.057  0.00  0.00    +0.000 C 
BRANCH  11  14
ATOM     12  F   UNL     1     -15.757  43.741 -11.564  0.00  0.00    +0.000 F 
ATOM     13  F   UNL     1     -16.312  44.435 -13.556  0.00  0.00    +0.000 F 
ATOM     14  C   UNL     1     -15.793  43.386 -12.872  0.00  0.00    +0.000 C 
ENDBRANCH  11  14
ENDBRANCH   8  11
ENDBRANCH   2   9
BRANCH   3  15
ATOM     15  N   UNL     1     -19.667  39.318 -11.081  0.00  0.00    +0.000 N 
ATOM     16  H   UNL     1     -19.285  39.628 -11.967  0.00  0.00    +0.000 HD
ATOM     17  H   UNL     1     -20.453  38.680 -11.107  0.00  0.00    +0.000 HD
ENDBRANCH   3  15
TORSDOF 4
ENDMDL
MODEL 3
REMARK VINA RESULT:    -5.257      3.842      4.694
REMARK INTER + INTRA:          -6.192
REMARK INTER:                  -5.909
REMARK INTRA:                  -0.282
REMARK UNBOUND:                 0.140
REMARK  Name = 116317286
REMARK  5 active torsions:
REMARK  status: ('A' for Active; 'I' for Inactive)
REMARK    1  A    between atoms: N_4  and  C_7
REMARK    2  A    between atoms: N_4  and  C_10
REMARK    3  A    between atoms: N_6  and  C_12
REMARK    4  A    between atoms: C_7  and  C_11
REMARK    5  A    between atoms: C_8  and  C_9
REMARK                            x       y       z     vdW  Elec       q    Type
REMARK                         _______ _______ _______ _____ _____    ______ ____
ROOT
ATOM      1  N   UNL     1     -15.600  45.586 -12.464  0.00  0.00    +0.000 NA
ATOM      2  C   UNL     1     -17.001  43.617 -12.399  0.00  0.00    +0.000 A 
ATOM      3  C   UNL     1     -15.769  44.246 -12.488  0.00  0.00    +0.000 A 
ATOM      4  C   UNL     1     -18.131  44.416 -12.276  0.00  0.00    +0.000 A 
ATOM      5  C   UNL     1     -17.999  45.800 -12.248  0.00  0.00    +0.000 A 
ATOM      6  C   UNL     1     -16.722  46.331 -12.345  0.00  0.00    +0.000 A 
ENDROOT
BRANCH   2   9
ATOM      7  O   UNL     1     -16.944  41.604 -13.505  0.00  0.00    +0.000 OA
ATOM      8  N   UNL     1     -17.500  41.500 -11.236  0.00  0.00    +0.000 N 
ATOM      9  C   UNL     1     -17.152  42.154 -12.424  0.00  0.00    +0.000 C 
ATOM     10  C   UNL     1     -17.730  42.223  -9.993  0.00  0.00    +0.000 C 
BRANCH   8  11
ATOM     11  C   UNL     1     -17.657  40.050 -11.164  0.00  0.00    +0.000 C 
BRANCH  11  14
ATOM     12  F   UNL     1     -19.828  40.563 -11.912  0.00  0.00    +0.000 F 
ATOM     13  F   UNL     1     -19.630  39.606  -9.963  0.00  0.00    +0.000 F 
ATOM     14  C   UNL     1     -19.113  39.646 -11.215  0.00  0.00    +0.000 C 
ENDBRANCH  11  14
ENDBRANCH   8  11
ENDBRANCH   2   9
BRANCH   3  15
ATOM     15  N   UNL     1     -14.611  43.437 -12.610  0.00  0.00    +0.000 N 
ATOM     16  H   UNL     1     -13.954  43.640 -13.354  0.00  0.00    +0.000 HD
ATOM     17  H   UNL     1     -14.701  42.473 -12.314  0.00  0.00    +0.000 HD
ENDBRANCH   3  15
TORSDOF 4
ENDMDL
MODEL 4
REMARK VINA RESULT:    -4.701      6.996      8.209
REMARK INTER + INTRA:          -5.523
REMARK INTER:                  -5.317
REMARK INTRA:                  -0.206
REMARK UNBOUND:                 0.140
REMARK  Name = 116317286
REMARK  5 active torsions:
REMARK  status: ('A' for Active; 'I' for Inactive)
REMARK    1  A    between atoms: N_4  and  C_7
REMARK    2  A    between atoms: N_4  and  C_10
REMARK    3  A    between atoms: N_6  and  C_12
REMARK    4  A    between atoms: C_7  and  C_11
REMARK    5  A    between atoms: C_8  and  C_9
REMARK                            x       y       z     vdW  Elec       q    Type
REMARK                         _______ _______ _______ _____ _____    ______ ____
ROOT
ATOM      1  N   UNL     1     -20.673  46.168 -18.977  0.00  0.00    +0.000 NA
ATOM      2  C   UNL     1     -19.808  44.271 -17.753  0.00  0.00    +0.000 A 
ATOM      3  C   UNL     1     -20.745  45.270 -17.969  0.00  0.00    +0.000 A 
ATOM      4  C   UNL     1     -18.730  44.190 -18.626  0.00  0.00    +0.000 A 
ATOM      5  C   UNL     1     -18.621  45.096 -19.675  0.00  0.00    +0.000 A 
ATOM      6  C   UNL     1     -19.610  46.058 -19.805  0.00  0.00    +0.000 A 
ENDROOT
BRANCH   2   9
ATOM      7  O   UNL     1     -20.434  42.222 -16.922  0.00  0.00    +0.000 OA
ATOM      8  N   UNL     1     -19.418  43.670 -15.393  0.00  0.00    +0.000 N 
ATOM      9  C   UNL     1     -19.916  43.305 -16.649  0.00  0.00    +0.000 C 
ATOM     10  C   UNL     1     -18.817  44.974 -15.148  0.00  0.00    +0.000 C 
BRANCH   8  11
ATOM     11  C   UNL     1     -19.468  42.770 -14.244  0.00  0.00    +0.000 C 
BRANCH  11  14
ATOM     12  F   UNL     1     -17.687  41.405 -13.536  0.00  0.00    +0.000 F 
ATOM     13  F   UNL     1     -18.252  43.077 -12.254  0.00  0.00    +0.000 F 
ATOM     14  C   UNL     1     -18.130  42.686 -13.546  0.00  0.00    +0.000 C 
ENDBRANCH  11  14
ENDBRANCH   8  11
ENDBRANCH   2   9
BRANCH   3  15
ATOM     15  N   UNL     1     -21.848  45.358 -17.085  0.00  0.00    +0.000 N 
ATOM     16  H   UNL     1     -21.810  46.027 -16.326  0.00  0.00    +0.000 HD
ATOM     17  H   UNL     1     -22.372  44.504 -16.930  0.00  0.00    +0.000 HD
ENDBRANCH   3  15
TORSDOF 4
ENDMDL
MODEL 5
REMARK VINA RESULT:    -4.691      4.497      5.605
REMARK INTER + INTRA:          -5.511
REMARK INTER:                  -5.184
REMARK INTRA:                  -0.326
REMARK UNBOUND:                 0.140
REMARK  Name = 116317286
REMARK  5 active torsions:
REMARK  status: ('A' for Active; 'I' for Inactive)
REMARK    1  A    between atoms: N_4  and  C_7
REMARK    2  A    between atoms: N_4  and  C_10
REMARK    3  A    between atoms: N_6  and  C_12
REMARK    4  A    between atoms: C_7  and  C_11
REMARK    5  A    between atoms: C_8  and  C_9
REMARK                            x       y       z     vdW  Elec       q    Type
REMARK                         _______ _______ _______ _____ _____    ______ ____
ROOT
ATOM      1  N   UNL     1     -18.891  40.486 -13.168  0.00  0.00    +0.000 NA
ATOM      2  C   UNL     1     -18.192  42.653 -12.354  0.00  0.00    +0.000 A 
ATOM      3  C   UNL     1     -18.653  41.804 -13.349  0.00  0.00    +0.000 A 
ATOM      4  C   UNL     1     -17.961  42.114 -11.095  0.00  0.00    +0.000 A 
ATOM      5  C   UNL     1     -18.194  40.762 -10.869  0.00  0.00    +0.000 A 
ATOM      6  C   UNL     1     -18.654  39.997 -11.929  0.00  0.00    +0.000 A 
ENDROOT
BRANCH   2   9
ATOM      7  O   UNL     1     -18.936  44.816 -12.574  0.00  0.00    +0.000 OA
ATOM      8  N   UNL     1     -16.626  44.512 -12.770  0.00  0.00    +0.000 N 
ATOM      9  C   UNL     1     -17.945  44.086 -12.581  0.00  0.00    +0.000 C 
ATOM     10  C   UNL     1     -15.504  43.585 -12.765  0.00  0.00    +0.000 C 
BRANCH   8  11
ATOM     11  C   UNL     1     -16.287  45.917 -12.987  0.00  0.00    +0.000 C 
BRANCH  11  14
ATOM     12  F   UNL     1     -17.146  47.547 -11.524  0.00  0.00    +0.000 F 
ATOM     13  F   UNL     1     -14.978  47.365 -11.674  0.00  0.00    +0.000 F 
ATOM     14  C   UNL     1     -16.134  46.658 -11.678  0.00  0.00    +0.000 C 
ENDBRANCH  11  14
ENDBRANCH   8  11
ENDBRANCH   2   9
BRANCH   3  15
ATOM     15  N   UNL     1     -18.894  42.347 -14.635  0.00  0.00    +0.000 N 
ATOM     16  H   UNL     1     -19.255  43.291 -14.703  0.00  0.00    +0.000 HD
ATOM     17  H   UNL     1     -19.157  41.691 -15.360  0.00  0.00    +0.000 HD
ENDBRANCH   3  15
TORSDOF 4
ENDMDL
