MODEL 1
REMARK VINA RESULT:    -6.393      0.000      0.000
REMARK INTER + INTRA:          -7.598
REMARK INTER:                  -7.514
REMARK INTRA:                  -0.085
REMARK UNBOUND:                -0.085
REMARK  Name = 116317298
REMARK  4 active torsions:
REMARK  status: ('A' for Active; 'I' for Inactive)
REMARK    1  A    between atoms: N_4  and  C_7
REMARK    2  A    between atoms: N_4  and  C_10
REMARK    3  A    between atoms: C_7  and  C_11
REMARK    4  A    between atoms: C_8  and  C_9
REMARK                            x       y       z     vdW  Elec       q    Type
REMARK                         _______ _______ _______ _____ _____    ______ ____
ROOT
ATOM      1  N   UNL     1     -16.837  39.887 -11.167  0.00  0.00    +0.000 NA
ATOM      2  N   UNL     1     -16.926  39.716 -13.541  0.00  0.00    +0.000 N 
ATOM      3  C   UNL     1     -18.434  41.289 -10.015  0.00  0.00    +0.000 A 
ATOM      4  C   UNL     1     -19.017  41.635 -11.229  0.00  0.00    +0.000 A 
ATOM      5  C   UNL     1     -17.356  40.420 -10.037  0.00  0.00    +0.000 A 
ATOM      6  C   UNL     1     -18.511  41.107 -12.412  0.00  0.00    +0.000 A 
ATOM      7  C   UNL     1     -17.430  40.245 -12.327  0.00  0.00    +0.000 A 
ATOM      8  H   UNL     1     -17.563  39.609 -14.321  0.00  0.00    +0.000 HD
ATOM      9  H   UNL     1     -16.139  39.081 -13.474  0.00  0.00    +0.000 HD
ENDROOT
BRANCH   3  12
ATOM     10  O   UNL     1     -18.351  42.808  -8.291  0.00  0.00    +0.000 OA
ATOM     11  N   UNL     1     -20.060  41.218  -8.163  0.00  0.00    +0.000 N 
ATOM     12  C   UNL     1     -18.946  41.831  -8.746  0.00  0.00    +0.000 C 
ATOM     13  C   UNL     1     -20.711  40.062  -8.764  0.00  0.00    +0.000 C 
BRANCH  11  14
ATOM     14  C   UNL     1     -20.647  41.696  -6.913  0.00  0.00    +0.000 C 
BRANCH  14  17
ATOM     15  F   UNL     1     -22.233  43.405  -6.606  0.00  0.00    +0.000 F 
ATOM     16  F   UNL     1     -22.924  41.343  -6.439  0.00  0.00    +0.000 F 
ATOM     17  C   UNL     1     -22.072  42.158  -7.111  0.00  0.00    +0.000 C 
ENDBRANCH  14  17
ENDBRANCH  11  14
ENDBRANCH   3  12
TORSDOF 3
ENDMDL
MODEL 2
REMARK VINA RESULT:    -6.200      3.235      5.750
REMARK INTER + INTRA:          -7.372
REMARK INTER:                  -7.958
REMARK INTRA:                   0.585
REMARK UNBOUND:                -0.085
REMARK  Name = 116317298
REMARK  4 active torsions:
REMARK  status: ('A' for Active; 'I' for Inactive)
REMARK    1  A    between atoms: N_4  and  C_7
REMARK    2  A    between atoms: N_4  and  C_10
REMARK    3  A    between atoms: C_7  and  C_11
REMARK    4  A    between atoms: C_8  and  C_9
REMARK                            x       y       z     vdW  Elec       q    Type
REMARK                         _______ _______ _______ _____ _____    ______ ____
ROOT
ATOM      1  N   UNL     1     -20.050  42.359  -6.449  0.00  0.00    +0.000 NA
ATOM      2  N   UNL     1     -21.951  43.128  -5.238  0.00  0.00    +0.000 N 
ATOM      3  C   UNL     1     -20.359  40.872  -8.330  0.00  0.00    +0.000 A 
ATOM      4  C   UNL     1     -21.735  40.900  -8.135  0.00  0.00    +0.000 A 
ATOM      5  C   UNL     1     -19.566  41.612  -7.468  0.00  0.00    +0.000 A 
ATOM      6  C   UNL     1     -22.270  41.657  -7.097  0.00  0.00    +0.000 A 
ATOM      7  C   UNL     1     -21.391  42.362  -6.291  0.00  0.00    +0.000 A 
ATOM      8  H   UNL     1     -22.891  43.487  -5.350  0.00  0.00    +0.000 HD
ATOM      9  H   UNL     1     -21.306  43.647  -4.654  0.00  0.00    +0.000 HD
ENDROOT
BRANCH   3  12
ATOM     10  O   UNL     1     -20.258  38.973  -9.621  0.00  0.00    +0.000 OA
ATOM     11  N   UNL     1     -18.705  40.640 -10.143  0.00  0.00    +0.000 N 
ATOM     12  C   UNL     1     -19.763  40.081  -9.419  0.00  0.00    +0.000 C 
ATOM     13  C   UNL     1     -18.172  41.962  -9.843  0.00  0.00    +0.000 C 
BRANCH  11  14
ATOM     14  C   UNL     1     -18.062  39.935 -11.250  0.00  0.00    +0.000 C 
BRANCH  14  17
ATOM     15  F   UNL     1     -19.681  41.127 -12.471  0.00  0.00    +0.000 F 
ATOM     16  F   UNL     1     -19.680  38.953 -12.647  0.00  0.00    +0.000 F 
ATOM     17  C   UNL     1     -18.876  40.038 -12.519  0.00  0.00    +0.000 C 
ENDBRANCH  14  17
ENDBRANCH  11  14
ENDBRANCH   3  12
TORSDOF 3
ENDMDL
MODEL 3
REMARK VINA RESULT:    -5.759      3.611      5.933
REMARK INTER + INTRA:          -6.854
REMARK INTER:                  -7.403
REMARK INTRA:                   0.550
REMARK UNBOUND:                -0.085
REMARK  Name = 116317298
REMARK  4 active torsions:
REMARK  status: ('A' for Active; 'I' for Inactive)
REMARK    1  A    between atoms: N_4  and  C_7
REMARK    2  A    between atoms: N_4  and  C_10
REMARK    3  A    between atoms: C_7  and  C_11
REMARK    4  A    between atoms: C_8  and  C_9
REMARK                            x       y       z     vdW  Elec       q    Type
REMARK                         _______ _______ _______ _____ _____    ______ ____
ROOT
ATOM      1  N   UNL     1     -19.264  42.303  -7.184  0.00  0.00    +0.000 NA
ATOM      2  N   UNL     1     -21.108  42.533  -5.694  0.00  0.00    +0.000 N 
ATOM      3  C   UNL     1     -19.513  40.973  -9.188  0.00  0.00    +0.000 A 
ATOM      4  C   UNL     1     -20.831  40.692  -8.846  0.00  0.00    +0.000 A 
ATOM      5  C   UNL     1     -18.777  41.776  -8.331  0.00  0.00    +0.000 A 
ATOM      6  C   UNL     1     -21.366  41.216  -7.674  0.00  0.00    +0.000 A 
ATOM      7  C   UNL     1     -20.548  42.008  -6.885  0.00  0.00    +0.000 A 
ATOM      8  H   UNL     1     -22.107  42.697  -5.662  0.00  0.00    +0.000 HD
ATOM      9  H   UNL     1     -20.508  43.118  -5.123  0.00  0.00    +0.000 HD
ENDROOT
BRANCH   3  12
ATOM     10  O   UNL     1     -19.131  39.245 -10.654  0.00  0.00    +0.000 OA
ATOM     11  N   UNL     1     -18.176  41.299 -11.233  0.00  0.00    +0.000 N 
ATOM     12  C   UNL     1     -18.918  40.434 -10.421  0.00  0.00    +0.000 C 
ATOM     13  C   UNL     1     -17.966  42.698 -10.888  0.00  0.00    +0.000 C 
BRANCH  11  14
ATOM     14  C   UNL     1     -17.562  40.856 -12.484  0.00  0.00    +0.000 C 
BRANCH  14  17
ATOM     15  F   UNL     1     -16.255  39.031 -11.781  0.00  0.00    +0.000 F 
ATOM     16  F   UNL     1     -15.526  41.034 -11.317  0.00  0.00    +0.000 F 
ATOM     17  C   UNL     1     -16.176  40.299 -12.254  0.00  0.00    +0.000 C 
ENDBRANCH  14  17
ENDBRANCH  11  14
ENDBRANCH   3  12
TORSDOF 3
ENDMDL
MODEL 4
REMARK VINA RESULT:    -5.649      3.302      5.737
REMARK INTER + INTRA:          -6.725
REMARK INTER:                  -6.877
REMARK INTRA:                   0.152
REMARK UNBOUND:                -0.085
REMARK  Name = 116317298
REMARK  4 active torsions:
REMARK  status: ('A' for Active; 'I' for Inactive)
REMARK    1  A    between atoms: N_4  and  C_7
REMARK    2  A    between atoms: N_4  and  C_10
REMARK    3  A    between atoms: C_7  and  C_11
REMARK    4  A    between atoms: C_8  and  C_9
REMARK                            x       y       z     vdW  Elec       q    Type
REMARK                         _______ _______ _______ _____ _____    ______ ____
ROOT
ATOM      1  N   UNL     1     -21.786  40.450  -8.263  0.00  0.00    +0.000 NA
ATOM      2  N   UNL     1     -22.846  41.747  -6.570  0.00  0.00    +0.000 N 
ATOM      3  C   UNL     1     -19.498  40.938  -8.877  0.00  0.00    +0.000 A 
ATOM      4  C   UNL     1     -19.460  41.967  -7.944  0.00  0.00    +0.000 A 
ATOM      5  C   UNL     1     -20.674  40.215  -8.998  0.00  0.00    +0.000 A 
ATOM      6  C   UNL     1     -20.583  42.239  -7.169  0.00  0.00    +0.000 A 
ATOM      7  C   UNL     1     -21.710  41.458  -7.366  0.00  0.00    +0.000 A 
ATOM      8  H   UNL     1     -22.702  42.157  -5.655  0.00  0.00    +0.000 HD
ATOM      9  H   UNL     1     -23.667  41.169  -6.713  0.00  0.00    +0.000 HD
ENDROOT
BRANCH   3  12
ATOM     10  O   UNL     1     -17.313  40.266  -9.113  0.00  0.00    +0.000 OA
ATOM     11  N   UNL     1     -18.450  40.744 -11.099  0.00  0.00    +0.000 N 
ATOM     12  C   UNL     1     -18.327  40.626  -9.711  0.00  0.00    +0.000 C 
ATOM     13  C   UNL     1     -19.686  41.178 -11.735  0.00  0.00    +0.000 C 
BRANCH  11  14
ATOM     14  C   UNL     1     -17.345  40.440 -12.007  0.00  0.00    +0.000 C 
BRANCH  14  17
ATOM     15  F   UNL     1     -16.791  42.693 -11.619  0.00  0.00    +0.000 F 
ATOM     16  F   UNL     1     -17.349  42.125 -13.649  0.00  0.00    +0.000 F 
ATOM     17  C   UNL     1     -16.700  41.700 -12.537  0.00  0.00    +0.000 C 
ENDBRANCH  14  17
ENDBRANCH  11  14
ENDBRANCH   3  12
TORSDOF 3
ENDMDL
MODEL 5
REMARK VINA RESULT:    -5.171      4.476      6.035
REMARK INTER + INTRA:          -6.163
REMARK INTER:                  -6.036
REMARK INTRA:                  -0.127
REMARK UNBOUND:                -0.085
REMARK  Name = 116317298
REMARK  4 active torsions:
REMARK  status: ('A' for Active; 'I' for Inactive)
REMARK    1  A    between atoms: N_4  and  C_7
REMARK    2  A    between atoms: N_4  and  C_10
REMARK    3  A    between atoms: C_7  and  C_11
REMARK    4  A    between atoms: C_8  and  C_9
REMARK                            x       y       z     vdW  Elec       q    Type
REMARK                         _______ _______ _______ _____ _____    ______ ____
ROOT
ATOM      1  N   UNL     1     -19.204  39.531 -10.768  0.00  0.00    +0.000 NA
ATOM      2  N   UNL     1     -20.785  39.429  -8.989  0.00  0.00    +0.000 N 
ATOM      3  C   UNL     1     -17.559  41.303 -10.796  0.00  0.00    +0.000 A 
ATOM      4  C   UNL     1     -18.080  41.815  -9.614  0.00  0.00    +0.000 A 
ATOM      5  C   UNL     1     -18.152  40.169 -11.329  0.00  0.00    +0.000 A 
ATOM      6  C   UNL     1     -19.162  41.186  -9.007  0.00  0.00    +0.000 A 
ATOM      7  C   UNL     1     -19.683  40.058  -9.619  0.00  0.00    +0.000 A 
ATOM      8  H   UNL     1     -20.880  39.514  -7.984  0.00  0.00    +0.000 HD
ATOM      9  H   UNL     1     -21.159  38.599  -9.437  0.00  0.00    +0.000 HD
ENDROOT
BRANCH   3  12
ATOM     10  O   UNL     1     -15.306  41.471 -11.216  0.00  0.00    +0.000 OA
ATOM     11  N   UNL     1     -16.664  43.019 -12.322  0.00  0.00    +0.000 N 
ATOM     12  C   UNL     1     -16.415  41.945 -11.462  0.00  0.00    +0.000 C 
ATOM     13  C   UNL     1     -18.009  43.524 -12.563  0.00  0.00    +0.000 C 
BRANCH  11  14
ATOM     14  C   UNL     1     -15.592  43.707 -13.039  0.00  0.00    +0.000 C 
BRANCH  14  17
ATOM     15  F   UNL     1     -14.790  45.917 -12.961  0.00  0.00    +0.000 F 
ATOM     16  F   UNL     1     -13.771  44.429 -11.736  0.00  0.00    +0.000 F 
ATOM     17  C   UNL     1     -14.986  44.810 -12.203  0.00  0.00    +0.000 C 
ENDBRANCH  14  17
ENDBRANCH  11  14
ENDBRANCH   3  12
TORSDOF 3
ENDMDL
