MODEL 1
REMARK VINA RESULT:    -5.943      0.000      0.000
REMARK INTER + INTRA:          -5.943
REMARK INTER:                  -5.943
REMARK INTRA:                   0.000
REMARK UNBOUND:                 0.000
REMARK  Name = 117781666
REMARK  2 active torsions:
REMARK  status: ('A' for Active; 'I' for Inactive)
REMARK    1  A    between atoms: N_2  and  C_8
REMARK    2  A    between atoms: C_7  and  C_11
REMARK                            x       y       z     vdW  Elec       q    Type
REMARK                         _______ _______ _______ _____ _____    ______ ____
ROOT
ATOM      1  O   UNL     1     -19.610  38.571 -11.485  0.00  0.00    +0.000 OA
ATOM      2  N   UNL     1     -17.775  42.096 -10.881  0.00  0.00    +0.000 N 
ATOM      3  N   UNL     1     -18.264  40.230 -12.300  0.00  0.00    +0.000 NA
ATOM      4  N   UNL     1     -18.675  42.225  -8.633  0.00  0.00    +0.000 NA
ATOM      5  C   UNL     1     -18.551  41.570  -9.817  0.00  0.00    +0.000 A 
ATOM      6  C   UNL     1     -19.191  40.343 -10.022  0.00  0.00    +0.000 A 
ATOM      7  C   UNL     1     -17.687  41.372 -12.063  0.00  0.00    +0.000 A 
ATOM      8  C   UNL     1     -17.131  43.375 -10.612  0.00  0.00    +0.000 C 
ATOM      9  C   UNL     1     -19.040  39.645 -11.323  0.00  0.00    +0.000 A 
ATOM     10  C   UNL     1     -19.965  39.785  -9.004  0.00  0.00    +0.000 A 
ATOM     11  C   UNL     1     -16.858  41.922 -13.207  0.00  0.00    +0.000 C 
ATOM     12  C   UNL     1     -20.092  40.456  -7.797  0.00  0.00    +0.000 A 
ATOM     13  C   UNL     1     -19.432  41.663  -7.663  0.00  0.00    +0.000 A 
ENDROOT
TORSDOF 0
ENDMDL
MODEL 2
REMARK VINA RESULT:    -5.683      1.185      3.722
REMARK INTER + INTRA:          -5.683
REMARK INTER:                  -5.683
REMARK INTRA:                   0.000
REMARK UNBOUND:                 0.000
REMARK  Name = 117781666
REMARK  2 active torsions:
REMARK  status: ('A' for Active; 'I' for Inactive)
REMARK    1  A    between atoms: N_2  and  C_8
REMARK    2  A    between atoms: C_7  and  C_11
REMARK                            x       y       z     vdW  Elec       q    Type
REMARK                         _______ _______ _______ _____ _____    ______ ____
ROOT
ATOM      1  O   UNL     1     -19.033  39.412 -13.131  0.00  0.00    +0.000 OA
ATOM      2  N   UNL     1     -18.777  41.418  -9.657  0.00  0.00    +0.000 N 
ATOM      3  N   UNL     1     -19.682  39.617 -10.949  0.00  0.00    +0.000 NA
ATOM      4  N   UNL     1     -17.216  42.995 -10.636  0.00  0.00    +0.000 NA
ATOM      5  C   UNL     1     -18.011  41.898 -10.749  0.00  0.00    +0.000 A 
ATOM      6  C   UNL     1     -18.097  41.204 -11.961  0.00  0.00    +0.000 A 
ATOM      7  C   UNL     1     -19.571  40.294  -9.843  0.00  0.00    +0.000 A 
ATOM      8  C   UNL     1     -18.649  42.180  -8.422  0.00  0.00    +0.000 C 
ATOM      9  C   UNL     1     -18.971  40.010 -12.061  0.00  0.00    +0.000 A 
ATOM     10  C   UNL     1     -17.361  41.639 -13.065  0.00  0.00    +0.000 A 
ATOM     11  C   UNL     1     -20.397  39.773  -8.684  0.00  0.00    +0.000 C 
ATOM     12  C   UNL     1     -16.550  42.758 -12.946  0.00  0.00    +0.000 A 
ATOM     13  C   UNL     1     -16.513  43.396 -11.720  0.00  0.00    +0.000 A 
ENDROOT
TORSDOF 0
ENDMDL
MODEL 3
REMARK VINA RESULT:    -5.311      2.963      4.643
REMARK INTER + INTRA:          -5.311
REMARK INTER:                  -5.311
REMARK INTRA:                   0.000
REMARK UNBOUND:                 0.000
REMARK  Name = 117781666
REMARK  2 active torsions:
REMARK  status: ('A' for Active; 'I' for Inactive)
REMARK    1  A    between atoms: N_2  and  C_8
REMARK    2  A    between atoms: C_7  and  C_11
REMARK                            x       y       z     vdW  Elec       q    Type
REMARK                         _______ _______ _______ _____ _____    ______ ____
ROOT
ATOM      1  O   UNL     1     -20.129  42.919 -14.332  0.00  0.00    +0.000 OA
ATOM      2  N   UNL     1     -17.507  40.973 -11.988  0.00  0.00    +0.000 N 
ATOM      3  N   UNL     1     -19.639  41.075 -13.072  0.00  0.00    +0.000 NA
ATOM      4  N   UNL     1     -15.904  42.779 -12.211  0.00  0.00    +0.000 NA
ATOM      5  C   UNL     1     -17.117  42.237 -12.499  0.00  0.00    +0.000 A 
ATOM      6  C   UNL     1     -18.026  42.919 -13.314  0.00  0.00    +0.000 A 
ATOM      7  C   UNL     1     -18.762  40.479 -12.318  0.00  0.00    +0.000 A 
ATOM      8  C   UNL     1     -16.521  40.309 -11.145  0.00  0.00    +0.000 C 
ATOM      9  C   UNL     1     -19.345  42.307 -13.614  0.00  0.00    +0.000 A 
ATOM     10  C   UNL     1     -17.688  44.167 -13.840  0.00  0.00    +0.000 A 
ATOM     11  C   UNL     1     -19.191  39.130 -11.777  0.00  0.00    +0.000 C 
ATOM     12  C   UNL     1     -16.449  44.718 -13.546  0.00  0.00    +0.000 A 
ATOM     13  C   UNL     1     -15.601  43.990 -12.734  0.00  0.00    +0.000 A 
ENDROOT
TORSDOF 0
ENDMDL
MODEL 4
REMARK VINA RESULT:    -5.243      2.658      3.396
REMARK INTER + INTRA:          -5.243
REMARK INTER:                  -5.243
REMARK INTRA:                   0.000
REMARK UNBOUND:                 0.000
REMARK  Name = 117781666
REMARK  2 active torsions:
REMARK  status: ('A' for Active; 'I' for Inactive)
REMARK    1  A    between atoms: N_2  and  C_8
REMARK    2  A    between atoms: C_7  and  C_11
REMARK                            x       y       z     vdW  Elec       q    Type
REMARK                         _______ _______ _______ _____ _____    ______ ____
ROOT
ATOM      1  O   UNL     1     -20.076  42.595 -14.318  0.00  0.00    +0.000 OA
ATOM      2  N   UNL     1     -16.644  42.845 -12.241  0.00  0.00    +0.000 N 
ATOM      3  N   UNL     1     -18.148  43.740 -13.875  0.00  0.00    +0.000 NA
ATOM      4  N   UNL     1     -17.143  40.770 -11.088  0.00  0.00    +0.000 NA
ATOM      5  C   UNL     1     -17.480  41.727 -11.993  0.00  0.00    +0.000 A 
ATOM      6  C   UNL     1     -18.675  41.635 -12.714  0.00  0.00    +0.000 A 
ATOM      7  C   UNL     1     -17.047  43.783 -13.182  0.00  0.00    +0.000 A 
ATOM      8  C   UNL     1     -15.412  42.889 -11.464  0.00  0.00    +0.000 C 
ATOM      9  C   UNL     1     -19.023  42.691 -13.697  0.00  0.00    +0.000 A 
ATOM     10  C   UNL     1     -19.532  40.553 -12.504  0.00  0.00    +0.000 A 
ATOM     11  C   UNL     1     -16.160  44.981 -13.459  0.00  0.00    +0.000 C 
ATOM     12  C   UNL     1     -19.186  39.578 -11.579  0.00  0.00    +0.000 A 
ATOM     13  C   UNL     1     -17.990  39.732 -10.904  0.00  0.00    +0.000 A 
ENDROOT
TORSDOF 0
ENDMDL
MODEL 5
REMARK VINA RESULT:    -5.228      2.500      3.806
REMARK INTER + INTRA:          -5.228
REMARK INTER:                  -5.228
REMARK INTRA:                   0.000
REMARK UNBOUND:                 0.000
REMARK  Name = 117781666
REMARK  2 active torsions:
REMARK  status: ('A' for Active; 'I' for Inactive)
REMARK    1  A    between atoms: N_2  and  C_8
REMARK    2  A    between atoms: C_7  and  C_11
REMARK                            x       y       z     vdW  Elec       q    Type
REMARK                         _______ _______ _______ _____ _____    ______ ____
ROOT
ATOM      1  O   UNL     1     -17.310  42.801  -9.428  0.00  0.00    +0.000 OA
ATOM      2  N   UNL     1     -18.725  42.998 -13.185  0.00  0.00    +0.000 N 
ATOM      3  N   UNL     1     -17.747  44.068 -11.280  0.00  0.00    +0.000 NA
ATOM      4  N   UNL     1     -19.250  40.630 -13.155  0.00  0.00    +0.000 NA
ATOM      5  C   UNL     1     -18.759  41.737 -12.537  0.00  0.00    +0.000 A 
ATOM      6  C   UNL     1     -18.269  41.664 -11.229  0.00  0.00    +0.000 A 
ATOM      7  C   UNL     1     -18.214  44.089 -12.495  0.00  0.00    +0.000 A 
ATOM      8  C   UNL     1     -19.250  43.016 -14.545  0.00  0.00    +0.000 C 
ATOM      9  C   UNL     1     -17.738  42.885 -10.575  0.00  0.00    +0.000 A 
ATOM     10  C   UNL     1     -18.281  40.444 -10.550  0.00  0.00    +0.000 A 
ATOM     11  C   UNL     1     -18.175  45.442 -13.175  0.00  0.00    +0.000 C 
ATOM     12  C   UNL     1     -18.782  39.316 -11.183  0.00  0.00    +0.000 A 
ATOM     13  C   UNL     1     -19.251  39.461 -12.475  0.00  0.00    +0.000 A 
ENDROOT
TORSDOF 0
ENDMDL
