MODEL 1
REMARK VINA RESULT:    -6.851      0.000      0.000
REMARK INTER + INTRA:          -7.782
REMARK INTER:                  -7.652
REMARK INTRA:                  -0.130
REMARK UNBOUND:                -0.130
REMARK  Name = 117806587
REMARK  2 active torsions:
REMARK  status: ('A' for Active; 'I' for Inactive)
REMARK    1  A    between atoms: C_5  and  C_9
REMARK    2  A    between atoms: C_11  and  C_12
REMARK                            x       y       z     vdW  Elec       q    Type
REMARK                         _______ _______ _______ _____ _____    ______ ____
ROOT
ATOM      1  N   UNL     1     -22.441  41.595  -6.899  0.00  0.00    +0.000 NA
ATOM      2  N   UNL     1     -22.007  43.157  -5.153  0.00  0.00    +0.000 N 
ATOM      3  C   UNL     1     -20.614  40.814  -8.277  0.00  0.00    +0.000 A 
ATOM      4  C   UNL     1     -19.724  41.606  -7.560  0.00  0.00    +0.000 A 
ATOM      5  C   UNL     1     -20.191  42.391  -6.512  0.00  0.00    +0.000 A 
ATOM      6  C   UNL     1     -21.950  40.844  -7.910  0.00  0.00    +0.000 A 
ATOM      7  C   UNL     1     -21.546  42.351  -6.224  0.00  0.00    +0.000 A 
ATOM      8  H   UNL     1     -21.364  43.371  -4.400  0.00  0.00    +0.000 HD
ATOM      9  H   UNL     1     -22.996  43.120  -4.943  0.00  0.00    +0.000 HD
ENDROOT
BRANCH   3  10
ATOM     10  C   UNL     1     -20.158  39.984  -9.377  0.00  0.00    +0.000 C 
ATOM     11  C   UNL     1     -19.151  40.292 -10.227  0.00  0.00    +0.000 C 
BRANCH  11  14
ATOM     12  O   UNL     1     -19.530  38.527 -11.796  0.00  0.00    +0.000 OA
ATOM     13  N   UNL     1     -17.458  39.522 -11.713  0.00  0.00    +0.000 N 
ATOM     14  C   UNL     1     -18.764  39.354 -11.314  0.00  0.00    +0.000 C 
ATOM     15  H   UNL     1     -16.840  40.215 -11.301  0.00  0.00    +0.000 HD
ATOM     16  H   UNL     1     -17.062  38.946 -12.448  0.00  0.00    +0.000 HD
ENDBRANCH  11  14
ENDBRANCH   3  10
TORSDOF 2
ENDMDL
MODEL 2
REMARK VINA RESULT:    -6.685      2.302      5.559
REMARK INTER + INTRA:          -7.597
REMARK INTER:                  -7.464
REMARK INTRA:                  -0.133
REMARK UNBOUND:                -0.130
REMARK  Name = 117806587
REMARK  2 active torsions:
REMARK  status: ('A' for Active; 'I' for Inactive)
REMARK    1  A    between atoms: C_5  and  C_9
REMARK    2  A    between atoms: C_11  and  C_12
REMARK                            x       y       z     vdW  Elec       q    Type
REMARK                         _______ _______ _______ _____ _____    ______ ____
ROOT
ATOM      1  N   UNL     1     -18.925  39.379 -11.048  0.00  0.00    +0.000 NA
ATOM      2  N   UNL     1     -16.660  39.758 -11.681  0.00  0.00    +0.000 N 
ATOM      3  C   UNL     1     -19.840  40.553  -9.143  0.00  0.00    +0.000 A 
ATOM      4  C   UNL     1     -18.622  41.191  -8.941  0.00  0.00    +0.000 A 
ATOM      5  C   UNL     1     -17.555  40.924  -9.792  0.00  0.00    +0.000 A 
ATOM      6  C   UNL     1     -19.939  39.664 -10.201  0.00  0.00    +0.000 A 
ATOM      7  C   UNL     1     -17.756  40.018 -10.821  0.00  0.00    +0.000 A 
ATOM      8  H   UNL     1     -15.967  40.485 -11.812  0.00  0.00    +0.000 HD
ATOM      9  H   UNL     1     -16.813  39.100 -12.434  0.00  0.00    +0.000 HD
ENDROOT
BRANCH   3  10
ATOM     10  C   UNL     1     -20.972  40.809  -8.271  0.00  0.00    +0.000 C 
ATOM     11  C   UNL     1     -21.156  41.928  -7.532  0.00  0.00    +0.000 C 
BRANCH  11  14
ATOM     12  O   UNL     1     -23.344  41.351  -6.759  0.00  0.00    +0.000 OA
ATOM     13  N   UNL     1     -22.256  43.137  -5.802  0.00  0.00    +0.000 N 
ATOM     14  C   UNL     1     -22.365  42.084  -6.681  0.00  0.00    +0.000 C 
ATOM     15  H   UNL     1     -21.434  43.732  -5.751  0.00  0.00    +0.000 HD
ATOM     16  H   UNL     1     -23.011  43.357  -5.160  0.00  0.00    +0.000 HD
ENDBRANCH  11  14
ENDBRANCH   3  10
TORSDOF 2
ENDMDL
MODEL 3
REMARK VINA RESULT:    -6.541      1.707      2.179
REMARK INTER + INTRA:          -7.435
REMARK INTER:                  -7.322
REMARK INTRA:                  -0.113
REMARK UNBOUND:                -0.130
REMARK  Name = 117806587
REMARK  2 active torsions:
REMARK  status: ('A' for Active; 'I' for Inactive)
REMARK    1  A    between atoms: C_5  and  C_9
REMARK    2  A    between atoms: C_11  and  C_12
REMARK                            x       y       z     vdW  Elec       q    Type
REMARK                         _______ _______ _______ _____ _____    ______ ____
ROOT
ATOM      1  N   UNL     1     -19.269  42.351  -7.269  0.00  0.00    +0.000 NA
ATOM      2  N   UNL     1     -21.135  42.490  -5.795  0.00  0.00    +0.000 N 
ATOM      3  C   UNL     1     -19.371  40.875  -9.182  0.00  0.00    +0.000 A 
ATOM      4  C   UNL     1     -20.655  40.484  -8.820  0.00  0.00    +0.000 A 
ATOM      5  C   UNL     1     -21.247  41.025  -7.684  0.00  0.00    +0.000 A 
ATOM      6  C   UNL     1     -18.727  41.804  -8.380  0.00  0.00    +0.000 A 
ATOM      7  C   UNL     1     -20.518  41.946  -6.949  0.00  0.00    +0.000 A 
ATOM      8  H   UNL     1     -22.146  42.552  -5.773  0.00  0.00    +0.000 HD
ATOM      9  H   UNL     1     -20.601  43.167  -5.265  0.00  0.00    +0.000 HD
ENDROOT
BRANCH   3  10
ATOM     10  C   UNL     1     -18.726  40.328 -10.361  0.00  0.00    +0.000 C 
ATOM     11  C   UNL     1     -17.424  40.493 -10.690  0.00  0.00    +0.000 C 
BRANCH  11  14
ATOM     12  O   UNL     1     -17.536  39.661 -12.930  0.00  0.00    +0.000 OA
ATOM     13  N   UNL     1     -15.533  39.570 -11.804  0.00  0.00    +0.000 N 
ATOM     14  C   UNL     1     -16.870  39.873 -11.923  0.00  0.00    +0.000 C 
ATOM     15  H   UNL     1     -14.997  39.756 -10.961  0.00  0.00    +0.000 HD
ATOM     16  H   UNL     1     -15.028  39.142 -12.573  0.00  0.00    +0.000 HD
ENDBRANCH  11  14
ENDBRANCH   3  10
TORSDOF 2
ENDMDL
MODEL 4
REMARK VINA RESULT:    -5.123      4.047      5.495
REMARK INTER + INTRA:          -5.852
REMARK INTER:                  -5.741
REMARK INTRA:                  -0.111
REMARK UNBOUND:                -0.130
REMARK  Name = 117806587
REMARK  2 active torsions:
REMARK  status: ('A' for Active; 'I' for Inactive)
REMARK    1  A    between atoms: C_5  and  C_9
REMARK    2  A    between atoms: C_11  and  C_12
REMARK                            x       y       z     vdW  Elec       q    Type
REMARK                         _______ _______ _______ _____ _____    ______ ____
ROOT
ATOM      1  N   UNL     1     -17.853  42.030 -10.382  0.00  0.00    +0.000 NA
ATOM      2  N   UNL     1     -18.061  40.546  -8.530  0.00  0.00    +0.000 N 
ATOM      3  C   UNL     1     -18.925  41.476 -12.477  0.00  0.00    +0.000 A 
ATOM      4  C   UNL     1     -19.416  40.299 -11.923  0.00  0.00    +0.000 A 
ATOM      5  C   UNL     1     -19.126  39.987 -10.599  0.00  0.00    +0.000 A 
ATOM      6  C   UNL     1     -18.156  42.300 -11.671  0.00  0.00    +0.000 A 
ATOM      7  C   UNL     1     -18.347  40.877  -9.878  0.00  0.00    +0.000 A 
ATOM      8  H   UNL     1     -18.725  39.972  -8.024  0.00  0.00    +0.000 HD
ATOM      9  H   UNL     1     -17.498  41.202  -8.005  0.00  0.00    +0.000 HD
ENDROOT
BRANCH   3  10
ATOM     10  C   UNL     1     -19.209  41.830 -13.855  0.00  0.00    +0.000 C 
ATOM     11  C   UNL     1     -19.684  43.025 -14.277  0.00  0.00    +0.000 C 
BRANCH  11  14
ATOM     12  O   UNL     1     -20.052  42.382 -16.551  0.00  0.00    +0.000 OA
ATOM     13  N   UNL     1     -19.998  44.619 -16.017  0.00  0.00    +0.000 N 
ATOM     14  C   UNL     1     -19.928  43.276 -15.722  0.00  0.00    +0.000 C 
ATOM     15  H   UNL     1     -19.894  45.345 -15.314  0.00  0.00    +0.000 HD
ATOM     16  H   UNL     1     -20.161  44.932 -16.968  0.00  0.00    +0.000 HD
ENDBRANCH  11  14
ENDBRANCH   3  10
TORSDOF 2
ENDMDL
MODEL 5
REMARK VINA RESULT:    -4.836      4.463      6.608
REMARK INTER + INTRA:          -5.531
REMARK INTER:                  -5.420
REMARK INTRA:                  -0.111
REMARK UNBOUND:                -0.130
REMARK  Name = 117806587
REMARK  2 active torsions:
REMARK  status: ('A' for Active; 'I' for Inactive)
REMARK    1  A    between atoms: C_5  and  C_9
REMARK    2  A    between atoms: C_11  and  C_12
REMARK                            x       y       z     vdW  Elec       q    Type
REMARK                         _______ _______ _______ _____ _____    ______ ____
ROOT
ATOM      1  N   UNL     1     -17.404  44.661 -13.360  0.00  0.00    +0.000 NA
ATOM      2  N   UNL     1     -15.488  45.327 -14.610  0.00  0.00    +0.000 N 
ATOM      3  C   UNL     1     -17.148  43.101 -11.531  0.00  0.00    +0.000 A 
ATOM      4  C   UNL     1     -15.780  43.034 -11.769  0.00  0.00    +0.000 A 
ATOM      5  C   UNL     1     -15.223  43.780 -12.802  0.00  0.00    +0.000 A 
ATOM      6  C   UNL     1     -17.909  43.922 -12.347  0.00  0.00    +0.000 A 
ATOM      7  C   UNL     1     -16.070  44.571 -13.562  0.00  0.00    +0.000 A 
ATOM      8  H   UNL     1     -14.521  45.613 -14.517  0.00  0.00    +0.000 HD
ATOM      9  H   UNL     1     -16.110  45.907 -15.158  0.00  0.00    +0.000 HD
ENDROOT
BRANCH   3  10
ATOM     10  C   UNL     1     -17.759  42.333 -10.461  0.00  0.00    +0.000 C 
ATOM     11  C   UNL     1     -18.494  41.209 -10.624  0.00  0.00    +0.000 C 
BRANCH  11  14
ATOM     12  O   UNL     1     -18.569  40.546  -8.327  0.00  0.00    +0.000 OA
ATOM     13  N   UNL     1     -20.201  39.791  -9.762  0.00  0.00    +0.000 N 
ATOM     14  C   UNL     1     -19.063  40.499  -9.448  0.00  0.00    +0.000 C 
ATOM     15  H   UNL     1     -20.596  39.766 -10.697  0.00  0.00    +0.000 HD
ATOM     16  H   UNL     1     -20.693  39.260  -9.051  0.00  0.00    +0.000 HD
ENDBRANCH  11  14
ENDBRANCH   3  10
TORSDOF 2
ENDMDL
