MODEL 1
REMARK VINA RESULT:    -6.253      0.000      0.000
REMARK INTER + INTRA:          -8.216
REMARK INTER:                  -7.350
REMARK INTRA:                  -0.866
REMARK UNBOUND:                -0.866
REMARK  Name = 117908113
REMARK  3 active torsions:
REMARK  status: ('A' for Active; 'I' for Inactive)
REMARK    1  A    between atoms: N_2  and  C_7
REMARK    2  A    between atoms: N_4  and  C_13
REMARK    3  A    between atoms: C_8  and  C_9
REMARK                            x       y       z     vdW  Elec       q    Type
REMARK                         _______ _______ _______ _____ _____    ______ ____
ROOT
ATOM      1  O   UNL     1     -16.020  42.400 -10.913  0.00  0.00    +0.000 OA
ATOM      2  N   UNL     1     -17.845  43.708 -11.608  0.00  0.00    +0.000 N 
ATOM      3  C   UNL     1     -17.223  42.627 -10.969  0.00  0.00    +0.000 C 
ATOM      4  H   UNL     1     -18.862  43.751 -11.551  0.00  0.00    +0.000 HD
ENDROOT
BRANCH   3   6
ATOM      5  N   UNL     1     -19.549  39.721 -10.324  0.00  0.00    +0.000 NA
ATOM      6  C   UNL     1     -18.139  41.684 -10.274  0.00  0.00    +0.000 A 
ATOM      7  C   UNL     1     -18.447  41.881  -8.933  0.00  0.00    +0.000 A 
ATOM      8  C   UNL     1     -18.711  40.599 -10.919  0.00  0.00    +0.000 A 
ATOM      9  C   UNL     1     -19.305  40.999  -8.287  0.00  0.00    +0.000 A 
ATOM     10  C   UNL     1     -19.825  39.944  -9.020  0.00  0.00    +0.000 A 
BRANCH   8  11
ATOM     11  N   UNL     1     -18.445  40.344 -12.269  0.00  0.00    +0.000 NA
ATOM     12  N   UNL     1     -19.059  41.116 -13.038  0.00  0.00    +0.000 NA
ATOM     13  N   UNL     1     -19.621  41.826 -13.732  0.00  0.00    +0.000 NA
ENDBRANCH   8  11
ENDBRANCH   3   6
BRANCH   2  14
ATOM     14  C   UNL     1     -17.244  44.752 -12.310  0.00  0.00    +0.000 A 
ATOM     15  C   UNL     1     -16.694  44.519 -13.571  0.00  0.00    +0.000 A 
ATOM     16  C   UNL     1     -17.193  46.029 -11.752  0.00  0.00    +0.000 A 
ATOM     17  C   UNL     1     -16.093  45.564 -14.273  0.00  0.00    +0.000 A 
ATOM     18  C   UNL     1     -16.592  47.074 -12.455  0.00  0.00    +0.000 A 
ATOM     19  C   UNL     1     -16.042  46.841 -13.715  0.00  0.00    +0.000 A 
ENDBRANCH   2  14
TORSDOF 3
ENDMDL
MODEL 2
REMARK VINA RESULT:    -6.152      3.746      4.857
REMARK INTER + INTRA:          -8.097
REMARK INTER:                  -7.407
REMARK INTRA:                  -0.690
REMARK UNBOUND:                -0.866
REMARK  Name = 117908113
REMARK  3 active torsions:
REMARK  status: ('A' for Active; 'I' for Inactive)
REMARK    1  A    between atoms: N_2  and  C_7
REMARK    2  A    between atoms: N_4  and  C_13
REMARK    3  A    between atoms: C_8  and  C_9
REMARK                            x       y       z     vdW  Elec       q    Type
REMARK                         _______ _______ _______ _____ _____    ______ ____
ROOT
ATOM      1  O   UNL     1     -18.791  44.888 -13.914  0.00  0.00    +0.000 OA
ATOM      2  N   UNL     1     -19.223  42.865 -15.031  0.00  0.00    +0.000 N 
ATOM      3  C   UNL     1     -18.637  43.679 -14.053  0.00  0.00    +0.000 C 
ATOM      4  H   UNL     1     -18.994  41.873 -14.999  0.00  0.00    +0.000 HD
ENDROOT
BRANCH   3   6
ATOM      5  N   UNL     1     -17.438  41.228 -11.442  0.00  0.00    +0.000 NA
ATOM      6  C   UNL     1     -17.761  42.977 -13.078  0.00  0.00    +0.000 A 
ATOM      7  C   UNL     1     -16.454  43.409 -12.886  0.00  0.00    +0.000 A 
ATOM      8  C   UNL     1     -18.202  41.891 -12.339  0.00  0.00    +0.000 A 
ATOM      9  C   UNL     1     -15.638  42.752 -11.973  0.00  0.00    +0.000 A 
ATOM     10  C   UNL     1     -16.173  41.676 -11.282  0.00  0.00    +0.000 A 
BRANCH   8  11
ATOM     11  N   UNL     1     -19.506  41.406 -12.481  0.00  0.00    +0.000 NA
ATOM     12  N   UNL     1     -19.552  40.160 -12.577  0.00  0.00    +0.000 NA
ATOM     13  N   UNL     1     -19.584  39.022 -12.664  0.00  0.00    +0.000 NA
ENDBRANCH   8  11
ENDBRANCH   3   6
BRANCH   2  14
ATOM     14  C   UNL     1     -20.099  43.240 -16.049  0.00  0.00    +0.000 A 
ATOM     15  C   UNL     1     -21.457  43.400 -15.776  0.00  0.00    +0.000 A 
ATOM     16  C   UNL     1     -19.617  43.456 -17.340  0.00  0.00    +0.000 A 
ATOM     17  C   UNL     1     -22.334  43.775 -16.795  0.00  0.00    +0.000 A 
ATOM     18  C   UNL     1     -20.493  43.832 -18.358  0.00  0.00    +0.000 A 
ATOM     19  C   UNL     1     -21.852  43.990 -18.085  0.00  0.00    +0.000 A 
ENDBRANCH   2  14
TORSDOF 3
ENDMDL
MODEL 3
REMARK VINA RESULT:    -5.988      4.862      6.946
REMARK INTER + INTRA:          -7.904
REMARK INTER:                  -6.819
REMARK INTRA:                  -1.085
REMARK UNBOUND:                -0.866
REMARK  Name = 117908113
REMARK  3 active torsions:
REMARK  status: ('A' for Active; 'I' for Inactive)
REMARK    1  A    between atoms: N_2  and  C_7
REMARK    2  A    between atoms: N_4  and  C_13
REMARK    3  A    between atoms: C_8  and  C_9
REMARK                            x       y       z     vdW  Elec       q    Type
REMARK                         _______ _______ _______ _____ _____    ______ ____
ROOT
ATOM      1  O   UNL     1     -19.974  42.325 -16.551  0.00  0.00    +0.000 OA
ATOM      2  N   UNL     1     -19.862  43.608 -14.584  0.00  0.00    +0.000 N 
ATOM      3  C   UNL     1     -20.276  43.313 -15.890  0.00  0.00    +0.000 C 
ATOM      4  H   UNL     1     -20.215  44.472 -14.176  0.00  0.00    +0.000 HD
ENDROOT
BRANCH   3   6
ATOM      5  N   UNL     1     -21.557  46.463 -17.533  0.00  0.00    +0.000 NA
ATOM      6  C   UNL     1     -21.195  44.305 -16.508  0.00  0.00    +0.000 A 
ATOM      7  C   UNL     1     -22.548  44.010 -16.633  0.00  0.00    +0.000 A 
ATOM      8  C   UNL     1     -20.753  45.534 -16.969  0.00  0.00    +0.000 A 
ATOM      9  C   UNL     1     -23.405  44.940 -17.209  0.00  0.00    +0.000 A 
ATOM     10  C   UNL     1     -22.865  46.142 -17.639  0.00  0.00    +0.000 A 
BRANCH   8  11
ATOM     11  N   UNL     1     -19.404  45.896 -16.872  0.00  0.00    +0.000 NA
ATOM     12  N   UNL     1     -19.106  46.353 -15.746  0.00  0.00    +0.000 NA
ATOM     13  N   UNL     1     -18.843  46.769 -14.716  0.00  0.00    +0.000 NA
ENDBRANCH   8  11
ENDBRANCH   3   6
BRANCH   2  14
ATOM     14  C   UNL     1     -19.030  42.855 -13.756  0.00  0.00    +0.000 A 
ATOM     15  C   UNL     1     -19.536  41.744 -13.084  0.00  0.00    +0.000 A 
ATOM     16  C   UNL     1     -17.691  43.214 -13.601  0.00  0.00    +0.000 A 
ATOM     17  C   UNL     1     -18.702  40.990 -12.255  0.00  0.00    +0.000 A 
ATOM     18  C   UNL     1     -16.858  42.461 -12.774  0.00  0.00    +0.000 A 
ATOM     19  C   UNL     1     -17.364  41.350 -12.100  0.00  0.00    +0.000 A 
ENDBRANCH   2  14
TORSDOF 3
ENDMDL
MODEL 4
REMARK VINA RESULT:    -5.892      3.005      6.404
REMARK INTER + INTRA:          -7.791
REMARK INTER:                  -6.881
REMARK INTRA:                  -0.910
REMARK UNBOUND:                -0.866
REMARK  Name = 117908113
REMARK  3 active torsions:
REMARK  status: ('A' for Active; 'I' for Inactive)
REMARK    1  A    between atoms: N_2  and  C_7
REMARK    2  A    between atoms: N_4  and  C_13
REMARK    3  A    between atoms: C_8  and  C_9
REMARK                            x       y       z     vdW  Elec       q    Type
REMARK                         _______ _______ _______ _____ _____    ______ ____
ROOT
ATOM      1  O   UNL     1     -18.750  44.691 -12.851  0.00  0.00    +0.000 OA
ATOM      2  N   UNL     1     -18.469  42.753 -14.151  0.00  0.00    +0.000 N 
ATOM      3  C   UNL     1     -18.662  44.124 -13.934  0.00  0.00    +0.000 C 
ATOM      4  H   UNL     1     -18.409  42.446 -15.120  0.00  0.00    +0.000 HD
ENDROOT
BRANCH   3   6
ATOM      5  N   UNL     1     -19.865  45.551 -17.218  0.00  0.00    +0.000 NA
ATOM      6  C   UNL     1     -18.740  44.959 -15.162  0.00  0.00    +0.000 A 
ATOM      7  C   UNL     1     -17.767  45.921 -15.408  0.00  0.00    +0.000 A 
ATOM      8  C   UNL     1     -19.760  44.814 -16.089  0.00  0.00    +0.000 A 
ATOM      9  C   UNL     1     -17.842  46.698 -16.558  0.00  0.00    +0.000 A 
ATOM     10  C   UNL     1     -18.901  46.476 -17.424  0.00  0.00    +0.000 A 
BRANCH   8  11
ATOM     11  N   UNL     1     -20.770  43.864 -15.905  0.00  0.00    +0.000 NA
ATOM     12  N   UNL     1     -20.649  42.875 -16.661  0.00  0.00    +0.000 NA
ATOM     13  N   UNL     1     -20.530  41.976 -17.354  0.00  0.00    +0.000 NA
ENDBRANCH   8  11
ENDBRANCH   3   6
BRANCH   2  14
ATOM     14  C   UNL     1     -18.335  41.744 -13.198  0.00  0.00    +0.000 A 
ATOM     15  C   UNL     1     -17.125  41.062 -13.070  0.00  0.00    +0.000 A 
ATOM     16  C   UNL     1     -19.410  41.416 -12.372  0.00  0.00    +0.000 A 
ATOM     17  C   UNL     1     -16.990  40.052 -12.117  0.00  0.00    +0.000 A 
ATOM     18  C   UNL     1     -19.275  40.407 -11.419  0.00  0.00    +0.000 A 
ATOM     19  C   UNL     1     -18.065  39.725 -11.292  0.00  0.00    +0.000 A 
ENDBRANCH   2  14
TORSDOF 3
ENDMDL
MODEL 5
REMARK VINA RESULT:    -5.725      3.668      6.676
REMARK INTER + INTRA:          -7.596
REMARK INTER:                  -6.454
REMARK INTRA:                  -1.142
REMARK UNBOUND:                -0.866
REMARK  Name = 117908113
REMARK  3 active torsions:
REMARK  status: ('A' for Active; 'I' for Inactive)
REMARK    1  A    between atoms: N_2  and  C_7
REMARK    2  A    between atoms: N_4  and  C_13
REMARK    3  A    between atoms: C_8  and  C_9
REMARK                            x       y       z     vdW  Elec       q    Type
REMARK                         _______ _______ _______ _____ _____    ______ ____
ROOT
ATOM      1  O   UNL     1     -20.658  42.645 -14.488  0.00  0.00    +0.000 OA
ATOM      2  N   UNL     1     -18.334  42.801 -14.171  0.00  0.00    +0.000 N 
ATOM      3  C   UNL     1     -19.548  43.039 -14.829  0.00  0.00    +0.000 C 
ATOM      4  H   UNL     1     -17.499  43.211 -14.586  0.00  0.00    +0.000 HD
ENDROOT
BRANCH   3   6
ATOM      5  N   UNL     1     -18.940  45.996 -17.099  0.00  0.00    +0.000 NA
ATOM      6  C   UNL     1     -19.457  43.880 -16.052  0.00  0.00    +0.000 A 
ATOM      7  C   UNL     1     -19.806  43.345 -17.287  0.00  0.00    +0.000 A 
ATOM      8  C   UNL     1     -19.034  45.199 -16.011  0.00  0.00    +0.000 A 
ATOM      9  C   UNL     1     -19.721  44.134 -18.427  0.00  0.00    +0.000 A 
ATOM     10  C   UNL     1     -19.287  45.442 -18.282  0.00  0.00    +0.000 A 
BRANCH   8  11
ATOM     11  N   UNL     1     -18.670  45.800 -14.801  0.00  0.00    +0.000 NA
ATOM     12  N   UNL     1     -17.472  45.602 -14.503  0.00  0.00    +0.000 NA
ATOM     13  N   UNL     1     -16.377  45.417 -14.239  0.00  0.00    +0.000 NA
ENDBRANCH   8  11
ENDBRANCH   3   6
BRANCH   2  14
ATOM     14  C   UNL     1     -18.120  42.076 -12.999  0.00  0.00    +0.000 A 
ATOM     15  C   UNL     1     -17.964  42.744 -11.785  0.00  0.00    +0.000 A 
ATOM     16  C   UNL     1     -18.061  40.683 -13.041  0.00  0.00    +0.000 A 
ATOM     17  C   UNL     1     -17.750  42.018 -10.612  0.00  0.00    +0.000 A 
ATOM     18  C   UNL     1     -17.848  39.958 -11.869  0.00  0.00    +0.000 A 
ATOM     19  C   UNL     1     -17.692  40.626 -10.655  0.00  0.00    +0.000 A 
ENDBRANCH   2  14
TORSDOF 3
ENDMDL
