MODEL 1
REMARK VINA RESULT:    -6.316      0.000      0.000
REMARK INTER + INTRA:          -6.767
REMARK INTER:                  -6.685
REMARK INTRA:                  -0.082
REMARK UNBOUND:                -0.082
REMARK  Name = 11819541
REMARK  2 active torsions:
REMARK  status: ('A' for Active; 'I' for Inactive)
REMARK    1  A    between atoms: N_2  and  C_5
REMARK    2  A    between atoms: C_5  and  C_10
REMARK                            x       y       z     vdW  Elec       q    Type
REMARK                         _______ _______ _______ _____ _____    ______ ____
ROOT
ATOM      1  O   UNL     1     -18.029  42.874  -8.656  0.00  0.00    +0.000 OA
ATOM      2  N   UNL     1     -19.655  41.240  -8.293  0.00  0.00    +0.000 N 
ATOM      3  N   UNL     1     -19.984  39.491  -9.872  0.00  0.00    +0.000 NA
ATOM      4  N   UNL     1     -18.695  39.388 -11.811  0.00  0.00    +0.000 NA
ATOM      5  C   UNL     1     -18.278  41.198 -10.280  0.00  0.00    +0.000 A 
ATOM      6  C   UNL     1     -18.628  41.862  -9.007  0.00  0.00    +0.000 A 
ATOM      7  C   UNL     1     -18.964  40.048 -10.660  0.00  0.00    +0.000 A 
ATOM      8  C   UNL     1     -20.270  40.094  -8.765  0.00  0.00    +0.000 A 
ATOM      9  C   UNL     1     -17.276  41.697 -11.111  0.00  0.00    +0.000 A 
ATOM     10  C   UNL     1     -16.989  41.032 -12.296  0.00  0.00    +0.000 A 
ATOM     11  C   UNL     1     -17.719  39.895 -12.597  0.00  0.00    +0.000 A 
ENDROOT
BRANCH   2  12
ATOM     12  C   UNL     1     -20.086  41.809  -7.027  0.00  0.00    +0.000 C 
ATOM     13  C   UNL     1     -21.569  42.122  -7.035  0.00  0.00    +0.000 C 
ENDBRANCH   2  12
TORSDOF 1
ENDMDL
MODEL 2
REMARK VINA RESULT:    -6.171      1.939      2.525
REMARK INTER + INTRA:          -6.614
REMARK INTER:                  -6.519
REMARK INTRA:                  -0.095
REMARK UNBOUND:                -0.082
REMARK  Name = 11819541
REMARK  2 active torsions:
REMARK  status: ('A' for Active; 'I' for Inactive)
REMARK    1  A    between atoms: N_2  and  C_5
REMARK    2  A    between atoms: C_5  and  C_10
REMARK                            x       y       z     vdW  Elec       q    Type
REMARK                         _______ _______ _______ _____ _____    ______ ____
ROOT
ATOM      1  O   UNL     1     -21.513  39.772  -8.639  0.00  0.00    +0.000 OA
ATOM      2  N   UNL     1     -20.400  41.502  -7.537  0.00  0.00    +0.000 N 
ATOM      3  N   UNL     1     -18.348  42.355  -8.388  0.00  0.00    +0.000 NA
ATOM      4  N   UNL     1     -17.413  41.468 -10.329  0.00  0.00    +0.000 NA
ATOM      5  C   UNL     1     -19.492  40.533  -9.557  0.00  0.00    +0.000 A 
ATOM      6  C   UNL     1     -20.569  40.552  -8.547  0.00  0.00    +0.000 A 
ATOM      7  C   UNL     1     -18.432  41.429  -9.440  0.00  0.00    +0.000 A 
ATOM      8  C   UNL     1     -19.304  42.347  -7.517  0.00  0.00    +0.000 A 
ATOM      9  C   UNL     1     -19.511  39.641 -10.628  0.00  0.00    +0.000 A 
ATOM     10  C   UNL     1     -18.472  39.668 -11.549  0.00  0.00    +0.000 A 
ATOM     11  C   UNL     1     -17.458  40.590 -11.358  0.00  0.00    +0.000 A 
ENDROOT
BRANCH   2  12
ATOM     12  C   UNL     1     -21.397  41.607  -6.484  0.00  0.00    +0.000 C 
ATOM     13  C   UNL     1     -22.369  42.738  -6.750  0.00  0.00    +0.000 C 
ENDBRANCH   2  12
TORSDOF 1
ENDMDL
MODEL 3
REMARK VINA RESULT:    -5.896      1.744      4.824
REMARK INTER + INTRA:          -6.323
REMARK INTER:                  -6.232
REMARK INTRA:                  -0.091
REMARK UNBOUND:                -0.082
REMARK  Name = 11819541
REMARK  2 active torsions:
REMARK  status: ('A' for Active; 'I' for Inactive)
REMARK    1  A    between atoms: N_2  and  C_5
REMARK    2  A    between atoms: C_5  and  C_10
REMARK                            x       y       z     vdW  Elec       q    Type
REMARK                         _______ _______ _______ _____ _____    ______ ____
ROOT
ATOM      1  O   UNL     1     -19.604  39.108 -10.931  0.00  0.00    +0.000 OA
ATOM      2  N   UNL     1     -17.860  40.654 -10.828  0.00  0.00    +0.000 N 
ATOM      3  N   UNL     1     -17.802  42.299  -9.110  0.00  0.00    +0.000 NA
ATOM      4  N   UNL     1     -19.492  42.398  -7.509  0.00  0.00    +0.000 NA
ATOM      5  C   UNL     1     -19.648  40.693  -9.201  0.00  0.00    +0.000 A 
ATOM      6  C   UNL     1     -19.052  40.066 -10.399  0.00  0.00    +0.000 A 
ATOM      7  C   UNL     1     -19.005  41.776  -8.607  0.00  0.00    +0.000 A 
ATOM      8  C   UNL     1     -17.305  41.732 -10.160  0.00  0.00    +0.000 A 
ATOM      9  C   UNL     1     -20.839  40.226  -8.649  0.00  0.00    +0.000 A 
ATOM     10  C   UNL     1     -21.354  40.853  -7.522  0.00  0.00    +0.000 A 
ATOM     11  C   UNL     1     -20.650  41.923  -6.995  0.00  0.00    +0.000 A 
ENDROOT
BRANCH   2  12
ATOM     12  C   UNL     1     -17.187  40.123 -12.002  0.00  0.00    +0.000 C 
ATOM     13  C   UNL     1     -17.291  41.071 -13.179  0.00  0.00    +0.000 C 
ENDBRANCH   2  12
TORSDOF 1
ENDMDL
MODEL 4
REMARK VINA RESULT:    -5.893      2.408      4.735
REMARK INTER + INTRA:          -6.319
REMARK INTER:                  -6.231
REMARK INTRA:                  -0.088
REMARK UNBOUND:                -0.082
REMARK  Name = 11819541
REMARK  2 active torsions:
REMARK  status: ('A' for Active; 'I' for Inactive)
REMARK    1  A    between atoms: N_2  and  C_5
REMARK    2  A    between atoms: C_5  and  C_10
REMARK                            x       y       z     vdW  Elec       q    Type
REMARK                         _______ _______ _______ _____ _____    ______ ____
ROOT
ATOM      1  O   UNL     1     -19.816  40.363 -12.575  0.00  0.00    +0.000 OA
ATOM      2  N   UNL     1     -18.369  42.182 -12.369  0.00  0.00    +0.000 N 
ATOM      3  N   UNL     1     -17.690  42.949 -10.221  0.00  0.00    +0.000 NA
ATOM      4  N   UNL     1     -18.468  41.902  -8.290  0.00  0.00    +0.000 NA
ATOM      5  C   UNL     1     -19.216  41.044 -10.411  0.00  0.00    +0.000 A 
ATOM      6  C   UNL     1     -19.175  41.149 -11.884  0.00  0.00    +0.000 A 
ATOM      7  C   UNL     1     -18.478  41.941  -9.643  0.00  0.00    +0.000 A 
ATOM      8  C   UNL     1     -17.675  43.019 -11.512  0.00  0.00    +0.000 A 
ATOM      9  C   UNL     1     -19.976  40.067  -9.770  0.00  0.00    +0.000 A 
ATOM     10  C   UNL     1     -19.978  40.015  -8.382  0.00  0.00    +0.000 A 
ATOM     11  C   UNL     1     -19.216  40.944  -7.696  0.00  0.00    +0.000 A 
ENDROOT
BRANCH   2  12
ATOM     12  C   UNL     1     -18.257  42.383 -13.804  0.00  0.00    +0.000 C 
ATOM     13  C   UNL     1     -19.292  43.368 -14.309  0.00  0.00    +0.000 C 
ENDBRANCH   2  12
TORSDOF 1
ENDMDL
MODEL 5
REMARK VINA RESULT:    -5.599      2.618      3.231
REMARK INTER + INTRA:          -6.009
REMARK INTER:                  -5.922
REMARK INTRA:                  -0.086
REMARK UNBOUND:                -0.082
REMARK  Name = 11819541
REMARK  2 active torsions:
REMARK  status: ('A' for Active; 'I' for Inactive)
REMARK    1  A    between atoms: N_2  and  C_5
REMARK    2  A    between atoms: C_5  and  C_10
REMARK                            x       y       z     vdW  Elec       q    Type
REMARK                         _______ _______ _______ _____ _____    ______ ____
ROOT
ATOM      1  O   UNL     1     -17.312  43.030 -10.367  0.00  0.00    +0.000 OA
ATOM      2  N   UNL     1     -18.520  41.064 -10.710  0.00  0.00    +0.000 N 
ATOM      3  N   UNL     1     -19.726  40.722 -12.732  0.00  0.00    +0.000 NA
ATOM      4  N   UNL     1     -19.729  42.352 -14.397  0.00  0.00    +0.000 NA
ATOM      5  C   UNL     1     -18.474  42.798 -12.393  0.00  0.00    +0.000 A 
ATOM      6  C   UNL     1     -18.039  42.327 -11.062  0.00  0.00    +0.000 A 
ATOM      7  C   UNL     1     -19.294  41.984 -13.170  0.00  0.00    +0.000 A 
ATOM      8  C   UNL     1     -19.332  40.337 -11.562  0.00  0.00    +0.000 A 
ATOM      9  C   UNL     1     -18.082  44.040 -12.891  0.00  0.00    +0.000 A 
ATOM     10  C   UNL     1     -18.521  44.432 -14.149  0.00  0.00    +0.000 A 
ATOM     11  C   UNL     1     -19.334  43.562 -14.855  0.00  0.00    +0.000 A 
ENDROOT
BRANCH   2  12
ATOM     12  C   UNL     1     -18.160  40.500  -9.418  0.00  0.00    +0.000 C 
ATOM     13  C   UNL     1     -19.179  40.854  -8.354  0.00  0.00    +0.000 C 
ENDBRANCH   2  12
TORSDOF 1
ENDMDL
