MODEL 1
REMARK VINA RESULT:    -6.563      0.000      0.000
REMARK INTER + INTRA:          -7.273
REMARK INTER:                  -7.330
REMARK INTRA:                   0.058
REMARK UNBOUND:                 0.058
REMARK  Name = 118348030
REMARK  3 active torsions:
REMARK  status: ('A' for Active; 'I' for Inactive)
REMARK    1  A    between atoms: N_3  and  C_7
REMARK    2  A    between atoms: C_6  and  C_8
REMARK    3  A    between atoms: C_7  and  C_10
REMARK                            x       y       z     vdW  Elec       q    Type
REMARK                         _______ _______ _______ _____ _____    ______ ____
ROOT
ATOM      1  F   UNL     1     -17.650  43.038  -9.300  0.00  0.00    +0.000 F 
ATOM      2  N   UNL     1     -18.585  39.380 -10.987  0.00  0.00    +0.000 NA
ATOM      3  N   UNL     1     -16.840  39.693 -12.579  0.00  0.00    +0.000 N 
ATOM      4  C   UNL     1     -18.994  41.084  -9.322  0.00  0.00    +0.000 A 
ATOM      5  C   UNL     1     -17.959  41.851  -9.842  0.00  0.00    +0.000 A 
ATOM      6  C   UNL     1     -19.265  39.866  -9.924  0.00  0.00    +0.000 A 
ATOM      7  C   UNL     1     -17.236  41.385 -10.934  0.00  0.00    +0.000 A 
ATOM      8  C   UNL     1     -17.585  40.155 -11.466  0.00  0.00    +0.000 A 
ATOM      9  H   UNL     1     -16.420  40.379 -13.195  0.00  0.00    +0.000 HD
ATOM     10  H   UNL     1     -17.103  38.796 -12.968  0.00  0.00    +0.000 HD
ENDROOT
BRANCH   4  13
ATOM     11  O   UNL     1     -19.228  42.187  -7.265  0.00  0.00    +0.000 OA
ATOM     12  N   UNL     1     -21.136  41.237  -8.178  0.00  0.00    +0.000 N 
ATOM     13  C   UNL     1     -19.769  41.540  -8.180  0.00  0.00    +0.000 C 
ATOM     14  H   UNL     1     -21.549  40.759  -8.972  0.00  0.00    +0.000 HD
BRANCH  12  15
ATOM     15  C   UNL     1     -22.044  41.641  -7.127  0.00  0.00    +0.000 C 
ATOM     16  C   UNL     1     -23.377  40.933  -7.245  0.00  0.00    +0.000 C 
ENDBRANCH  12  15
ENDBRANCH   4  13
TORSDOF 2
ENDMDL
MODEL 2
REMARK VINA RESULT:    -6.079      2.410      5.183
REMARK INTER + INTRA:          -6.732
REMARK INTER:                  -6.773
REMARK INTRA:                   0.041
REMARK UNBOUND:                 0.058
REMARK  Name = 118348030
REMARK  3 active torsions:
REMARK  status: ('A' for Active; 'I' for Inactive)
REMARK    1  A    between atoms: N_3  and  C_7
REMARK    2  A    between atoms: C_6  and  C_8
REMARK    3  A    between atoms: C_7  and  C_10
REMARK                            x       y       z     vdW  Elec       q    Type
REMARK                         _______ _______ _______ _____ _____    ______ ____
ROOT
ATOM      1  F   UNL     1     -21.120  39.369  -9.053  0.00  0.00    +0.000 F 
ATOM      2  N   UNL     1     -19.362  42.590  -7.148  0.00  0.00    +0.000 NA
ATOM      3  N   UNL     1     -21.145  42.601  -5.568  0.00  0.00    +0.000 N 
ATOM      4  C   UNL     1     -19.353  40.946  -8.919  0.00  0.00    +0.000 A 
ATOM      5  C   UNL     1     -20.545  40.413  -8.441  0.00  0.00    +0.000 A 
ATOM      6  C   UNL     1     -18.807  42.024  -8.243  0.00  0.00    +0.000 A 
ATOM      7  C   UNL     1     -21.146  40.968  -7.317  0.00  0.00    +0.000 A 
ATOM      8  C   UNL     1     -20.521  42.046  -6.712  0.00  0.00    +0.000 A 
ATOM      9  H   UNL     1     -22.151  42.523  -5.483  0.00  0.00    +0.000 HD
ATOM     10  H   UNL     1     -20.688  43.392  -5.133  0.00  0.00    +0.000 HD
ENDROOT
BRANCH   4  13
ATOM     11  O   UNL     1     -17.498  40.060 -10.048  0.00  0.00    +0.000 OA
ATOM     12  N   UNL     1     -19.479  40.225 -11.240  0.00  0.00    +0.000 N 
ATOM     13  C   UNL     1     -18.697  40.390 -10.090  0.00  0.00    +0.000 C 
ATOM     14  H   UNL     1     -20.468  40.452 -11.214  0.00  0.00    +0.000 HD
BRANCH  12  15
ATOM     15  C   UNL     1     -18.979  39.665 -12.476  0.00  0.00    +0.000 C 
ATOM     16  C   UNL     1     -18.156  40.675 -13.248  0.00  0.00    +0.000 C 
ENDBRANCH  12  15
ENDBRANCH   4  13
TORSDOF 2
ENDMDL
MODEL 3
REMARK VINA RESULT:    -5.834      2.689      3.107
REMARK INTER + INTRA:          -6.459
REMARK INTER:                  -6.315
REMARK INTRA:                  -0.144
REMARK UNBOUND:                 0.058
REMARK  Name = 118348030
REMARK  3 active torsions:
REMARK  status: ('A' for Active; 'I' for Inactive)
REMARK    1  A    between atoms: N_3  and  C_7
REMARK    2  A    between atoms: C_6  and  C_8
REMARK    3  A    between atoms: C_7  and  C_10
REMARK                            x       y       z     vdW  Elec       q    Type
REMARK                         _______ _______ _______ _____ _____    ______ ____
ROOT
ATOM      1  F   UNL     1     -16.444  42.815 -11.160  0.00  0.00    +0.000 F 
ATOM      2  N   UNL     1     -19.686  41.749 -13.495  0.00  0.00    +0.000 NA
ATOM      3  N   UNL     1     -18.900  43.204 -15.211  0.00  0.00    +0.000 N 
ATOM      4  C   UNL     1     -18.435  41.555 -11.436  0.00  0.00    +0.000 A 
ATOM      5  C   UNL     1     -17.498  42.465 -11.911  0.00  0.00    +0.000 A 
ATOM      6  C   UNL     1     -19.501  41.232 -12.259  0.00  0.00    +0.000 A 
ATOM      7  C   UNL     1     -17.653  43.018 -13.177  0.00  0.00    +0.000 A 
ATOM      8  C   UNL     1     -18.755  42.631 -13.923  0.00  0.00    +0.000 A 
ATOM      9  H   UNL     1     -18.509  44.123 -15.376  0.00  0.00    +0.000 HD
ATOM     10  H   UNL     1     -19.709  42.922 -15.750  0.00  0.00    +0.000 HD
ENDROOT
BRANCH   4  13
ATOM     11  O   UNL     1     -17.349  40.200  -9.859  0.00  0.00    +0.000 OA
ATOM     12  N   UNL     1     -19.275  41.291  -9.167  0.00  0.00    +0.000 N 
ATOM     13  C   UNL     1     -18.302  40.957 -10.119  0.00  0.00    +0.000 C 
ATOM     14  H   UNL     1     -20.002  41.958  -9.402  0.00  0.00    +0.000 HD
BRANCH  12  15
ATOM     15  C   UNL     1     -19.268  40.797  -7.808  0.00  0.00    +0.000 C 
ATOM     16  C   UNL     1     -20.092  41.681  -6.895  0.00  0.00    +0.000 C 
ENDBRANCH  12  15
ENDBRANCH   4  13
TORSDOF 2
ENDMDL
MODEL 4
REMARK VINA RESULT:    -5.732      2.105      2.358
REMARK INTER + INTRA:          -6.345
REMARK INTER:                  -6.543
REMARK INTRA:                   0.198
REMARK UNBOUND:                 0.058
REMARK  Name = 118348030
REMARK  3 active torsions:
REMARK  status: ('A' for Active; 'I' for Inactive)
REMARK    1  A    between atoms: N_3  and  C_7
REMARK    2  A    between atoms: C_6  and  C_8
REMARK    3  A    between atoms: C_7  and  C_10
REMARK                            x       y       z     vdW  Elec       q    Type
REMARK                         _______ _______ _______ _____ _____    ______ ____
ROOT
ATOM      1  F   UNL     1     -19.633  39.096 -10.786  0.00  0.00    +0.000 F 
ATOM      2  N   UNL     1     -17.218  42.453 -10.730  0.00  0.00    +0.000 NA
ATOM      3  N   UNL     1     -16.193  41.722 -12.754  0.00  0.00    +0.000 N 
ATOM      4  C   UNL     1     -18.966  41.114  -9.732  0.00  0.00    +0.000 A 
ATOM      5  C   UNL     1     -18.853  40.186 -10.761  0.00  0.00    +0.000 A 
ATOM      6  C   UNL     1     -18.133  42.221  -9.763  0.00  0.00    +0.000 A 
ATOM      7  C   UNL     1     -17.923  40.390 -11.775  0.00  0.00    +0.000 A 
ATOM      8  C   UNL     1     -17.136  41.528 -11.714  0.00  0.00    +0.000 A 
ATOM      9  H   UNL     1     -15.818  40.906 -13.222  0.00  0.00    +0.000 HD
ATOM     10  H   UNL     1     -15.617  42.552 -12.702  0.00  0.00    +0.000 HD
ENDROOT
BRANCH   4  13
ATOM     11  O   UNL     1     -20.737  39.989  -8.685  0.00  0.00    +0.000 OA
ATOM     12  N   UNL     1     -19.878  41.849  -7.600  0.00  0.00    +0.000 N 
ATOM     13  C   UNL     1     -19.927  40.933  -8.659  0.00  0.00    +0.000 C 
ATOM     14  H   UNL     1     -19.164  42.569  -7.588  0.00  0.00    +0.000 HD
BRANCH  12  15
ATOM     15  C   UNL     1     -20.751  41.789  -6.448  0.00  0.00    +0.000 C 
ATOM     16  C   UNL     1     -22.040  42.548  -6.690  0.00  0.00    +0.000 C 
ENDBRANCH  12  15
ENDBRANCH   4  13
TORSDOF 2
ENDMDL
MODEL 5
REMARK VINA RESULT:    -5.637      3.545      5.228
REMARK INTER + INTRA:          -6.238
REMARK INTER:                  -6.020
REMARK INTRA:                  -0.219
REMARK UNBOUND:                 0.058
REMARK  Name = 118348030
REMARK  3 active torsions:
REMARK  status: ('A' for Active; 'I' for Inactive)
REMARK    1  A    between atoms: N_3  and  C_7
REMARK    2  A    between atoms: C_6  and  C_8
REMARK    3  A    between atoms: C_7  and  C_10
REMARK                            x       y       z     vdW  Elec       q    Type
REMARK                         _______ _______ _______ _____ _____    ______ ____
ROOT
ATOM      1  F   UNL     1     -19.861  40.369 -12.410  0.00  0.00    +0.000 F 
ATOM      2  N   UNL     1     -18.096  41.925  -9.010  0.00  0.00    +0.000 NA
ATOM      3  N   UNL     1     -19.220  40.281  -7.701  0.00  0.00    +0.000 N 
ATOM      4  C   UNL     1     -18.426  41.966 -11.405  0.00  0.00    +0.000 A 
ATOM      5  C   UNL     1     -19.286  40.879 -11.312  0.00  0.00    +0.000 A 
ATOM      6  C   UNL     1     -17.861  42.447 -10.235  0.00  0.00    +0.000 A 
ATOM      7  C   UNL     1     -19.552  40.313 -10.071  0.00  0.00    +0.000 A 
ATOM      8  C   UNL     1     -18.938  40.868  -8.960  0.00  0.00    +0.000 A 
ATOM      9  H   UNL     1     -20.112  39.820  -7.574  0.00  0.00    +0.000 HD
ATOM     10  H   UNL     1     -18.773  40.693  -6.892  0.00  0.00    +0.000 HD
ENDROOT
BRANCH   4  13
ATOM     11  O   UNL     1     -17.047  42.347 -13.263  0.00  0.00    +0.000 OA
ATOM     12  N   UNL     1     -19.103  43.416 -13.237  0.00  0.00    +0.000 N 
ATOM     13  C   UNL     1     -18.124  42.581 -12.686  0.00  0.00    +0.000 C 
ATOM     14  H   UNL     1     -19.993  43.534 -12.762  0.00  0.00    +0.000 HD
BRANCH  12  15
ATOM     15  C   UNL     1     -18.963  44.081 -14.514  0.00  0.00    +0.000 C 
ATOM     16  C   UNL     1     -19.748  43.371 -15.597  0.00  0.00    +0.000 C 
ENDBRANCH  12  15
ENDBRANCH   4  13
TORSDOF 2
ENDMDL
