MODEL 1
REMARK VINA RESULT:    -5.577      0.000      0.000
REMARK INTER + INTRA:          -8.891
REMARK INTER:                  -7.859
REMARK INTRA:                  -1.032
REMARK UNBOUND:                -1.032
REMARK  Name = 118599297
REMARK  11 active torsions:
REMARK  status: ('A' for Active; 'I' for Inactive)
REMARK    1  A    between atoms: N_2  and  C_6
REMARK    2  A    between atoms: N_3  and  C_13
REMARK    3  A    between atoms: N_3  and  C_14
REMARK    4  A    between atoms: C_5  and  C_6
REMARK    5  A    between atoms: C_5  and  C_8
REMARK    6  A    between atoms: C_5  and  C_9
REMARK    7  A    between atoms: C_6  and  C_7
REMARK    8  A    between atoms: C_10  and  C_11
REMARK    9  A    between atoms: C_12  and  C_13
REMARK   10  A    between atoms: C_12  and  C_15
REMARK   11  A    between atoms: C_15  and  C_17
REMARK                            x       y       z     vdW  Elec       q    Type
REMARK                         _______ _______ _______ _____ _____    ______ ____
ROOT
ATOM      1  N   UNL     1     -16.773  42.734 -11.835  0.00  0.00    +0.000 NA
ATOM      2  C   UNL     1     -18.392  43.427 -13.492  0.00  0.00    +0.000 A 
ATOM      3  C   UNL     1     -17.668  42.461 -12.811  0.00  0.00    +0.000 A 
ATOM      4  C   UNL     1     -18.184  44.759 -13.149  0.00  0.00    +0.000 A 
ATOM      5  C   UNL     1     -17.271  45.078 -12.151  0.00  0.00    +0.000 A 
ATOM      6  C   UNL     1     -16.597  44.039 -11.530  0.00  0.00    +0.000 A 
ENDROOT
BRANCH   2   9
ATOM      7  O   UNL     1     -20.268  42.290 -14.321  0.00  0.00    +0.000 OA
ATOM      8  N   UNL     1     -19.202  43.759 -15.764  0.00  0.00    +0.000 N 
ATOM      9  C   UNL     1     -19.372  43.095 -14.558  0.00  0.00    +0.000 C 
ATOM     10  H   UNL     1     -18.403  44.378 -15.872  0.00  0.00    +0.000 HD
BRANCH   8  11
ATOM     11  C   UNL     1     -20.087  43.563 -16.888  0.00  0.00    +0.000 C 
ATOM     12  C   UNL     1     -19.278  43.454 -18.179  0.00  0.00    +0.000 C 
BRANCH  11  13
ATOM     13  C   UNL     1     -21.184  44.652 -16.958  0.00  0.00    +0.000 C 
ATOM     14  C   UNL     1     -22.575  44.055 -16.716  0.00  0.00    +0.000 C 
ATOM     15  C   UNL     1     -21.182  45.441 -18.271  0.00  0.00    +0.000 C 
ENDBRANCH  11  13
ENDBRANCH   8  11
ENDBRANCH   2   9
BRANCH   3  16
ATOM     16  N   UNL     1     -17.877  41.101 -13.153  0.00  0.00    +0.000 N 
ATOM     17  H   UNL     1     -18.151  40.917 -14.113  0.00  0.00    +0.000 HD
BRANCH  16  18
ATOM     18  C   UNL     1     -18.178  40.101 -12.182  0.00  0.00    +0.000 C 
BRANCH  18  19
ATOM     19  C   UNL     1     -19.421  40.482 -11.381  0.00  0.00    +0.000 C 
BRANCH  19  20
ATOM     20  C   UNL     1     -19.131  40.652  -9.887  0.00  0.00    +0.000 C 
ATOM     21  C   UNL     1     -20.254  40.079  -9.035  0.00  0.00    +0.000 C 
ENDBRANCH  19  20
ENDBRANCH  18  19
ENDBRANCH  16  18
ENDBRANCH   3  16
TORSDOF 7
ENDMDL
MODEL 2
REMARK VINA RESULT:    -5.186      1.580      3.610
REMARK INTER + INTRA:          -8.340
REMARK INTER:                  -7.333
REMARK INTRA:                  -1.007
REMARK UNBOUND:                -1.032
REMARK  Name = 118599297
REMARK  11 active torsions:
REMARK  status: ('A' for Active; 'I' for Inactive)
REMARK    1  A    between atoms: N_2  and  C_6
REMARK    2  A    between atoms: N_3  and  C_13
REMARK    3  A    between atoms: N_3  and  C_14
REMARK    4  A    between atoms: C_5  and  C_6
REMARK    5  A    between atoms: C_5  and  C_8
REMARK    6  A    between atoms: C_5  and  C_9
REMARK    7  A    between atoms: C_6  and  C_7
REMARK    8  A    between atoms: C_10  and  C_11
REMARK    9  A    between atoms: C_12  and  C_13
REMARK   10  A    between atoms: C_12  and  C_15
REMARK   11  A    between atoms: C_15  and  C_17
REMARK                            x       y       z     vdW  Elec       q    Type
REMARK                         _______ _______ _______ _____ _____    ______ ____
ROOT
ATOM      1  N   UNL     1     -16.812  40.828 -12.215  0.00  0.00    +0.000 NA
ATOM      2  C   UNL     1     -18.817  41.769 -13.184  0.00  0.00    +0.000 A 
ATOM      3  C   UNL     1     -17.455  41.779 -12.927  0.00  0.00    +0.000 A 
ATOM      4  C   UNL     1     -19.567  40.713 -12.677  0.00  0.00    +0.000 A 
ATOM      5  C   UNL     1     -18.941  39.715 -11.939  0.00  0.00    +0.000 A 
ATOM      6  C   UNL     1     -17.573  39.817 -11.737  0.00  0.00    +0.000 A 
ENDROOT
BRANCH   2   9
ATOM      7  O   UNL     1     -19.826  43.873 -13.418  0.00  0.00    +0.000 OA
ATOM      8  N   UNL     1     -19.683  42.553 -15.320  0.00  0.00    +0.000 N 
ATOM      9  C   UNL     1     -19.495  42.829 -13.974  0.00  0.00    +0.000 C 
ATOM     10  H   UNL     1     -19.407  41.642 -15.674  0.00  0.00    +0.000 HD
BRANCH   8  11
ATOM     11  C   UNL     1     -20.304  43.492 -16.223  0.00  0.00    +0.000 C 
ATOM     12  C   UNL     1     -21.076  42.744 -17.309  0.00  0.00    +0.000 C 
BRANCH  11  13
ATOM     13  C   UNL     1     -19.284  44.501 -16.802  0.00  0.00    +0.000 C 
ATOM     14  C   UNL     1     -19.605  45.933 -16.360  0.00  0.00    +0.000 C 
ATOM     15  C   UNL     1     -19.165  44.446 -18.328  0.00  0.00    +0.000 C 
ENDBRANCH  11  13
ENDBRANCH   8  11
ENDBRANCH   2   9
BRANCH   3  16
ATOM     16  N   UNL     1     -16.684  42.851 -13.443  0.00  0.00    +0.000 N 
ATOM     17  H   UNL     1     -16.364  42.753 -14.401  0.00  0.00    +0.000 HD
BRANCH  16  18
ATOM     18  C   UNL     1     -15.975  43.762 -12.605  0.00  0.00    +0.000 C 
BRANCH  18  19
ATOM     19  C   UNL     1     -16.941  44.553 -11.728  0.00  0.00    +0.000 C 
BRANCH  19  20
ATOM     20  C   UNL     1     -17.284  45.925 -12.315  0.00  0.00    +0.000 C 
ATOM     21  C   UNL     1     -17.885  46.845 -11.262  0.00  0.00    +0.000 C 
ENDBRANCH  19  20
ENDBRANCH  18  19
ENDBRANCH  16  18
ENDBRANCH   3  16
TORSDOF 7
ENDMDL
MODEL 3
REMARK VINA RESULT:    -5.022      2.111      6.392
REMARK INTER + INTRA:          -8.109
REMARK INTER:                  -7.436
REMARK INTRA:                  -0.672
REMARK UNBOUND:                -1.032
REMARK  Name = 118599297
REMARK  11 active torsions:
REMARK  status: ('A' for Active; 'I' for Inactive)
REMARK    1  A    between atoms: N_2  and  C_6
REMARK    2  A    between atoms: N_3  and  C_13
REMARK    3  A    between atoms: N_3  and  C_14
REMARK    4  A    between atoms: C_5  and  C_6
REMARK    5  A    between atoms: C_5  and  C_8
REMARK    6  A    between atoms: C_5  and  C_9
REMARK    7  A    between atoms: C_6  and  C_7
REMARK    8  A    between atoms: C_10  and  C_11
REMARK    9  A    between atoms: C_12  and  C_13
REMARK   10  A    between atoms: C_12  and  C_15
REMARK   11  A    between atoms: C_15  and  C_17
REMARK                            x       y       z     vdW  Elec       q    Type
REMARK                         _______ _______ _______ _____ _____    ______ ____
ROOT
ATOM      1  N   UNL     1     -19.196  40.391 -13.220  0.00  0.00    +0.000 NA
ATOM      2  C   UNL     1     -17.842  41.899 -11.901  0.00  0.00    +0.000 A 
ATOM      3  C   UNL     1     -18.563  41.572 -13.038  0.00  0.00    +0.000 A 
ATOM      4  C   UNL     1     -17.766  40.954 -10.884  0.00  0.00    +0.000 A 
ATOM      5  C   UNL     1     -18.405  39.728 -11.034  0.00  0.00    +0.000 A 
ATOM      6  C   UNL     1     -19.100  39.497 -12.210  0.00  0.00    +0.000 A 
ENDROOT
BRANCH   2   9
ATOM      7  O   UNL     1     -17.800  44.170 -11.316  0.00  0.00    +0.000 OA
ATOM      8  N   UNL     1     -15.808  43.230 -12.040  0.00  0.00    +0.000 N 
ATOM      9  C   UNL     1     -17.159  43.208 -11.730  0.00  0.00    +0.000 C 
ATOM     10  H   UNL     1     -15.379  42.388 -12.413  0.00  0.00    +0.000 HD
BRANCH   8  11
ATOM     11  C   UNL     1     -15.001  44.419 -11.902  0.00  0.00    +0.000 C 
ATOM     12  C   UNL     1     -15.273  45.375 -13.062  0.00  0.00    +0.000 C 
BRANCH  11  13
ATOM     13  C   UNL     1     -13.499  44.085 -11.741  0.00  0.00    +0.000 C 
ATOM     14  C   UNL     1     -13.300  42.753 -11.009  0.00  0.00    +0.000 C 
ATOM     15  C   UNL     1     -12.698  45.185 -11.038  0.00  0.00    +0.000 C 
ENDBRANCH  11  13
ENDBRANCH   8  11
ENDBRANCH   2   9
BRANCH   3  16
ATOM     16  N   UNL     1     -18.646  42.532 -14.078  0.00  0.00    +0.000 N 
ATOM     17  H   UNL     1     -17.836  43.130 -14.203  0.00  0.00    +0.000 HD
BRANCH  16  18
ATOM     18  C   UNL     1     -19.891  42.996 -14.598  0.00  0.00    +0.000 C 
BRANCH  18  19
ATOM     19  C   UNL     1     -19.782  43.276 -16.095  0.00  0.00    +0.000 C 
BRANCH  19  20
ATOM     20  C   UNL     1     -21.095  43.020 -16.840  0.00  0.00    +0.000 C 
ATOM     21  C   UNL     1     -21.916  44.294 -16.972  0.00  0.00    +0.000 C 
ENDBRANCH  19  20
ENDBRANCH  18  19
ENDBRANCH  16  18
ENDBRANCH   3  16
TORSDOF 7
ENDMDL
MODEL 4
REMARK VINA RESULT:    -5.020      1.819      5.796
REMARK INTER + INTRA:          -8.106
REMARK INTER:                  -6.849
REMARK INTRA:                  -1.257
REMARK UNBOUND:                -1.032
REMARK  Name = 118599297
REMARK  11 active torsions:
REMARK  status: ('A' for Active; 'I' for Inactive)
REMARK    1  A    between atoms: N_2  and  C_6
REMARK    2  A    between atoms: N_3  and  C_13
REMARK    3  A    between atoms: N_3  and  C_14
REMARK    4  A    between atoms: C_5  and  C_6
REMARK    5  A    between atoms: C_5  and  C_8
REMARK    6  A    between atoms: C_5  and  C_9
REMARK    7  A    between atoms: C_6  and  C_7
REMARK    8  A    between atoms: C_10  and  C_11
REMARK    9  A    between atoms: C_12  and  C_13
REMARK   10  A    between atoms: C_12  and  C_15
REMARK   11  A    between atoms: C_15  and  C_17
REMARK                            x       y       z     vdW  Elec       q    Type
REMARK                         _______ _______ _______ _____ _____    ______ ____
ROOT
ATOM      1  N   UNL     1     -18.615  45.265 -15.216  0.00  0.00    +0.000 NA
ATOM      2  C   UNL     1     -18.641  43.353 -13.737  0.00  0.00    +0.000 A 
ATOM      3  C   UNL     1     -18.214  44.621 -14.098  0.00  0.00    +0.000 A 
ATOM      4  C   UNL     1     -19.539  42.705 -14.579  0.00  0.00    +0.000 A 
ATOM      5  C   UNL     1     -19.974  43.335 -15.738  0.00  0.00    +0.000 A 
ATOM      6  C   UNL     1     -19.487  44.604 -16.010  0.00  0.00    +0.000 A 
ENDROOT
BRANCH   2   9
ATOM      7  O   UNL     1     -18.132  43.307 -11.448  0.00  0.00    +0.000 OA
ATOM      8  N   UNL     1     -17.866  41.329 -12.629  0.00  0.00    +0.000 N 
ATOM      9  C   UNL     1     -18.184  42.672 -12.498  0.00  0.00    +0.000 C 
ATOM     10  H   UNL     1     -17.906  40.905 -13.552  0.00  0.00    +0.000 HD
BRANCH   8  11
ATOM     11  C   UNL     1     -17.431  40.524 -11.512  0.00  0.00    +0.000 C 
ATOM     12  C   UNL     1     -16.197  39.710 -11.901  0.00  0.00    +0.000 C 
BRANCH  11  13
ATOM     13  C   UNL     1     -18.574  39.646 -10.950  0.00  0.00    +0.000 C 
ATOM     14  C   UNL     1     -19.510  39.170 -12.066  0.00  0.00    +0.000 C 
ATOM     15  C   UNL     1     -19.389  40.332  -9.849  0.00  0.00    +0.000 C 
ENDBRANCH  11  13
ENDBRANCH   8  11
ENDBRANCH   2   9
BRANCH   3  16
ATOM     16  N   UNL     1     -17.301  45.289 -13.243  0.00  0.00    +0.000 N 
ATOM     17  H   UNL     1     -17.679  46.053 -12.692  0.00  0.00    +0.000 HD
BRANCH  16  18
ATOM     18  C   UNL     1     -15.891  45.270 -13.458  0.00  0.00    +0.000 C 
BRANCH  18  19
ATOM     19  C   UNL     1     -15.140  45.320 -12.131  0.00  0.00    +0.000 C 
BRANCH  19  20
ATOM     20  C   UNL     1     -14.079  44.222 -12.011  0.00  0.00    +0.000 C 
ATOM     21  C   UNL     1     -14.621  43.004 -11.279  0.00  0.00    +0.000 C 
ENDBRANCH  19  20
ENDBRANCH  18  19
ENDBRANCH  16  18
ENDBRANCH   3  16
TORSDOF 7
ENDMDL
MODEL 5
REMARK VINA RESULT:    -5.014      1.953      5.118
REMARK INTER + INTRA:          -8.097
REMARK INTER:                  -7.235
REMARK INTRA:                  -0.862
REMARK UNBOUND:                -1.032
REMARK  Name = 118599297
REMARK  11 active torsions:
REMARK  status: ('A' for Active; 'I' for Inactive)
REMARK    1  A    between atoms: N_2  and  C_6
REMARK    2  A    between atoms: N_3  and  C_13
REMARK    3  A    between atoms: N_3  and  C_14
REMARK    4  A    between atoms: C_5  and  C_6
REMARK    5  A    between atoms: C_5  and  C_8
REMARK    6  A    between atoms: C_5  and  C_9
REMARK    7  A    between atoms: C_6  and  C_7
REMARK    8  A    between atoms: C_10  and  C_11
REMARK    9  A    between atoms: C_12  and  C_13
REMARK   10  A    between atoms: C_12  and  C_15
REMARK   11  A    between atoms: C_15  and  C_17
REMARK                            x       y       z     vdW  Elec       q    Type
REMARK                         _______ _______ _______ _____ _____    ______ ____
ROOT
ATOM      1  N   UNL     1     -19.296  40.465 -12.780  0.00  0.00    +0.000 NA
ATOM      2  C   UNL     1     -17.805  42.291 -12.245  0.00  0.00    +0.000 A 
ATOM      3  C   UNL     1     -18.667  41.619 -13.096  0.00  0.00    +0.000 A 
ATOM      4  C   UNL     1     -17.573  41.744 -10.988  0.00  0.00    +0.000 A 
ATOM      5  C   UNL     1     -18.201  40.558 -10.626  0.00  0.00    +0.000 A 
ATOM      6  C   UNL     1     -19.046  39.963 -11.550  0.00  0.00    +0.000 A 
ENDROOT
BRANCH   2   9
ATOM      7  O   UNL     1     -16.034  43.518 -13.173  0.00  0.00    +0.000 OA
ATOM      8  N   UNL     1     -17.825  44.725 -12.329  0.00  0.00    +0.000 N 
ATOM      9  C   UNL     1     -17.130  43.561 -12.621  0.00  0.00    +0.000 C 
ATOM     10  H   UNL     1     -18.710  44.654 -11.835  0.00  0.00    +0.000 HD
BRANCH   8  11
ATOM     11  C   UNL     1     -17.314  46.035 -12.656  0.00  0.00    +0.000 C 
ATOM     12  C   UNL     1     -17.316  46.923 -11.413  0.00  0.00    +0.000 C 
BRANCH  11  13
ATOM     13  C   UNL     1     -18.068  46.671 -13.847  0.00  0.00    +0.000 C 
ATOM     14  C   UNL     1     -17.632  46.049 -15.178  0.00  0.00    +0.000 C 
ATOM     15  C   UNL     1     -17.926  48.195 -13.919  0.00  0.00    +0.000 C 
ENDBRANCH  11  13
ENDBRANCH   8  11
ENDBRANCH   2   9
BRANCH   3  16
ATOM     16  N   UNL     1     -18.910  42.173 -14.379  0.00  0.00    +0.000 N 
ATOM     17  H   UNL     1     -18.095  42.323 -14.965  0.00  0.00    +0.000 HD
BRANCH  16  18
ATOM     18  C   UNL     1     -20.083  42.926 -14.681  0.00  0.00    +0.000 C 
BRANCH  18  19
ATOM     19  C   UNL     1     -20.049  43.424 -16.124  0.00  0.00    +0.000 C 
BRANCH  19  20
ATOM     20  C   UNL     1     -21.299  43.028 -16.915  0.00  0.00    +0.000 C 
ATOM     21  C   UNL     1     -22.451  43.985 -16.647  0.00  0.00    +0.000 C 
ENDBRANCH  19  20
ENDBRANCH  18  19
ENDBRANCH  16  18
ENDBRANCH   3  16
TORSDOF 7
ENDMDL
