MODEL 1
REMARK VINA RESULT:    -6.113      0.000      0.000
REMARK INTER + INTRA:          -8.705
REMARK INTER:                  -8.258
REMARK INTRA:                  -0.448
REMARK UNBOUND:                -0.448
REMARK  Name = 118705755
REMARK  6 active torsions:
REMARK  status: ('A' for Active; 'I' for Inactive)
REMARK    1  A    between atoms: N_2  and  C_6
REMARK    2  A    between atoms: N_2  and  C_9
REMARK    3  A    between atoms: N_3  and  C_10
REMARK    4  A    between atoms: C_5  and  C_7
REMARK    5  A    between atoms: C_9  and  C_13
REMARK    6  A    between atoms: C_10  and  C_14
REMARK                            x       y       z     vdW  Elec       q    Type
REMARK                         _______ _______ _______ _____ _____    ______ ____
ROOT
ATOM      1  N   UNL     1     -17.293  40.750 -12.376  0.00  0.00    +0.000 NA
ATOM      2  C   UNL     1     -18.531  40.988 -10.313  0.00  0.00    +0.000 A 
ATOM      3  C   UNL     1     -17.506  41.338 -11.177  0.00  0.00    +0.000 A 
ATOM      4  C   UNL     1     -19.393  39.970 -10.704  0.00  0.00    +0.000 A 
ATOM      5  C   UNL     1     -19.207  39.341 -11.929  0.00  0.00    +0.000 A 
ATOM      6  C   UNL     1     -18.151  39.765 -12.722  0.00  0.00    +0.000 A 
ENDROOT
BRANCH   2   9
ATOM      7  O   UNL     1     -18.039  42.617  -8.699  0.00  0.00    +0.000 OA
ATOM      8  N   UNL     1     -19.759  41.137  -8.216  0.00  0.00    +0.000 N 
ATOM      9  C   UNL     1     -18.737  41.643  -9.028  0.00  0.00    +0.000 C 
ATOM     10  H   UNL     1     -20.293  40.336  -8.543  0.00  0.00    +0.000 HD
BRANCH   8  11
ATOM     11  C   UNL     1     -20.101  41.692  -6.926  0.00  0.00    +0.000 C 
BRANCH  11  12
ATOM     12  C   UNL     1     -21.477  42.272  -7.000  0.00  0.00    +0.000 C 
ATOM     13  C   UNL     1     -22.591  41.540  -7.111  0.00  0.00    +0.000 C 
ENDBRANCH  11  12
ENDBRANCH   8  11
ENDBRANCH   2   9
BRANCH   3  14
ATOM     14  N   UNL     1     -16.624  42.377 -10.786  0.00  0.00    +0.000 N 
ATOM     15  H   UNL     1     -16.454  42.459  -9.788  0.00  0.00    +0.000 HD
BRANCH  14  16
ATOM     16  C   UNL     1     -16.370  43.518 -11.603  0.00  0.00    +0.000 C 
BRANCH  16  17
ATOM     17  C   UNL     1     -17.619  44.333 -11.697  0.00  0.00    +0.000 C 
ATOM     18  C   UNL     1     -18.159  44.743 -12.850  0.00  0.00    +0.000 C 
ENDBRANCH  16  17
ENDBRANCH  14  16
ENDBRANCH   3  14
TORSDOF 6
ENDMDL
MODEL 2
REMARK VINA RESULT:    -5.862      1.841      5.163
REMARK INTER + INTRA:          -8.365
REMARK INTER:                  -7.707
REMARK INTRA:                  -0.658
REMARK UNBOUND:                -0.448
REMARK  Name = 118705755
REMARK  6 active torsions:
REMARK  status: ('A' for Active; 'I' for Inactive)
REMARK    1  A    between atoms: N_2  and  C_6
REMARK    2  A    between atoms: N_2  and  C_9
REMARK    3  A    between atoms: N_3  and  C_10
REMARK    4  A    between atoms: C_5  and  C_7
REMARK    5  A    between atoms: C_9  and  C_13
REMARK    6  A    between atoms: C_10  and  C_14
REMARK                            x       y       z     vdW  Elec       q    Type
REMARK                         _______ _______ _______ _____ _____    ______ ____
ROOT
ATOM      1  N   UNL     1     -19.107  39.596 -10.499  0.00  0.00    +0.000 NA
ATOM      2  C   UNL     1     -17.709  41.309 -11.477  0.00  0.00    +0.000 A 
ATOM      3  C   UNL     1     -18.314  40.685 -10.397  0.00  0.00    +0.000 A 
ATOM      4  C   UNL     1     -17.933  40.779 -12.743  0.00  0.00    +0.000 A 
ATOM      5  C   UNL     1     -18.743  39.660 -12.889  0.00  0.00    +0.000 A 
ATOM      6  C   UNL     1     -19.302  39.110 -11.745  0.00  0.00    +0.000 A 
ENDROOT
BRANCH   2   9
ATOM      7  O   UNL     1     -17.294  43.517 -10.808  0.00  0.00    +0.000 OA
ATOM      8  N   UNL     1     -15.540  42.366 -11.795  0.00  0.00    +0.000 N 
ATOM      9  C   UNL     1     -16.856  42.481 -11.335  0.00  0.00    +0.000 C 
ATOM     10  H   UNL     1     -15.243  41.490 -12.219  0.00  0.00    +0.000 HD
BRANCH   8  11
ATOM     11  C   UNL     1     -14.567  43.430 -11.703  0.00  0.00    +0.000 C 
BRANCH  11  12
ATOM     12  C   UNL     1     -13.496  43.024 -10.743  0.00  0.00    +0.000 C 
ATOM     13  C   UNL     1     -12.815  41.875 -10.826  0.00  0.00    +0.000 C 
ENDBRANCH  11  12
ENDBRANCH   8  11
ENDBRANCH   2   9
BRANCH   3  14
ATOM     14  N   UNL     1     -18.087  41.218  -9.103  0.00  0.00    +0.000 N 
ATOM     15  H   UNL     1     -17.163  41.607  -8.941  0.00  0.00    +0.000 HD
BRANCH  14  16
ATOM     16  C   UNL     1     -18.858  40.832  -7.967  0.00  0.00    +0.000 C 
BRANCH  16  17
ATOM     17  C   UNL     1     -19.598  42.026  -7.456  0.00  0.00    +0.000 C 
ATOM     18  C   UNL     1     -20.718  41.956  -6.728  0.00  0.00    +0.000 C 
ENDBRANCH  16  17
ENDBRANCH  14  16
ENDBRANCH   3  14
TORSDOF 6
ENDMDL
MODEL 3
REMARK VINA RESULT:    -5.754      1.413      4.881
REMARK INTER + INTRA:          -8.220
REMARK INTER:                  -7.554
REMARK INTRA:                  -0.666
REMARK UNBOUND:                -0.448
REMARK  Name = 118705755
REMARK  6 active torsions:
REMARK  status: ('A' for Active; 'I' for Inactive)
REMARK    1  A    between atoms: N_2  and  C_6
REMARK    2  A    between atoms: N_2  and  C_9
REMARK    3  A    between atoms: N_3  and  C_10
REMARK    4  A    between atoms: C_5  and  C_7
REMARK    5  A    between atoms: C_9  and  C_13
REMARK    6  A    between atoms: C_10  and  C_14
REMARK                            x       y       z     vdW  Elec       q    Type
REMARK                         _______ _______ _______ _____ _____    ______ ____
ROOT
ATOM      1  N   UNL     1     -21.276  40.423  -8.665  0.00  0.00    +0.000 NA
ATOM      2  C   UNL     1     -19.037  41.300  -8.909  0.00  0.00    +0.000 A 
ATOM      3  C   UNL     1     -20.102  40.518  -9.327  0.00  0.00    +0.000 A 
ATOM      4  C   UNL     1     -19.187  42.031  -7.737  0.00  0.00    +0.000 A 
ATOM      5  C   UNL     1     -20.380  41.960  -7.027  0.00  0.00    +0.000 A 
ATOM      6  C   UNL     1     -21.386  41.148  -7.529  0.00  0.00    +0.000 A 
ENDROOT
BRANCH   2   9
ATOM      7  O   UNL     1     -17.039  40.393  -9.739  0.00  0.00    +0.000 OA
ATOM      8  N   UNL     1     -17.485  42.611 -10.250  0.00  0.00    +0.000 N 
ATOM      9  C   UNL     1     -17.783  41.384  -9.647  0.00  0.00    +0.000 C 
ATOM     10  H   UNL     1     -18.134  43.384 -10.136  0.00  0.00    +0.000 HD
BRANCH   8  11
ATOM     11  C   UNL     1     -16.293  42.845 -11.034  0.00  0.00    +0.000 C 
BRANCH  11  12
ATOM     12  C   UNL     1     -16.629  43.771 -12.158  0.00  0.00    +0.000 C 
ATOM     13  C   UNL     1     -17.764  43.709 -12.864  0.00  0.00    +0.000 C 
ENDBRANCH  11  12
ENDBRANCH   8  11
ENDBRANCH   2   9
BRANCH   3  14
ATOM     14  N   UNL     1     -19.957  39.771 -10.524  0.00  0.00    +0.000 N 
ATOM     15  H   UNL     1     -19.623  38.818 -10.411  0.00  0.00    +0.000 HD
BRANCH  14  16
ATOM     16  C   UNL     1     -19.803  40.387 -11.801  0.00  0.00    +0.000 C 
BRANCH  16  17
ATOM     17  C   UNL     1     -18.876  39.556 -12.629  0.00  0.00    +0.000 C 
ATOM     18  C   UNL     1     -17.721  40.004 -13.136  0.00  0.00    +0.000 C 
ENDBRANCH  16  17
ENDBRANCH  14  16
ENDBRANCH   3  14
TORSDOF 6
ENDMDL
MODEL 4
REMARK VINA RESULT:    -5.502      3.400      6.136
REMARK INTER + INTRA:          -7.879
REMARK INTER:                  -7.115
REMARK INTRA:                  -0.765
REMARK UNBOUND:                -0.448
REMARK  Name = 118705755
REMARK  6 active torsions:
REMARK  status: ('A' for Active; 'I' for Inactive)
REMARK    1  A    between atoms: N_2  and  C_6
REMARK    2  A    between atoms: N_2  and  C_9
REMARK    3  A    between atoms: N_3  and  C_10
REMARK    4  A    between atoms: C_5  and  C_7
REMARK    5  A    between atoms: C_9  and  C_13
REMARK    6  A    between atoms: C_10  and  C_14
REMARK                            x       y       z     vdW  Elec       q    Type
REMARK                         _______ _______ _______ _____ _____    ______ ____
ROOT
ATOM      1  N   UNL     1     -16.029  42.739 -11.975  0.00  0.00    +0.000 NA
ATOM      2  C   UNL     1     -17.981  43.172 -13.333  0.00  0.00    +0.000 A 
ATOM      3  C   UNL     1     -17.020  42.330 -12.798  0.00  0.00    +0.000 A 
ATOM      4  C   UNL     1     -17.921  44.521 -13.003  0.00  0.00    +0.000 A 
ATOM      5  C   UNL     1     -16.916  44.981 -12.160  0.00  0.00    +0.000 A 
ATOM      6  C   UNL     1     -16.002  44.057 -11.676  0.00  0.00    +0.000 A 
ENDROOT
BRANCH   2   9
ATOM      7  O   UNL     1     -19.820  41.808 -13.841  0.00  0.00    +0.000 OA
ATOM      8  N   UNL     1     -19.140  43.313 -15.469  0.00  0.00    +0.000 N 
ATOM      9  C   UNL     1     -19.040  42.701 -14.215  0.00  0.00    +0.000 C 
ATOM     10  H   UNL     1     -18.469  44.037 -15.716  0.00  0.00    +0.000 HD
BRANCH   8  11
ATOM     11  C   UNL     1     -20.151  42.973 -16.445  0.00  0.00    +0.000 C 
BRANCH  11  12
ATOM     12  C   UNL     1     -20.969  44.190 -16.736  0.00  0.00    +0.000 C 
ATOM     13  C   UNL     1     -22.230  44.154 -17.180  0.00  0.00    +0.000 C 
ENDBRANCH  11  12
ENDBRANCH   8  11
ENDBRANCH   2   9
BRANCH   3  14
ATOM     14  N   UNL     1     -17.077  40.952 -13.128  0.00  0.00    +0.000 N 
ATOM     15  H   UNL     1     -17.667  40.712 -13.919  0.00  0.00    +0.000 HD
BRANCH  14  16
ATOM     16  C   UNL     1     -16.764  39.923 -12.191  0.00  0.00    +0.000 C 
BRANCH  16  17
ATOM     17  C   UNL     1     -17.935  39.723 -11.284  0.00  0.00    +0.000 C 
ATOM     18  C   UNL     1     -19.155  39.370 -11.705  0.00  0.00    +0.000 C 
ENDBRANCH  16  17
ENDBRANCH  14  16
ENDBRANCH   3  14
TORSDOF 6
ENDMDL
MODEL 5
REMARK VINA RESULT:    -5.186      3.181      5.331
REMARK INTER + INTRA:          -7.453
REMARK INTER:                  -6.825
REMARK INTRA:                  -0.628
REMARK UNBOUND:                -0.448
REMARK  Name = 118705755
REMARK  6 active torsions:
REMARK  status: ('A' for Active; 'I' for Inactive)
REMARK    1  A    between atoms: N_2  and  C_6
REMARK    2  A    between atoms: N_2  and  C_9
REMARK    3  A    between atoms: N_3  and  C_10
REMARK    4  A    between atoms: C_5  and  C_7
REMARK    5  A    between atoms: C_9  and  C_13
REMARK    6  A    between atoms: C_10  and  C_14
REMARK                            x       y       z     vdW  Elec       q    Type
REMARK                         _______ _______ _______ _____ _____    ______ ____
ROOT
ATOM      1  N   UNL     1     -19.236  40.573 -13.174  0.00  0.00    +0.000 NA
ATOM      2  C   UNL     1     -17.485  41.763 -12.007  0.00  0.00    +0.000 A 
ATOM      3  C   UNL     1     -18.379  41.612 -13.054  0.00  0.00    +0.000 A 
ATOM      4  C   UNL     1     -17.469  40.786 -11.019  0.00  0.00    +0.000 A 
ATOM      5  C   UNL     1     -18.335  39.702 -11.106  0.00  0.00    +0.000 A 
ATOM      6  C   UNL     1     -19.192  39.643 -12.194  0.00  0.00    +0.000 A 
ENDROOT
BRANCH   2   9
ATOM      7  O   UNL     1     -17.017  44.045 -11.733  0.00  0.00    +0.000 OA
ATOM      8  N   UNL     1     -15.206  42.619 -11.984  0.00  0.00    +0.000 N 
ATOM      9  C   UNL     1     -16.575  42.896 -11.904  0.00  0.00    +0.000 C 
ATOM     10  H   UNL     1     -14.908  41.657 -12.127  0.00  0.00    +0.000 HD
BRANCH   8  11
ATOM     11  C   UNL     1     -14.180  43.630 -11.876  0.00  0.00    +0.000 C 
BRANCH  11  12
ATOM     12  C   UNL     1     -13.013  43.057 -11.137  0.00  0.00    +0.000 C 
ATOM     13  C   UNL     1     -11.830  42.789 -11.701  0.00  0.00    +0.000 C 
ENDBRANCH  11  12
ENDBRANCH   8  11
ENDBRANCH   2   9
BRANCH   3  14
ATOM     14  N   UNL     1     -18.403  42.606 -14.065  0.00  0.00    +0.000 N 
ATOM     15  H   UNL     1     -17.503  43.009 -14.308  0.00  0.00    +0.000 HD
BRANCH  14  16
ATOM     16  C   UNL     1     -19.577  43.350 -14.384  0.00  0.00    +0.000 C 
BRANCH  16  17
ATOM     17  C   UNL     1     -19.938  43.093 -15.812  0.00  0.00    +0.000 C 
ATOM     18  C   UNL     1     -21.140  43.355 -16.337  0.00  0.00    +0.000 C 
ENDBRANCH  16  17
ENDBRANCH  14  16
ENDBRANCH   3  14
TORSDOF 6
ENDMDL
