MODEL 1
REMARK VINA RESULT:    -6.635      0.000      0.000
REMARK INTER + INTRA:         -10.624
REMARK INTER:                  -9.738
REMARK INTRA:                  -0.886
REMARK UNBOUND:                -0.886
REMARK  Name = 118705756
REMARK  12 active torsions:
REMARK  status: ('A' for Active; 'I' for Inactive)
REMARK    1  A    between atoms: N_2  and  C_9
REMARK    2  A    between atoms: N_2  and  C_15
REMARK    3  A    between atoms: N_3  and  C_10
REMARK    4  A    between atoms: C_5  and  C_7
REMARK    5  A    between atoms: C_5  and  C_11
REMARK    6  A    between atoms: C_5  and  C_12
REMARK    7  A    between atoms: C_6  and  C_8
REMARK    8  A    between atoms: C_6  and  C_13
REMARK    9  A    between atoms: C_6  and  C_14
REMARK   10  A    between atoms: C_7  and  C_9
REMARK   11  A    between atoms: C_8  and  C_10
REMARK   12  A    between atoms: C_16  and  C_17
REMARK                            x       y       z     vdW  Elec       q    Type
REMARK                         _______ _______ _______ _____ _____    ______ ____
ROOT
ATOM      1  N   UNL     1     -19.013  39.427 -10.718  0.00  0.00    +0.000 NA
ATOM      2  C   UNL     1     -18.203  40.475 -10.444  0.00  0.00    +0.000 A 
ATOM      3  C   UNL     1     -17.584  41.250 -11.411  0.00  0.00    +0.000 A 
ATOM      4  C   UNL     1     -17.811  40.931 -12.745  0.00  0.00    +0.000 A 
ATOM      5  C   UNL     1     -18.638  39.861 -13.067  0.00  0.00    +0.000 A 
ATOM      6  C   UNL     1     -19.211  39.147 -12.025  0.00  0.00    +0.000 A 
ENDROOT
BRANCH   3   9
ATOM      7  O   UNL     1     -17.133  43.313 -10.391  0.00  0.00    +0.000 OA
ATOM      8  N   UNL     1     -15.401  42.314 -11.564  0.00  0.00    +0.000 N 
ATOM      9  C   UNL     1     -16.713  42.371 -11.084  0.00  0.00    +0.000 C 
ATOM     10  H   UNL     1     -15.115  41.512 -12.117  0.00  0.00    +0.000 HD
BRANCH   8  11
ATOM     11  C   UNL     1     -14.412  43.336 -11.305  0.00  0.00    +0.000 C 
BRANCH  11  12
ATOM     12  C   UNL     1     -13.001  42.796 -11.534  0.00  0.00    +0.000 C 
BRANCH  12  13
ATOM     13  C   UNL     1     -12.509  41.783 -10.480  0.00  0.00    +0.000 C 
ATOM     14  C   UNL     1     -11.616  40.734 -11.148  0.00  0.00    +0.000 C 
ATOM     15  C   UNL     1     -11.747  42.454  -9.336  0.00  0.00    +0.000 C 
ENDBRANCH  12  13
ENDBRANCH  11  12
ENDBRANCH   8  11
ENDBRANCH   3   9
BRANCH   2  16
ATOM     16  N   UNL     1     -17.980  40.785  -9.111  0.00  0.00    +0.000 N 
ATOM     17  H   UNL     1     -17.014  40.774  -8.799  0.00  0.00    +0.000 HD
BRANCH  16  18
ATOM     18  C   UNL     1     -18.985  40.676  -8.083  0.00  0.00    +0.000 C 
BRANCH  18  19
ATOM     19  C   UNL     1     -19.443  42.059  -7.622  0.00  0.00    +0.000 C 
BRANCH  19  20
ATOM     20  C   UNL     1     -20.913  42.142  -7.163  0.00  0.00    +0.000 C 
ATOM     21  C   UNL     1     -21.058  42.048  -5.644  0.00  0.00    +0.000 C 
ATOM     22  C   UNL     1     -21.726  41.029  -7.830  0.00  0.00    +0.000 C 
ENDBRANCH  19  20
ENDBRANCH  18  19
ENDBRANCH  16  18
ENDBRANCH   2  16
TORSDOF 8
ENDMDL
MODEL 2
REMARK VINA RESULT:    -6.298      2.614      3.743
REMARK INTER + INTRA:         -10.129
REMARK INTER:                  -9.193
REMARK INTRA:                  -0.936
REMARK UNBOUND:                -0.886
REMARK  Name = 118705756
REMARK  12 active torsions:
REMARK  status: ('A' for Active; 'I' for Inactive)
REMARK    1  A    between atoms: N_2  and  C_9
REMARK    2  A    between atoms: N_2  and  C_15
REMARK    3  A    between atoms: N_3  and  C_10
REMARK    4  A    between atoms: C_5  and  C_7
REMARK    5  A    between atoms: C_5  and  C_11
REMARK    6  A    between atoms: C_5  and  C_12
REMARK    7  A    between atoms: C_6  and  C_8
REMARK    8  A    between atoms: C_6  and  C_13
REMARK    9  A    between atoms: C_6  and  C_14
REMARK   10  A    between atoms: C_7  and  C_9
REMARK   11  A    between atoms: C_8  and  C_10
REMARK   12  A    between atoms: C_16  and  C_17
REMARK                            x       y       z     vdW  Elec       q    Type
REMARK                         _______ _______ _______ _____ _____    ______ ____
ROOT
ATOM      1  N   UNL     1     -19.005  39.676 -10.472  0.00  0.00    +0.000 NA
ATOM      2  C   UNL     1     -18.384  40.873 -10.370  0.00  0.00    +0.000 A 
ATOM      3  C   UNL     1     -17.912  41.596 -11.453  0.00  0.00    +0.000 A 
ATOM      4  C   UNL     1     -18.088  41.058 -12.723  0.00  0.00    +0.000 A 
ATOM      5  C   UNL     1     -18.723  39.829 -12.869  0.00  0.00    +0.000 A 
ATOM      6  C   UNL     1     -19.160  39.184 -11.722  0.00  0.00    +0.000 A 
ENDROOT
BRANCH   3   9
ATOM      7  O   UNL     1     -16.062  42.938 -10.928  0.00  0.00    +0.000 OA
ATOM      8  N   UNL     1     -17.982  44.020 -11.646  0.00  0.00    +0.000 N 
ATOM      9  C   UNL     1     -17.242  42.882 -11.311  0.00  0.00    +0.000 C 
ATOM     10  H   UNL     1     -18.941  43.908 -11.962  0.00  0.00    +0.000 HD
BRANCH   8  11
ATOM     11  C   UNL     1     -17.452  45.364 -11.579  0.00  0.00    +0.000 C 
BRANCH  11  12
ATOM     12  C   UNL     1     -17.850  46.166 -12.818  0.00  0.00    +0.000 C 
BRANCH  12  13
ATOM     13  C   UNL     1     -17.555  45.477 -14.166  0.00  0.00    +0.000 C 
ATOM     14  C   UNL     1     -18.613  45.883 -15.196  0.00  0.00    +0.000 C 
ATOM     15  C   UNL     1     -16.162  45.810 -14.701  0.00  0.00    +0.000 C 
ENDBRANCH  12  13
ENDBRANCH  11  12
ENDBRANCH   8  11
ENDBRANCH   3   9
BRANCH   2  16
ATOM     16  N   UNL     1     -18.210  41.402  -9.101  0.00  0.00    +0.000 N 
ATOM     17  H   UNL     1     -17.349  41.913  -8.937  0.00  0.00    +0.000 HD
BRANCH  16  18
ATOM     18  C   UNL     1     -18.900  40.921  -7.930  0.00  0.00    +0.000 C 
BRANCH  18  19
ATOM     19  C   UNL     1     -19.719  42.037  -7.284  0.00  0.00    +0.000 C 
BRANCH  19  20
ATOM     20  C   UNL     1     -21.167  41.657  -6.912  0.00  0.00    +0.000 C 
ATOM     21  C   UNL     1     -21.829  40.773  -7.969  0.00  0.00    +0.000 C 
ATOM     22  C   UNL     1     -21.998  42.926  -6.706  0.00  0.00    +0.000 C 
ENDBRANCH  19  20
ENDBRANCH  18  19
ENDBRANCH  16  18
ENDBRANCH   2  16
TORSDOF 8
ENDMDL
MODEL 3
REMARK VINA RESULT:    -6.099      4.304      7.289
REMARK INTER + INTRA:          -9.837
REMARK INTER:                  -9.291
REMARK INTRA:                  -0.546
REMARK UNBOUND:                -0.886
REMARK  Name = 118705756
REMARK  12 active torsions:
REMARK  status: ('A' for Active; 'I' for Inactive)
REMARK    1  A    between atoms: N_2  and  C_9
REMARK    2  A    between atoms: N_2  and  C_15
REMARK    3  A    between atoms: N_3  and  C_10
REMARK    4  A    between atoms: C_5  and  C_7
REMARK    5  A    between atoms: C_5  and  C_11
REMARK    6  A    between atoms: C_5  and  C_12
REMARK    7  A    between atoms: C_6  and  C_8
REMARK    8  A    between atoms: C_6  and  C_13
REMARK    9  A    between atoms: C_6  and  C_14
REMARK   10  A    between atoms: C_7  and  C_9
REMARK   11  A    between atoms: C_8  and  C_10
REMARK   12  A    between atoms: C_16  and  C_17
REMARK                            x       y       z     vdW  Elec       q    Type
REMARK                         _______ _______ _______ _____ _____    ______ ____
ROOT
ATOM      1  N   UNL     1     -18.598  44.921 -14.841  0.00  0.00    +0.000 NA
ATOM      2  C   UNL     1     -18.854  43.722 -14.270  0.00  0.00    +0.000 A 
ATOM      3  C   UNL     1     -18.652  43.445 -12.928  0.00  0.00    +0.000 A 
ATOM      4  C   UNL     1     -18.157  44.461 -12.119  0.00  0.00    +0.000 A 
ATOM      5  C   UNL     1     -17.881  45.708 -12.670  0.00  0.00    +0.000 A 
ATOM      6  C   UNL     1     -18.117  45.886 -14.025  0.00  0.00    +0.000 A 
ENDROOT
BRANCH   3   9
ATOM      7  O   UNL     1     -19.758  41.377 -12.873  0.00  0.00    +0.000 OA
ATOM      8  N   UNL     1     -18.223  41.798 -11.188  0.00  0.00    +0.000 N 
ATOM      9  C   UNL     1     -18.935  42.141 -12.342  0.00  0.00    +0.000 C 
ATOM     10  H   UNL     1     -17.555  42.462 -10.807  0.00  0.00    +0.000 HD
BRANCH   8  11
ATOM     11  C   UNL     1     -18.374  40.534 -10.504  0.00  0.00    +0.000 C 
BRANCH  11  12
ATOM     12  C   UNL     1     -18.139  40.698  -9.002  0.00  0.00    +0.000 C 
BRANCH  12  13
ATOM     13  C   UNL     1     -19.386  40.493  -8.118  0.00  0.00    +0.000 C 
ATOM     14  C   UNL     1     -19.686  41.778  -7.341  0.00  0.00    +0.000 C 
ATOM     15  C   UNL     1     -20.616  40.084  -8.929  0.00  0.00    +0.000 C 
ENDBRANCH  12  13
ENDBRANCH  11  12
ENDBRANCH   8  11
ENDBRANCH   3   9
BRANCH   2  16
ATOM     16  N   UNL     1     -19.346  42.713 -15.083  0.00  0.00    +0.000 N 
ATOM     17  H   UNL     1     -18.980  41.781 -14.919  0.00  0.00    +0.000 HD
BRANCH  16  18
ATOM     18  C   UNL     1     -19.955  42.945 -16.370  0.00  0.00    +0.000 C 
BRANCH  18  19
ATOM     19  C   UNL     1     -21.411  43.379 -16.213  0.00  0.00    +0.000 C 
BRANCH  19  20
ATOM     20  C   UNL     1     -21.855  44.531 -17.136  0.00  0.00    +0.000 C 
ATOM     21  C   UNL     1     -23.352  44.823 -17.029  0.00  0.00    +0.000 C 
ATOM     22  C   UNL     1     -21.496  44.198 -18.587  0.00  0.00    +0.000 C 
ENDBRANCH  19  20
ENDBRANCH  18  19
ENDBRANCH  16  18
ENDBRANCH   2  16
TORSDOF 8
ENDMDL
MODEL 4
REMARK VINA RESULT:    -6.059      2.345      6.345
REMARK INTER + INTRA:          -9.779
REMARK INTER:                  -9.440
REMARK INTRA:                  -0.338
REMARK UNBOUND:                -0.886
REMARK  Name = 118705756
REMARK  12 active torsions:
REMARK  status: ('A' for Active; 'I' for Inactive)
REMARK    1  A    between atoms: N_2  and  C_9
REMARK    2  A    between atoms: N_2  and  C_15
REMARK    3  A    between atoms: N_3  and  C_10
REMARK    4  A    between atoms: C_5  and  C_7
REMARK    5  A    between atoms: C_5  and  C_11
REMARK    6  A    between atoms: C_5  and  C_12
REMARK    7  A    between atoms: C_6  and  C_8
REMARK    8  A    between atoms: C_6  and  C_13
REMARK    9  A    between atoms: C_6  and  C_14
REMARK   10  A    between atoms: C_7  and  C_9
REMARK   11  A    between atoms: C_8  and  C_10
REMARK   12  A    between atoms: C_16  and  C_17
REMARK                            x       y       z     vdW  Elec       q    Type
REMARK                         _______ _______ _______ _____ _____    ______ ____
ROOT
ATOM      1  N   UNL     1     -17.123  40.738 -12.682  0.00  0.00    +0.000 NA
ATOM      2  C   UNL     1     -17.333  41.155 -11.413  0.00  0.00    +0.000 A 
ATOM      3  C   UNL     1     -18.379  40.718 -10.617  0.00  0.00    +0.000 A 
ATOM      4  C   UNL     1     -19.266  39.793 -11.155  0.00  0.00    +0.000 A 
ATOM      5  C   UNL     1     -19.083  39.339 -12.457  0.00  0.00    +0.000 A 
ATOM      6  C   UNL     1     -18.004  39.838 -13.172  0.00  0.00    +0.000 A 
ENDROOT
BRANCH   3   9
ATOM      7  O   UNL     1     -17.854  42.078  -8.780  0.00  0.00    +0.000 OA
ATOM      8  N   UNL     1     -19.636  40.616  -8.535  0.00  0.00    +0.000 N 
ATOM      9  C   UNL     1     -18.582  41.190  -9.253  0.00  0.00    +0.000 C 
ATOM     10  H   UNL     1     -20.203  39.901  -8.982  0.00  0.00    +0.000 HD
BRANCH   8  11
ATOM     11  C   UNL     1     -19.978  40.993  -7.183  0.00  0.00    +0.000 C 
BRANCH  11  12
ATOM     12  C   UNL     1     -20.547  42.412  -7.142  0.00  0.00    +0.000 C 
BRANCH  12  13
ATOM     13  C   UNL     1     -22.008  42.518  -6.661  0.00  0.00    +0.000 C 
ATOM     14  C   UNL     1     -22.802  41.301  -7.146  0.00  0.00    +0.000 C 
ATOM     15  C   UNL     1     -22.116  42.629  -5.139  0.00  0.00    +0.000 C 
ENDBRANCH  12  13
ENDBRANCH  11  12
ENDBRANCH   8  11
ENDBRANCH   3   9
BRANCH   2  16
ATOM     16  N   UNL     1     -16.446  42.079 -10.883  0.00  0.00    +0.000 N 
ATOM     17  H   UNL     1     -16.233  41.987  -9.895  0.00  0.00    +0.000 HD
BRANCH  16  18
ATOM     18  C   UNL     1     -16.176  43.365 -11.479  0.00  0.00    +0.000 C 
BRANCH  18  19
ATOM     19  C   UNL     1     -17.405  44.269 -11.401  0.00  0.00    +0.000 C 
BRANCH  19  20
ATOM     20  C   UNL     1     -17.317  45.567 -12.229  0.00  0.00    +0.000 C 
ATOM     21  C   UNL     1     -17.293  46.820 -11.352  0.00  0.00    +0.000 C 
ATOM     22  C   UNL     1     -18.497  45.640 -13.202  0.00  0.00    +0.000 C 
ENDBRANCH  19  20
ENDBRANCH  18  19
ENDBRANCH  16  18
ENDBRANCH   2  16
TORSDOF 8
ENDMDL
MODEL 5
REMARK VINA RESULT:    -6.053      3.949      6.392
REMARK INTER + INTRA:          -9.770
REMARK INTER:                  -8.786
REMARK INTRA:                  -0.984
REMARK UNBOUND:                -0.886
REMARK  Name = 118705756
REMARK  12 active torsions:
REMARK  status: ('A' for Active; 'I' for Inactive)
REMARK    1  A    between atoms: N_2  and  C_9
REMARK    2  A    between atoms: N_2  and  C_15
REMARK    3  A    between atoms: N_3  and  C_10
REMARK    4  A    between atoms: C_5  and  C_7
REMARK    5  A    between atoms: C_5  and  C_11
REMARK    6  A    between atoms: C_5  and  C_12
REMARK    7  A    between atoms: C_6  and  C_8
REMARK    8  A    between atoms: C_6  and  C_13
REMARK    9  A    between atoms: C_6  and  C_14
REMARK   10  A    between atoms: C_7  and  C_9
REMARK   11  A    between atoms: C_8  and  C_10
REMARK   12  A    between atoms: C_16  and  C_17
REMARK                            x       y       z     vdW  Elec       q    Type
REMARK                         _______ _______ _______ _____ _____    ______ ____
ROOT
ATOM      1  N   UNL     1     -16.152  41.808 -11.720  0.00  0.00    +0.000 NA
ATOM      2  C   UNL     1     -17.248  41.666 -12.500  0.00  0.00    +0.000 A 
ATOM      3  C   UNL     1     -17.848  42.708 -13.189  0.00  0.00    +0.000 A 
ATOM      4  C   UNL     1     -17.289  43.975 -13.072  0.00  0.00    +0.000 A 
ATOM      5  C   UNL     1     -16.161  44.160 -12.279  0.00  0.00    +0.000 A 
ATOM      6  C   UNL     1     -15.635  43.053 -11.631  0.00  0.00    +0.000 A 
ENDROOT
BRANCH   3   9
ATOM      7  O   UNL     1     -19.976  41.823 -13.621  0.00  0.00    +0.000 OA
ATOM      8  N   UNL     1     -19.052  43.191 -15.248  0.00  0.00    +0.000 N 
ATOM      9  C   UNL     1     -19.032  42.525 -14.019  0.00  0.00    +0.000 C 
ATOM     10  H   UNL     1     -18.252  43.759 -15.513  0.00  0.00    +0.000 HD
BRANCH   8  11
ATOM     11  C   UNL     1     -20.162  43.127 -16.171  0.00  0.00    +0.000 C 
BRANCH  11  12
ATOM     12  C   UNL     1     -19.686  43.344 -17.608  0.00  0.00    +0.000 C 
BRANCH  12  13
ATOM     13  C   UNL     1     -20.070  44.704 -18.226  0.00  0.00    +0.000 C 
ATOM     14  C   UNL     1     -20.760  44.484 -19.575  0.00  0.00    +0.000 C 
ATOM     15  C   UNL     1     -20.979  45.526 -17.311  0.00  0.00    +0.000 C 
ENDBRANCH  12  13
ENDBRANCH  11  12
ENDBRANCH   8  11
ENDBRANCH   3   9
BRANCH   2  16
ATOM     16  N   UNL     1     -17.801  40.401 -12.610  0.00  0.00    +0.000 N 
ATOM     17  H   UNL     1     -18.255  40.179 -13.491  0.00  0.00    +0.000 HD
BRANCH  16  18
ATOM     18  C   UNL     1     -18.169  39.585 -11.479  0.00  0.00    +0.000 C 
BRANCH  18  19
ATOM     19  C   UNL     1     -19.429  40.126 -10.805  0.00  0.00    +0.000 C 
BRANCH  19  20
ATOM     20  C   UNL     1     -19.313  40.349  -9.283  0.00  0.00    +0.000 C 
ATOM     21  C   UNL     1     -20.678  40.424  -8.598  0.00  0.00    +0.000 C 
ATOM     22  C   UNL     1     -18.526  41.633  -9.008  0.00  0.00    +0.000 C 
ENDBRANCH  19  20
ENDBRANCH  18  19
ENDBRANCH  16  18
ENDBRANCH   2  16
TORSDOF 8
ENDMDL
