MODEL 1
REMARK VINA RESULT:    -6.808      0.000      0.000
REMARK INTER + INTRA:          -7.253
REMARK INTER:                  -7.206
REMARK INTRA:                  -0.046
REMARK UNBOUND:                -0.046
REMARK  Name = 118861700
REMARK  2 active torsions:
REMARK  status: ('A' for Active; 'I' for Inactive)
REMARK    1  A    between atoms: C_5  and  C_9
REMARK    2  A    between atoms: C_7  and  C_11
REMARK                            x       y       z     vdW  Elec       q    Type
REMARK                         _______ _______ _______ _____ _____    ______ ____
ROOT
ATOM      1  N   UNL     1     -18.833  42.140  -7.702  0.00  0.00    +0.000 NA
ATOM      2  N   UNL     1     -17.548  41.065  -9.382  0.00  0.00    +0.000 N 
ATOM      3  C   UNL     1     -19.889  40.553  -9.189  0.00  0.00    +0.000 A 
ATOM      4  C   UNL     1     -21.106  40.749  -8.547  0.00  0.00    +0.000 A 
ATOM      5  C   UNL     1     -21.189  41.642  -7.484  0.00  0.00    +0.000 A 
ATOM      6  C   UNL     1     -18.792  41.265  -8.733  0.00  0.00    +0.000 A 
ATOM      7  C   UNL     1     -19.804  39.596 -10.329  0.00  0.00    +0.000 C 
ATOM      8  C   UNL     1     -20.033  42.306  -7.103  0.00  0.00    +0.000 A 
ATOM      9  H   UNL     1     -17.545  40.843 -10.370  0.00  0.00    +0.000 HD
ATOM     10  H   UNL     1     -16.762  41.592  -9.020  0.00  0.00    +0.000 HD
ENDROOT
BRANCH   5  13
ATOM     11  O   UNL     1     -23.356  41.021  -6.804  0.00  0.00    +0.000 OA
ATOM     12  N   UNL     1     -22.594  43.063  -6.091  0.00  0.00    +0.000 N 
ATOM     13  C   UNL     1     -22.445  41.868  -6.791  0.00  0.00    +0.000 C 
ATOM     14  H   UNL     1     -21.902  43.799  -6.027  0.00  0.00    +0.000 HD
ATOM     15  H   UNL     1     -23.460  43.244  -5.592  0.00  0.00    +0.000 HD
ENDBRANCH   5  13
TORSDOF 1
ENDMDL
MODEL 2
REMARK VINA RESULT:    -6.568      1.991      4.109
REMARK INTER + INTRA:          -6.998
REMARK INTER:                  -6.950
REMARK INTRA:                  -0.048
REMARK UNBOUND:                -0.046
REMARK  Name = 118861700
REMARK  2 active torsions:
REMARK  status: ('A' for Active; 'I' for Inactive)
REMARK    1  A    between atoms: C_5  and  C_9
REMARK    2  A    between atoms: C_7  and  C_11
REMARK                            x       y       z     vdW  Elec       q    Type
REMARK                         _______ _______ _______ _____ _____    ______ ____
ROOT
ATOM      1  N   UNL     1     -19.390  42.367  -7.141  0.00  0.00    +0.000 NA
ATOM      2  N   UNL     1     -21.360  42.777  -5.883  0.00  0.00    +0.000 N 
ATOM      3  C   UNL     1     -21.433  41.200  -7.696  0.00  0.00    +0.000 A 
ATOM      4  C   UNL     1     -20.783  40.538  -8.731  0.00  0.00    +0.000 A 
ATOM      5  C   UNL     1     -19.437  40.788  -8.972  0.00  0.00    +0.000 A 
ATOM      6  C   UNL     1     -20.700  42.097  -6.938  0.00  0.00    +0.000 A 
ATOM      7  C   UNL     1     -22.877  40.927  -7.440  0.00  0.00    +0.000 C 
ATOM      8  C   UNL     1     -18.792  41.705  -8.156  0.00  0.00    +0.000 A 
ATOM      9  H   UNL     1     -22.112  42.307  -5.397  0.00  0.00    +0.000 HD
ATOM     10  H   UNL     1     -20.800  43.434  -5.353  0.00  0.00    +0.000 HD
ENDROOT
BRANCH   5  13
ATOM     11  O   UNL     1     -19.302  39.297 -10.789  0.00  0.00    +0.000 OA
ATOM     12  N   UNL     1     -17.385  40.427 -10.235  0.00  0.00    +0.000 N 
ATOM     13  C   UNL     1     -18.729  40.114 -10.046  0.00  0.00    +0.000 C 
ATOM     14  H   UNL     1     -16.849  41.081  -9.680  0.00  0.00    +0.000 HD
ATOM     15  H   UNL     1     -16.868  39.975 -10.983  0.00  0.00    +0.000 HD
ENDBRANCH   5  13
TORSDOF 1
ENDMDL
MODEL 3
REMARK VINA RESULT:    -6.117      2.881      4.507
REMARK INTER + INTRA:          -6.521
REMARK INTER:                  -6.475
REMARK INTRA:                  -0.046
REMARK UNBOUND:                -0.046
REMARK  Name = 118861700
REMARK  2 active torsions:
REMARK  status: ('A' for Active; 'I' for Inactive)
REMARK    1  A    between atoms: C_5  and  C_9
REMARK    2  A    between atoms: C_7  and  C_11
REMARK                            x       y       z     vdW  Elec       q    Type
REMARK                         _______ _______ _______ _____ _____    ______ ____
ROOT
ATOM      1  N   UNL     1     -18.289  42.032  -8.609  0.00  0.00    +0.000 NA
ATOM      2  N   UNL     1     -19.772  42.525  -6.823  0.00  0.00    +0.000 N 
ATOM      3  C   UNL     1     -20.448  40.950  -8.509  0.00  0.00    +0.000 A 
ATOM      4  C   UNL     1     -20.166  40.259  -9.681  0.00  0.00    +0.000 A 
ATOM      5  C   UNL     1     -18.945  40.454 -10.319  0.00  0.00    +0.000 A 
ATOM      6  C   UNL     1     -19.486  41.817  -8.018  0.00  0.00    +0.000 A 
ATOM      7  C   UNL     1     -21.758  40.738  -7.827  0.00  0.00    +0.000 C 
ATOM      8  C   UNL     1     -18.049  41.343  -9.747  0.00  0.00    +0.000 A 
ATOM      9  H   UNL     1     -20.361  42.088  -6.127  0.00  0.00    +0.000 HD
ATOM     10  H   UNL     1     -19.052  43.159  -6.495  0.00  0.00    +0.000 HD
ENDROOT
BRANCH   5  13
ATOM     11  O   UNL     1     -17.441  39.518 -11.871  0.00  0.00    +0.000 OA
ATOM     12  N   UNL     1     -19.676  39.318 -12.347  0.00  0.00    +0.000 N 
ATOM     13  C   UNL     1     -18.620  39.749 -11.546  0.00  0.00    +0.000 C 
ATOM     14  H   UNL     1     -20.659  39.461 -12.153  0.00  0.00    +0.000 HD
ATOM     15  H   UNL     1     -19.477  38.817 -13.208  0.00  0.00    +0.000 HD
ENDBRANCH   5  13
TORSDOF 1
ENDMDL
MODEL 4
REMARK VINA RESULT:    -5.955      2.415      4.560
REMARK INTER + INTRA:          -6.349
REMARK INTER:                  -6.306
REMARK INTRA:                  -0.043
REMARK UNBOUND:                -0.046
REMARK  Name = 118861700
REMARK  2 active torsions:
REMARK  status: ('A' for Active; 'I' for Inactive)
REMARK    1  A    between atoms: C_5  and  C_9
REMARK    2  A    between atoms: C_7  and  C_11
REMARK                            x       y       z     vdW  Elec       q    Type
REMARK                         _______ _______ _______ _____ _____    ______ ____
ROOT
ATOM      1  N   UNL     1     -21.828  40.181  -8.458  0.00  0.00    +0.000 NA
ATOM      2  N   UNL     1     -23.638  40.705  -7.015  0.00  0.00    +0.000 N 
ATOM      3  C   UNL     1     -21.595  41.961  -6.838  0.00  0.00    +0.000 A 
ATOM      4  C   UNL     1     -20.296  42.197  -7.272  0.00  0.00    +0.000 A 
ATOM      5  C   UNL     1     -19.761  41.426  -8.298  0.00  0.00    +0.000 A 
ATOM      6  C   UNL     1     -22.313  40.950  -7.457  0.00  0.00    +0.000 A 
ATOM      7  C   UNL     1     -22.166  42.790  -5.737  0.00  0.00    +0.000 C 
ATOM      8  C   UNL     1     -20.561  40.439  -8.853  0.00  0.00    +0.000 A 
ATOM      9  H   UNL     1     -24.186  41.480  -6.667  0.00  0.00    +0.000 HD
ATOM     10  H   UNL     1     -24.134  39.953  -7.480  0.00  0.00    +0.000 HD
ENDROOT
BRANCH   5  13
ATOM     11  O   UNL     1     -17.926  42.791  -8.859  0.00  0.00    +0.000 OA
ATOM     12  N   UNL     1     -17.648  40.528  -9.115  0.00  0.00    +0.000 N 
ATOM     13  C   UNL     1     -18.407  41.646  -8.773  0.00  0.00    +0.000 C 
ATOM     14  H   UNL     1     -17.963  39.568  -9.070  0.00  0.00    +0.000 HD
ATOM     15  H   UNL     1     -16.696  40.653  -9.443  0.00  0.00    +0.000 HD
ENDBRANCH   5  13
TORSDOF 1
ENDMDL
MODEL 5
REMARK VINA RESULT:    -5.843      3.456      5.414
REMARK INTER + INTRA:          -6.230
REMARK INTER:                  -6.193
REMARK INTRA:                  -0.037
REMARK UNBOUND:                -0.046
REMARK  Name = 118861700
REMARK  2 active torsions:
REMARK  status: ('A' for Active; 'I' for Inactive)
REMARK    1  A    between atoms: C_5  and  C_9
REMARK    2  A    between atoms: C_7  and  C_11
REMARK                            x       y       z     vdW  Elec       q    Type
REMARK                         _______ _______ _______ _____ _____    ______ ____
ROOT
ATOM      1  N   UNL     1     -19.550  39.482 -10.444  0.00  0.00    +0.000 NA
ATOM      2  N   UNL     1     -21.127  39.722  -8.687  0.00  0.00    +0.000 N 
ATOM      3  C   UNL     1     -19.238  41.206  -8.778  0.00  0.00    +0.000 A 
ATOM      4  C   UNL     1     -18.069  41.615  -9.409  0.00  0.00    +0.000 A 
ATOM      5  C   UNL     1     -17.640  40.959 -10.558  0.00  0.00    +0.000 A 
ATOM      6  C   UNL     1     -19.936  40.144  -9.330  0.00  0.00    +0.000 A 
ATOM      7  C   UNL     1     -19.695  41.912  -7.547  0.00  0.00    +0.000 C 
ATOM      8  C   UNL     1     -18.410  39.908 -11.031  0.00  0.00    +0.000 A 
ATOM      9  H   UNL     1     -21.689  40.410  -8.204  0.00  0.00    +0.000 HD
ATOM     10  H   UNL     1     -21.610  38.937  -9.108  0.00  0.00    +0.000 HD
ENDROOT
BRANCH   5  13
ATOM     11  O   UNL     1     -16.345  42.442 -11.850  0.00  0.00    +0.000 OA
ATOM     12  N   UNL     1     -15.327  40.502 -11.174  0.00  0.00    +0.000 N 
ATOM     13  C   UNL     1     -16.422  41.361 -11.240  0.00  0.00    +0.000 C 
ATOM     14  H   UNL     1     -15.306  39.610 -10.696  0.00  0.00    +0.000 HD
ATOM     15  H   UNL     1     -14.460  40.761 -11.636  0.00  0.00    +0.000 HD
ENDBRANCH   5  13
TORSDOF 1
ENDMDL
