MODEL 1
REMARK VINA RESULT:    -6.071      0.000      0.000
REMARK INTER + INTRA:          -7.073
REMARK INTER:                  -6.781
REMARK INTRA:                  -0.292
REMARK UNBOUND:                -0.292
REMARK  Name = 119004084
REMARK  2 active torsions:
REMARK  status: ('A' for Active; 'I' for Inactive)
REMARK    1  A    between atoms: C_7  and  C_11
REMARK    2  A    between atoms: C_8  and  C_12
REMARK                            x       y       z     vdW  Elec       q    Type
REMARK                         _______ _______ _______ _____ _____    ______ ____
ROOT
ATOM      1  N   UNL     1     -19.567  39.768  -9.535  0.00  0.00    +0.000 NA
ATOM      2  N   UNL     1     -19.589  38.727 -11.662  0.00  0.00    +0.000 N 
ATOM      3  C   UNL     1     -18.064  41.884 -10.575  0.00  0.00    +0.000 A 
ATOM      4  C   UNL     1     -18.448  40.830 -11.397  0.00  0.00    +0.000 A 
ATOM      5  C   UNL     1     -19.192  39.805 -10.833  0.00  0.00    +0.000 A 
ATOM      6  C   UNL     1     -18.431  41.881  -9.234  0.00  0.00    +0.000 A 
ATOM      7  C   UNL     1     -19.176  40.810  -8.766  0.00  0.00    +0.000 A 
ATOM      8  H   UNL     1     -19.763  38.908 -12.643  0.00  0.00    +0.000 HD
ATOM      9  H   UNL     1     -20.127  37.992 -11.219  0.00  0.00    +0.000 HD
ENDROOT
BRANCH   4  12
ATOM     10  O   UNL     1     -18.840  41.235 -13.683  0.00  0.00    +0.000 OA
ATOM     11  N   UNL     1     -16.807  40.333 -13.128  0.00  0.00    +0.000 N 
ATOM     12  C   UNL     1     -18.069  40.816 -12.805  0.00  0.00    +0.000 C 
ATOM     13  H   UNL     1     -16.163  39.993 -12.421  0.00  0.00    +0.000 HD
ATOM     14  H   UNL     1     -16.488  40.305 -14.091  0.00  0.00    +0.000 HD
ENDBRANCH   4  12
BRANCH   3  17
ATOM     15  F   UNL     1     -17.651  44.239 -10.606  0.00  0.00    +0.000 F 
ATOM     16  F   UNL     1     -15.930  42.936 -10.810  0.00  0.00    +0.000 F 
ATOM     17  C   UNL     1     -17.260  43.028 -11.101  0.00  0.00    +0.000 C 
ENDBRANCH   3  17
TORSDOF 2
ENDMDL
MODEL 2
REMARK VINA RESULT:    -5.542      2.263      3.044
REMARK INTER + INTRA:          -6.482
REMARK INTER:                  -6.177
REMARK INTRA:                  -0.304
REMARK UNBOUND:                -0.292
REMARK  Name = 119004084
REMARK  2 active torsions:
REMARK  status: ('A' for Active; 'I' for Inactive)
REMARK    1  A    between atoms: C_7  and  C_11
REMARK    2  A    between atoms: C_8  and  C_12
REMARK                            x       y       z     vdW  Elec       q    Type
REMARK                         _______ _______ _______ _____ _____    ______ ____
ROOT
ATOM      1  N   UNL     1     -19.771  41.783 -13.539  0.00  0.00    +0.000 NA
ATOM      2  N   UNL     1     -19.668  39.712 -12.396  0.00  0.00    +0.000 N 
ATOM      3  C   UNL     1     -17.198  42.416 -12.647  0.00  0.00    +0.000 A 
ATOM      4  C   UNL     1     -17.785  41.207 -12.288  0.00  0.00    +0.000 A 
ATOM      5  C   UNL     1     -19.062  40.941 -12.756  0.00  0.00    +0.000 A 
ATOM      6  C   UNL     1     -17.897  43.308 -13.452  0.00  0.00    +0.000 A 
ATOM      7  C   UNL     1     -19.169  42.949 -13.868  0.00  0.00    +0.000 A 
ATOM      8  H   UNL     1     -19.076  38.903 -12.251  0.00  0.00    +0.000 HD
ATOM      9  H   UNL     1     -20.603  39.550 -12.749  0.00  0.00    +0.000 HD
ENDROOT
BRANCH   4  12
ATOM     10  O   UNL     1     -17.282  40.195 -10.221  0.00  0.00    +0.000 OA
ATOM     11  N   UNL     1     -16.147  39.419 -12.055  0.00  0.00    +0.000 N 
ATOM     12  C   UNL     1     -17.067  40.260 -11.442  0.00  0.00    +0.000 C 
ATOM     13  H   UNL     1     -15.965  39.454 -13.053  0.00  0.00    +0.000 HD
ATOM     14  H   UNL     1     -15.623  38.736 -11.517  0.00  0.00    +0.000 HD
ENDBRANCH   4  12
BRANCH   3  17
ATOM     15  F   UNL     1     -15.217  43.713 -12.977  0.00  0.00    +0.000 F 
ATOM     16  F   UNL     1     -15.799  43.311 -10.927  0.00  0.00    +0.000 F 
ATOM     17  C   UNL     1     -15.826  42.782 -12.185  0.00  0.00    +0.000 C 
ENDBRANCH   3  17
TORSDOF 2
ENDMDL
MODEL 3
REMARK VINA RESULT:    -5.208      2.513      3.762
REMARK INTER + INTRA:          -6.109
REMARK INTER:                  -5.900
REMARK INTRA:                  -0.209
REMARK UNBOUND:                -0.292
REMARK  Name = 119004084
REMARK  2 active torsions:
REMARK  status: ('A' for Active; 'I' for Inactive)
REMARK    1  A    between atoms: C_7  and  C_11
REMARK    2  A    between atoms: C_8  and  C_12
REMARK                            x       y       z     vdW  Elec       q    Type
REMARK                         _______ _______ _______ _____ _____    ______ ____
ROOT
ATOM      1  N   UNL     1     -18.066  43.640 -13.724  0.00  0.00    +0.000 NA
ATOM      2  N   UNL     1     -20.107  42.454 -13.913  0.00  0.00    +0.000 N 
ATOM      3  C   UNL     1     -16.984  41.555 -12.207  0.00  0.00    +0.000 A 
ATOM      4  C   UNL     1     -18.290  41.471 -12.679  0.00  0.00    +0.000 A 
ATOM      5  C   UNL     1     -18.779  42.531 -13.427  0.00  0.00    +0.000 A 
ATOM      6  C   UNL     1     -16.219  42.680 -12.492  0.00  0.00    +0.000 A 
ATOM      7  C   UNL     1     -16.801  43.686 -13.248  0.00  0.00    +0.000 A 
ATOM      8  H   UNL     1     -20.490  41.545 -14.139  0.00  0.00    +0.000 HD
ATOM      9  H   UNL     1     -20.437  43.247 -14.451  0.00  0.00    +0.000 HD
ENDROOT
BRANCH   4  12
ATOM     10  O   UNL     1     -19.211  39.367 -13.200  0.00  0.00    +0.000 OA
ATOM     11  N   UNL     1     -19.750  40.254 -11.156  0.00  0.00    +0.000 N 
ATOM     12  C   UNL     1     -19.107  40.299 -12.387  0.00  0.00    +0.000 C 
ATOM     13  H   UNL     1     -19.670  41.005 -10.478  0.00  0.00    +0.000 HD
ATOM     14  H   UNL     1     -20.328  39.461 -10.896  0.00  0.00    +0.000 HD
ENDBRANCH   4  12
BRANCH   3  17
ATOM     15  F   UNL     1     -16.234  39.288 -12.081  0.00  0.00    +0.000 F 
ATOM     16  F   UNL     1     -15.133  40.754 -10.924  0.00  0.00    +0.000 F 
ATOM     17  C   UNL     1     -16.380  40.458 -11.393  0.00  0.00    +0.000 C 
ENDBRANCH   3  17
TORSDOF 2
ENDMDL
MODEL 4
REMARK VINA RESULT:    -5.175      2.275      3.611
REMARK INTER + INTRA:          -6.072
REMARK INTER:                  -5.779
REMARK INTRA:                  -0.292
REMARK UNBOUND:                -0.292
REMARK  Name = 119004084
REMARK  2 active torsions:
REMARK  status: ('A' for Active; 'I' for Inactive)
REMARK    1  A    between atoms: C_7  and  C_11
REMARK    2  A    between atoms: C_8  and  C_12
REMARK                            x       y       z     vdW  Elec       q    Type
REMARK                         _______ _______ _______ _____ _____    ______ ____
ROOT
ATOM      1  N   UNL     1     -18.456  44.380 -13.808  0.00  0.00    +0.000 NA
ATOM      2  N   UNL     1     -19.299  42.569 -15.081  0.00  0.00    +0.000 N 
ATOM      3  C   UNL     1     -18.030  42.669 -11.638  0.00  0.00    +0.000 A 
ATOM      4  C   UNL     1     -18.564  42.174 -12.823  0.00  0.00    +0.000 A 
ATOM      5  C   UNL     1     -18.756  43.063 -13.869  0.00  0.00    +0.000 A 
ATOM      6  C   UNL     1     -17.709  44.018 -11.537  0.00  0.00    +0.000 A 
ATOM      7  C   UNL     1     -17.939  44.825 -12.640  0.00  0.00    +0.000 A 
ATOM      8  H   UNL     1     -19.098  41.613 -15.348  0.00  0.00    +0.000 HD
ATOM      9  H   UNL     1     -19.432  43.244 -15.824  0.00  0.00    +0.000 HD
ENDROOT
BRANCH   4  12
ATOM     10  O   UNL     1     -18.133  39.954 -13.479  0.00  0.00    +0.000 OA
ATOM     11  N   UNL     1     -20.129  40.351 -12.425  0.00  0.00    +0.000 N 
ATOM     12  C   UNL     1     -18.909  40.762 -12.945  0.00  0.00    +0.000 C 
ATOM     13  H   UNL     1     -20.771  40.998 -11.980  0.00  0.00    +0.000 HD
ATOM     14  H   UNL     1     -20.419  39.379 -12.477  0.00  0.00    +0.000 HD
ENDBRANCH   4  12
BRANCH   3  17
ATOM     15  F   UNL     1     -16.633  41.064 -10.548  0.00  0.00    +0.000 F 
ATOM     16  F   UNL     1     -17.706  42.455  -9.279  0.00  0.00    +0.000 F 
ATOM     17  C   UNL     1     -17.792  41.780 -10.461  0.00  0.00    +0.000 C 
ENDBRANCH   3  17
TORSDOF 2
ENDMDL
MODEL 5
REMARK VINA RESULT:    -4.943      2.911      4.280
REMARK INTER + INTRA:          -5.813
REMARK INTER:                  -5.883
REMARK INTRA:                   0.070
REMARK UNBOUND:                -0.292
REMARK  Name = 119004084
REMARK  2 active torsions:
REMARK  status: ('A' for Active; 'I' for Inactive)
REMARK    1  A    between atoms: C_7  and  C_11
REMARK    2  A    between atoms: C_8  and  C_12
REMARK                            x       y       z     vdW  Elec       q    Type
REMARK                         _______ _______ _______ _____ _____    ______ ____
ROOT
ATOM      1  N   UNL     1     -16.429  43.783 -12.912  0.00  0.00    +0.000 NA
ATOM      2  N   UNL     1     -14.941  42.479 -11.611  0.00  0.00    +0.000 N 
ATOM      3  C   UNL     1     -18.460  41.911 -12.484  0.00  0.00    +0.000 A 
ATOM      4  C   UNL     1     -17.200  41.713 -11.930  0.00  0.00    +0.000 A 
ATOM      5  C   UNL     1     -16.228  42.671 -12.172  0.00  0.00    +0.000 A 
ATOM      6  C   UNL     1     -18.706  43.044 -13.252  0.00  0.00    +0.000 A 
ATOM      7  C   UNL     1     -17.666  43.942 -13.435  0.00  0.00    +0.000 A 
ATOM      8  H   UNL     1     -14.864  41.988 -10.729  0.00  0.00    +0.000 HD
ATOM      9  H   UNL     1     -14.251  43.193 -11.810  0.00  0.00    +0.000 HD
ENDROOT
BRANCH   4  12
ATOM     10  O   UNL     1     -16.395  39.522 -11.620  0.00  0.00    +0.000 OA
ATOM     11  N   UNL     1     -17.260  40.576  -9.777  0.00  0.00    +0.000 N 
ATOM     12  C   UNL     1     -16.925  40.529 -11.124  0.00  0.00    +0.000 C 
ATOM     13  H   UNL     1     -17.688  41.394  -9.356  0.00  0.00    +0.000 HD
ATOM     14  H   UNL     1     -17.087  39.783  -9.167  0.00  0.00    +0.000 HD
ENDBRANCH   4  12
BRANCH   3  17
ATOM     15  F   UNL     1     -19.229  39.651 -12.622  0.00  0.00    +0.000 F 
ATOM     16  F   UNL     1     -19.980  40.846 -10.976  0.00  0.00    +0.000 F 
ATOM     17  C   UNL     1     -19.565  40.928 -12.274  0.00  0.00    +0.000 C 
ENDBRANCH   3  17
TORSDOF 2
ENDMDL
