MODEL 1
REMARK VINA RESULT:    -6.225      0.000      0.000
REMARK INTER + INTRA:          -7.308
REMARK INTER:                  -7.135
REMARK INTRA:                  -0.173
REMARK UNBOUND:                -0.173
REMARK  Name = 119022333
REMARK  3 active torsions:
REMARK  status: ('A' for Active; 'I' for Inactive)
REMARK    1  A    between atoms: N_5  and  C_10
REMARK    2  A    between atoms: C_7  and  C_11
REMARK    3  A    between atoms: C_9  and  C_13
REMARK                            x       y       z     vdW  Elec       q    Type
REMARK                         _______ _______ _______ _____ _____    ______ ____
ROOT
ATOM      1  N   UNL     1     -18.168  41.826  -8.606  0.00  0.00    +0.000 NA
ATOM      2  C   UNL     1     -19.140  40.273 -10.184  0.00  0.00    +0.000 A 
ATOM      3  C   UNL     1     -20.346  40.318  -9.494  0.00  0.00    +0.000 A 
ATOM      4  C   UNL     1     -20.465  41.114  -8.362  0.00  0.00    +0.000 A 
ATOM      5  C   UNL     1     -18.090  41.039  -9.703  0.00  0.00    +0.000 A 
ATOM      6  C   UNL     1     -19.355  41.844  -7.963  0.00  0.00    +0.000 A 
ENDROOT
BRANCH   4   9
ATOM      7  O   UNL     1     -22.695  40.487  -7.935  0.00  0.00    +0.000 OA
ATOM      8  N   UNL     1     -21.768  42.037  -6.521  0.00  0.00    +0.000 N 
ATOM      9  C   UNL     1     -21.711  41.181  -7.619  0.00  0.00    +0.000 C 
ATOM     10  H   UNL     1     -21.015  42.629  -6.197  0.00  0.00    +0.000 HD
ATOM     11  H   UNL     1     -22.625  42.097  -5.980  0.00  0.00    +0.000 HD
ENDBRANCH   4   9
BRANCH   2  14
ATOM     12  F   UNL     1     -19.890  38.365 -11.417  0.00  0.00    +0.000 F 
ATOM     13  F   UNL     1     -19.247  40.088 -12.566  0.00  0.00    +0.000 F 
ATOM     14  C   UNL     1     -19.017  39.416 -11.398  0.00  0.00    +0.000 C 
ENDBRANCH   2  14
BRANCH   5  15
ATOM     15  N   UNL     1     -16.857  40.995 -10.401  0.00  0.00    +0.000 N 
ATOM     16  H   UNL     1     -16.770  41.518 -11.264  0.00  0.00    +0.000 HD
ATOM     17  H   UNL     1     -16.320  40.140 -10.316  0.00  0.00    +0.000 HD
ENDBRANCH   5  15
TORSDOF 3
ENDMDL
MODEL 2
REMARK VINA RESULT:    -6.072      3.531      5.054
REMARK INTER + INTRA:          -7.132
REMARK INTER:                  -7.013
REMARK INTRA:                  -0.119
REMARK UNBOUND:                -0.173
REMARK  Name = 119022333
REMARK  3 active torsions:
REMARK  status: ('A' for Active; 'I' for Inactive)
REMARK    1  A    between atoms: N_5  and  C_10
REMARK    2  A    between atoms: C_7  and  C_11
REMARK    3  A    between atoms: C_9  and  C_13
REMARK                            x       y       z     vdW  Elec       q    Type
REMARK                         _______ _______ _______ _____ _____    ______ ____
ROOT
ATOM      1  N   UNL     1     -19.338  39.360 -10.655  0.00  0.00    +0.000 NA
ATOM      2  C   UNL     1     -19.213  41.111  -8.992  0.00  0.00    +0.000 A 
ATOM      3  C   UNL     1     -18.033  41.575  -9.560  0.00  0.00    +0.000 A 
ATOM      4  C   UNL     1     -17.503  40.934 -10.673  0.00  0.00    +0.000 A 
ATOM      5  C   UNL     1     -19.822  40.009  -9.573  0.00  0.00    +0.000 A 
ATOM      6  C   UNL     1     -18.189  39.841 -11.179  0.00  0.00    +0.000 A 
ENDROOT
BRANCH   4   9
ATOM      7  O   UNL     1     -16.192  42.508 -11.836  0.00  0.00    +0.000 OA
ATOM      8  N   UNL     1     -15.161  40.552 -11.227  0.00  0.00    +0.000 N 
ATOM      9  C   UNL     1     -16.270  41.393 -11.287  0.00  0.00    +0.000 C 
ATOM     10  H   UNL     1     -15.140  39.636 -10.797  0.00  0.00    +0.000 HD
ATOM     11  H   UNL     1     -14.285  40.852 -11.642  0.00  0.00    +0.000 HD
ENDBRANCH   4   9
BRANCH   2  14
ATOM     12  F   UNL     1     -19.712  41.058  -6.653  0.00  0.00    +0.000 F 
ATOM     13  F   UNL     1     -19.146  42.975  -7.495  0.00  0.00    +0.000 F 
ATOM     14  C   UNL     1     -19.778  41.802  -7.798  0.00  0.00    +0.000 C 
ENDBRANCH   2  14
BRANCH   5  15
ATOM     15  N   UNL     1     -21.026  39.530  -8.996  0.00  0.00    +0.000 N 
ATOM     16  H   UNL     1     -21.600  40.176  -8.468  0.00  0.00    +0.000 HD
ATOM     17  H   UNL     1     -21.035  38.557  -8.715  0.00  0.00    +0.000 HD
ENDBRANCH   5  15
TORSDOF 3
ENDMDL
MODEL 3
REMARK VINA RESULT:    -5.768      2.786      3.324
REMARK INTER + INTRA:          -6.784
REMARK INTER:                  -6.617
REMARK INTRA:                  -0.167
REMARK UNBOUND:                -0.173
REMARK  Name = 119022333
REMARK  3 active torsions:
REMARK  status: ('A' for Active; 'I' for Inactive)
REMARK    1  A    between atoms: N_5  and  C_10
REMARK    2  A    between atoms: C_7  and  C_11
REMARK    3  A    between atoms: C_9  and  C_13
REMARK                            x       y       z     vdW  Elec       q    Type
REMARK                         _______ _______ _______ _____ _____    ______ ____
ROOT
ATOM      1  N   UNL     1     -18.840  39.417 -10.908  0.00  0.00    +0.000 NA
ATOM      2  C   UNL     1     -17.381  41.345 -10.902  0.00  0.00    +0.000 A 
ATOM      3  C   UNL     1     -18.032  41.843  -9.780  0.00  0.00    +0.000 A 
ATOM      4  C   UNL     1     -19.086  41.131  -9.221  0.00  0.00    +0.000 A 
ATOM      5  C   UNL     1     -17.819  40.138 -11.424  0.00  0.00    +0.000 A 
ATOM      6  C   UNL     1     -19.448  39.933  -9.818  0.00  0.00    +0.000 A 
ENDROOT
BRANCH   4   9
ATOM      7  O   UNL     1     -19.212  42.320  -7.191  0.00  0.00    +0.000 OA
ATOM      8  N   UNL     1     -21.140  41.316  -7.923  0.00  0.00    +0.000 N 
ATOM      9  C   UNL     1     -19.788  41.626  -8.050  0.00  0.00    +0.000 C 
ATOM     10  H   UNL     1     -21.681  40.764  -8.577  0.00  0.00    +0.000 HD
ATOM     11  H   UNL     1     -21.657  41.656  -7.118  0.00  0.00    +0.000 HD
ENDBRANCH   4   9
BRANCH   2  14
ATOM     12  F   UNL     1     -16.222  43.426 -11.125  0.00  0.00    +0.000 F 
ATOM     13  F   UNL     1     -15.019  41.622 -11.162  0.00  0.00    +0.000 F 
ATOM     14  C   UNL     1     -16.250  42.112 -11.499  0.00  0.00    +0.000 C 
ENDBRANCH   2  14
BRANCH   5  15
ATOM     15  N   UNL     1     -17.160  39.627 -12.571  0.00  0.00    +0.000 N 
ATOM     16  H   UNL     1     -17.508  39.887 -13.485  0.00  0.00    +0.000 HD
ATOM     17  H   UNL     1     -16.730  38.715 -12.475  0.00  0.00    +0.000 HD
ENDBRANCH   5  15
TORSDOF 3
ENDMDL
MODEL 4
REMARK VINA RESULT:    -5.681      3.706      5.019
REMARK INTER + INTRA:          -6.684
REMARK INTER:                  -6.522
REMARK INTRA:                  -0.162
REMARK UNBOUND:                -0.173
REMARK  Name = 119022333
REMARK  3 active torsions:
REMARK  status: ('A' for Active; 'I' for Inactive)
REMARK    1  A    between atoms: N_5  and  C_10
REMARK    2  A    between atoms: C_7  and  C_11
REMARK    3  A    between atoms: C_9  and  C_13
REMARK                            x       y       z     vdW  Elec       q    Type
REMARK                         _______ _______ _______ _____ _____    ______ ____
ROOT
ATOM      1  N   UNL     1     -18.160  39.939 -12.744  0.00  0.00    +0.000 NA
ATOM      2  C   UNL     1     -18.716  40.361 -10.430  0.00  0.00    +0.000 A 
ATOM      3  C   UNL     1     -17.739  41.348 -10.368  0.00  0.00    +0.000 A 
ATOM      4  C   UNL     1     -16.972  41.631 -11.491  0.00  0.00    +0.000 A 
ATOM      5  C   UNL     1     -18.886  39.692 -11.631  0.00  0.00    +0.000 A 
ATOM      6  C   UNL     1     -17.220  40.905 -12.646  0.00  0.00    +0.000 A 
ENDROOT
BRANCH   4   9
ATOM      7  O   UNL     1     -16.212  43.856 -11.633  0.00  0.00    +0.000 OA
ATOM      8  N   UNL     1     -14.633  42.250 -11.203  0.00  0.00    +0.000 N 
ATOM      9  C   UNL     1     -15.941  42.654 -11.457  0.00  0.00    +0.000 C 
ATOM     10  H   UNL     1     -14.330  41.297 -11.046  0.00  0.00    +0.000 HD
ATOM     11  H   UNL     1     -13.894  42.946 -11.167  0.00  0.00    +0.000 HD
ENDBRANCH   4   9
BRANCH   2  14
ATOM     12  F   UNL     1     -18.914  40.370  -8.046  0.00  0.00    +0.000 F 
ATOM     13  F   UNL     1     -20.722  40.740  -9.183  0.00  0.00    +0.000 F 
ATOM     14  C   UNL     1     -19.537  40.061  -9.222  0.00  0.00    +0.000 C 
ENDBRANCH   2  14
BRANCH   5  15
ATOM     15  N   UNL     1     -19.879  38.682 -11.699  0.00  0.00    +0.000 N 
ATOM     16  H   UNL     1     -20.742  38.885 -12.189  0.00  0.00    +0.000 HD
ATOM     17  H   UNL     1     -19.925  38.041 -10.917  0.00  0.00    +0.000 HD
ENDBRANCH   5  15
TORSDOF 3
ENDMDL
MODEL 5
REMARK VINA RESULT:    -5.519      3.417      4.426
REMARK INTER + INTRA:          -6.499
REMARK INTER:                  -6.342
REMARK INTRA:                  -0.157
REMARK UNBOUND:                -0.173
REMARK  Name = 119022333
REMARK  3 active torsions:
REMARK  status: ('A' for Active; 'I' for Inactive)
REMARK    1  A    between atoms: N_5  and  C_10
REMARK    2  A    between atoms: C_7  and  C_11
REMARK    3  A    between atoms: C_9  and  C_13
REMARK                            x       y       z     vdW  Elec       q    Type
REMARK                         _______ _______ _______ _____ _____    ______ ____
ROOT
ATOM      1  N   UNL     1     -19.462  41.448 -13.137  0.00  0.00    +0.000 NA
ATOM      2  C   UNL     1     -17.907  42.947 -12.050  0.00  0.00    +0.000 A 
ATOM      3  C   UNL     1     -18.075  42.263 -10.852  0.00  0.00    +0.000 A 
ATOM      4  C   UNL     1     -18.935  41.173 -10.794  0.00  0.00    +0.000 A 
ATOM      5  C   UNL     1     -18.618  42.503 -13.154  0.00  0.00    +0.000 A 
ATOM      6  C   UNL     1     -19.599  40.808 -11.955  0.00  0.00    +0.000 A 
ENDROOT
BRANCH   4   9
ATOM      7  O   UNL     1     -20.184  39.808  -9.335  0.00  0.00    +0.000 OA
ATOM      8  N   UNL     1     -18.100  40.447  -8.623  0.00  0.00    +0.000 N 
ATOM      9  C   UNL     1     -19.133  40.439  -9.556  0.00  0.00    +0.000 C 
ATOM     10  H   UNL     1     -17.216  40.929  -8.727  0.00  0.00    +0.000 HD
ATOM     11  H   UNL     1     -18.210  39.936  -7.752  0.00  0.00    +0.000 HD
ENDBRANCH   4   9
BRANCH   2  14
ATOM     12  F   UNL     1     -17.364  45.154 -11.305  0.00  0.00    +0.000 F 
ATOM     13  F   UNL     1     -15.705  43.822 -11.724  0.00  0.00    +0.000 F 
ATOM     14  C   UNL     1     -16.984  44.116 -12.108  0.00  0.00    +0.000 C 
ENDBRANCH   2  14
BRANCH   5  15
ATOM     15  N   UNL     1     -18.452  43.199 -14.379  0.00  0.00    +0.000 N 
ATOM     16  H   UNL     1     -19.059  43.987 -14.573  0.00  0.00    +0.000 HD
ATOM     17  H   UNL     1     -18.125  42.655 -15.167  0.00  0.00    +0.000 HD
ENDBRANCH   5  15
TORSDOF 3
ENDMDL
