MODEL 1
REMARK VINA RESULT:    -6.415      0.000      0.000
REMARK INTER + INTRA:          -6.415
REMARK INTER:                  -6.415
REMARK INTRA:                   0.000
REMARK UNBOUND:                 0.000
REMARK  Name = 121015141
REMARK  1 active torsions:
REMARK  status: ('A' for Active; 'I' for Inactive)
REMARK    1  A    between atoms: C_9  and  C_14
REMARK                            x       y       z     vdW  Elec       q    Type
REMARK                         _______ _______ _______ _____ _____    ______ ____
ROOT
ATOM      1  O   UNL     1     -19.618  39.340 -12.595  0.00  0.00    +0.000 OA
ATOM      2  N   UNL     1     -17.847  42.691 -11.221  0.00  0.00    +0.000 N 
ATOM      3  N   UNL     1     -18.446  41.247 -13.054  0.00  0.00    +0.000 NA
ATOM      4  N   UNL     1     -18.483  42.125  -8.944  0.00  0.00    +0.000 NA
ATOM      5  C   UNL     1     -18.475  41.832 -10.271  0.00  0.00    +0.000 A 
ATOM      6  C   UNL     1     -17.883  42.322 -12.572  0.00  0.00    +0.000 A 
ATOM      7  C   UNL     1     -19.090  40.670 -10.750  0.00  0.00    +0.000 A 
ATOM      8  C   UNL     1     -17.210  43.867 -10.850  0.00  0.00    +0.000 A 
ATOM      9  C   UNL     1     -16.628  44.345 -13.149  0.00  0.00    +0.000 A 
ATOM     10  C   UNL     1     -17.225  43.221 -13.587  0.00  0.00    +0.000 A 
ATOM     11  C   UNL     1     -16.617  44.683 -11.734  0.00  0.00    +0.000 A 
ATOM     12  C   UNL     1     -19.072  40.366 -12.201  0.00  0.00    +0.000 A 
ATOM     13  C   UNL     1     -19.718  39.800  -9.853  0.00  0.00    +0.000 A 
ATOM     14  C   UNL     1     -15.945  45.306 -14.075  0.00  0.00    +0.000 C 
ATOM     15  C   UNL     1     -19.724  40.102  -8.500  0.00  0.00    +0.000 A 
ATOM     16  C   UNL     1     -19.097  41.266  -8.099  0.00  0.00    +0.000 A 
ENDROOT
TORSDOF 0
ENDMDL
MODEL 2
REMARK VINA RESULT:    -6.175      2.804      5.662
REMARK INTER + INTRA:          -6.175
REMARK INTER:                  -6.175
REMARK INTRA:                   0.000
REMARK UNBOUND:                 0.000
REMARK  Name = 121015141
REMARK  1 active torsions:
REMARK  status: ('A' for Active; 'I' for Inactive)
REMARK    1  A    between atoms: C_9  and  C_14
REMARK                            x       y       z     vdW  Elec       q    Type
REMARK                         _______ _______ _______ _____ _____    ______ ____
ROOT
ATOM      1  O   UNL     1     -17.109  46.141 -13.580  0.00  0.00    +0.000 OA
ATOM      2  N   UNL     1     -18.932  42.625 -12.831  0.00  0.00    +0.000 N 
ATOM      3  N   UNL     1     -17.456  44.400 -12.142  0.00  0.00    +0.000 NA
ATOM      4  N   UNL     1     -20.023  42.697 -15.003  0.00  0.00    +0.000 NA
ATOM      5  C   UNL     1     -19.190  43.255 -14.084  0.00  0.00    +0.000 A 
ATOM      6  C   UNL     1     -18.064  43.263 -11.936  0.00  0.00    +0.000 A 
ATOM      7  C   UNL     1     -18.557  44.476 -14.342  0.00  0.00    +0.000 A 
ATOM      8  C   UNL     1     -19.509  41.413 -12.477  0.00  0.00    +0.000 A 
ATOM      9  C   UNL     1     -18.382  41.434 -10.337  0.00  0.00    +0.000 A 
ATOM     10  C   UNL     1     -17.783  42.609 -10.607  0.00  0.00    +0.000 A 
ATOM     11  C   UNL     1     -19.276  40.811 -11.302  0.00  0.00    +0.000 A 
ATOM     12  C   UNL     1     -17.653  45.070 -13.329  0.00  0.00    +0.000 A 
ATOM     13  C   UNL     1     -18.783  45.129 -15.558  0.00  0.00    +0.000 A 
ATOM     14  C   UNL     1     -18.170  40.702  -9.047  0.00  0.00    +0.000 C 
ATOM     15  C   UNL     1     -19.633  44.557 -16.493  0.00  0.00    +0.000 A 
ATOM     16  C   UNL     1     -20.222  43.350 -16.170  0.00  0.00    +0.000 A 
ENDROOT
TORSDOF 0
ENDMDL
MODEL 3
REMARK VINA RESULT:    -6.111      2.425      5.230
REMARK INTER + INTRA:          -6.111
REMARK INTER:                  -6.111
REMARK INTRA:                   0.000
REMARK UNBOUND:                 0.000
REMARK  Name = 121015141
REMARK  1 active torsions:
REMARK  status: ('A' for Active; 'I' for Inactive)
REMARK    1  A    between atoms: C_9  and  C_14
REMARK                            x       y       z     vdW  Elec       q    Type
REMARK                         _______ _______ _______ _____ _____    ______ ____
ROOT
ATOM      1  O   UNL     1     -20.310  42.696 -16.001  0.00  0.00    +0.000 OA
ATOM      2  N   UNL     1     -18.290  43.520 -12.611  0.00  0.00    +0.000 N 
ATOM      3  N   UNL     1     -19.625  42.010 -13.931  0.00  0.00    +0.000 NA
ATOM      4  N   UNL     1     -17.691  45.714 -13.470  0.00  0.00    +0.000 NA
ATOM      5  C   UNL     1     -18.321  44.519 -13.628  0.00  0.00    +0.000 A 
ATOM      6  C   UNL     1     -18.962  42.314 -12.849  0.00  0.00    +0.000 A 
ATOM      7  C   UNL     1     -19.021  44.232 -14.804  0.00  0.00    +0.000 A 
ATOM      8  C   UNL     1     -17.624  43.706 -11.408  0.00  0.00    +0.000 A 
ATOM      9  C   UNL     1     -18.269  41.503 -10.643  0.00  0.00    +0.000 A 
ATOM     10  C   UNL     1     -18.938  41.248 -11.783  0.00  0.00    +0.000 A 
ATOM     11  C   UNL     1     -17.588  42.773 -10.444  0.00  0.00    +0.000 A 
ATOM     12  C   UNL     1     -19.702  42.923 -14.959  0.00  0.00    +0.000 A 
ATOM     13  C   UNL     1     -19.075  45.182 -15.828  0.00  0.00    +0.000 A 
ATOM     14  C   UNL     1     -18.183  40.512  -9.522  0.00  0.00    +0.000 C 
ATOM     15  C   UNL     1     -18.432  46.400 -15.663  0.00  0.00    +0.000 A 
ATOM     16  C   UNL     1     -17.760  46.615 -14.476  0.00  0.00    +0.000 A 
ENDROOT
TORSDOF 0
ENDMDL
MODEL 4
REMARK VINA RESULT:    -5.804      2.685      3.812
REMARK INTER + INTRA:          -5.804
REMARK INTER:                  -5.804
REMARK INTRA:                   0.000
REMARK UNBOUND:                 0.000
REMARK  Name = 121015141
REMARK  1 active torsions:
REMARK  status: ('A' for Active; 'I' for Inactive)
REMARK    1  A    between atoms: C_9  and  C_14
REMARK                            x       y       z     vdW  Elec       q    Type
REMARK                         _______ _______ _______ _____ _____    ______ ____
ROOT
ATOM      1  O   UNL     1     -15.522  43.113 -11.253  0.00  0.00    +0.000 OA
ATOM      2  N   UNL     1     -18.552  42.914 -13.904  0.00  0.00    +0.000 N 
ATOM      3  N   UNL     1     -16.728  44.131 -12.904  0.00  0.00    +0.000 NA
ATOM      4  N   UNL     1     -19.083  40.659 -13.167  0.00  0.00    +0.000 NA
ATOM      5  C   UNL     1     -18.317  41.778 -13.074  0.00  0.00    +0.000 A 
ATOM      6  C   UNL     1     -17.718  44.029 -13.750  0.00  0.00    +0.000 A 
ATOM      7  C   UNL     1     -17.264  41.848 -12.155  0.00  0.00    +0.000 A 
ATOM      8  C   UNL     1     -19.570  42.946 -14.846  0.00  0.00    +0.000 A 
ATOM      9  C   UNL     1     -18.962  45.191 -15.513  0.00  0.00    +0.000 A 
ATOM     10  C   UNL     1     -17.954  45.237 -14.621  0.00  0.00    +0.000 A 
ATOM     11  C   UNL     1     -19.800  44.008 -15.633  0.00  0.00    +0.000 A 
ATOM     12  C   UNL     1     -16.439  43.077 -12.068  0.00  0.00    +0.000 A 
ATOM     13  C   UNL     1     -16.998  40.757 -11.323  0.00  0.00    +0.000 A 
ATOM     14  C   UNL     1     -19.280  46.336 -16.425  0.00  0.00    +0.000 C 
ATOM     15  C   UNL     1     -17.782  39.617 -11.420  0.00  0.00    +0.000 A 
ATOM     16  C   UNL     1     -18.804  39.618 -12.350  0.00  0.00    +0.000 A 
ENDROOT
TORSDOF 0
ENDMDL
MODEL 5
REMARK VINA RESULT:    -5.715      2.072      2.460
REMARK INTER + INTRA:          -5.715
REMARK INTER:                  -5.715
REMARK INTRA:                   0.000
REMARK UNBOUND:                 0.000
REMARK  Name = 121015141
REMARK  1 active torsions:
REMARK  status: ('A' for Active; 'I' for Inactive)
REMARK    1  A    between atoms: C_9  and  C_14
REMARK                            x       y       z     vdW  Elec       q    Type
REMARK                         _______ _______ _______ _____ _____    ______ ____
ROOT
ATOM      1  O   UNL     1     -20.327  42.297 -14.316  0.00  0.00    +0.000 OA
ATOM      2  N   UNL     1     -16.894  43.185 -12.400  0.00  0.00    +0.000 N 
ATOM      3  N   UNL     1     -18.605  43.763 -13.994  0.00  0.00    +0.000 NA
ATOM      4  N   UNL     1     -17.010  41.091 -11.168  0.00  0.00    +0.000 NA
ATOM      5  C   UNL     1     -17.533  41.949 -12.084  0.00  0.00    +0.000 A 
ATOM      6  C   UNL     1     -17.495  44.016 -13.353  0.00  0.00    +0.000 A 
ATOM      7  C   UNL     1     -18.725  41.643 -12.750  0.00  0.00    +0.000 A 
ATOM      8  C   UNL     1     -15.709  43.582 -11.797  0.00  0.00    +0.000 A 
ATOM      9  C   UNL     1     -15.684  45.641 -13.067  0.00  0.00    +0.000 A 
ATOM     10  C   UNL     1     -16.832  45.325 -13.696  0.00  0.00    +0.000 A 
ATOM     11  C   UNL     1     -15.099  44.742 -12.084  0.00  0.00    +0.000 A 
ATOM     12  C   UNL     1     -19.280  42.590 -13.746  0.00  0.00    +0.000 A 
ATOM     13  C   UNL     1     -19.385  40.442 -12.470  0.00  0.00    +0.000 A 
ATOM     14  C   UNL     1     -14.946  46.917 -13.334  0.00  0.00    +0.000 C 
ATOM     15  C   UNL     1     -18.848  39.570 -11.535  0.00  0.00    +0.000 A 
ATOM     16  C   UNL     1     -17.669  39.938 -10.917  0.00  0.00    +0.000 A 
ENDROOT
TORSDOF 0
ENDMDL
