MODEL 1
REMARK VINA RESULT:    -6.464      0.000      0.000
REMARK INTER + INTRA:          -7.298
REMARK INTER:                  -7.408
REMARK INTRA:                   0.110
REMARK UNBOUND:                 0.110
REMARK  Name = 121260737
REMARK  4 active torsions:
REMARK  status: ('A' for Active; 'I' for Inactive)
REMARK    1  A    between atoms: S_1  and  N_5
REMARK    2  A    between atoms: S_1  and  C_10
REMARK    3  A    between atoms: N_7  and  C_11
REMARK    4  A    between atoms: C_8  and  C_9
REMARK                            x       y       z     vdW  Elec       q    Type
REMARK                         _______ _______ _______ _____ _____    ______ ____
ROOT
ATOM      1  N   UNL     1     -19.360  42.356  -7.202  0.00  0.00    +0.000 NA
ATOM      2  C   UNL     1     -19.691  40.997  -9.173  0.00  0.00    +0.000 A 
ATOM      3  C   UNL     1     -18.958  41.887  -8.404  0.00  0.00    +0.000 A 
ATOM      4  C   UNL     1     -20.914  40.561  -8.677  0.00  0.00    +0.000 A 
ATOM      5  C   UNL     1     -21.361  41.021  -7.443  0.00  0.00    +0.000 A 
ATOM      6  C   UNL     1     -20.554  41.910  -6.751  0.00  0.00    +0.000 A 
ENDROOT
BRANCH   2   9
ATOM      7  O   UNL     1     -18.784  39.360 -10.610  0.00  0.00    +0.000 OA
ATOM      8  N   UNL     1     -19.314  41.429 -11.574  0.00  0.00    +0.000 N 
ATOM      9  C   UNL     1     -19.221  40.498 -10.491  0.00  0.00    +0.000 C 
ATOM     10  H   UNL     1     -19.887  42.274 -11.446  0.00  0.00    +0.000 HD
BRANCH   8  11
ATOM     11  S   UNL     1     -18.841  41.099 -13.186  0.00  0.00    +0.000 S 
ATOM     12  O   UNL     1     -18.918  39.675 -13.446  0.00  0.00    +0.000 OA
ATOM     13  O   UNL     1     -19.491  42.053 -14.064  0.00  0.00    +0.000 OA
ATOM     14  C   UNL     1     -17.126  41.547 -13.087  0.00  0.00    +0.000 C 
ENDBRANCH   8  11
ENDBRANCH   2   9
BRANCH   3  15
ATOM     15  N   UNL     1     -17.709  42.334  -8.903  0.00  0.00    +0.000 N 
ATOM     16  H   UNL     1     -17.187  43.013  -8.362  0.00  0.00    +0.000 HD
ATOM     17  H   UNL     1     -17.610  42.361  -9.910  0.00  0.00    +0.000 HD
ENDBRANCH   3  15
TORSDOF 3
ENDMDL
MODEL 2
REMARK VINA RESULT:    -6.323      2.498      2.898
REMARK INTER + INTRA:          -7.137
REMARK INTER:                  -6.690
REMARK INTRA:                  -0.447
REMARK UNBOUND:                 0.110
REMARK  Name = 121260737
REMARK  4 active torsions:
REMARK  status: ('A' for Active; 'I' for Inactive)
REMARK    1  A    between atoms: S_1  and  N_5
REMARK    2  A    between atoms: S_1  and  C_10
REMARK    3  A    between atoms: N_7  and  C_11
REMARK    4  A    between atoms: C_8  and  C_9
REMARK                            x       y       z     vdW  Elec       q    Type
REMARK                         _______ _______ _______ _____ _____    ______ ____
ROOT
ATOM      1  N   UNL     1     -21.020  40.311  -8.643  0.00  0.00    +0.000 NA
ATOM      2  C   UNL     1     -18.894  41.273  -9.275  0.00  0.00    +0.000 A 
ATOM      3  C   UNL     1     -19.964  40.416  -9.480  0.00  0.00    +0.000 A 
ATOM      4  C   UNL     1     -18.910  42.073  -8.138  0.00  0.00    +0.000 A 
ATOM      5  C   UNL     1     -19.979  41.993  -7.253  0.00  0.00    +0.000 A 
ATOM      6  C   UNL     1     -21.001  41.104  -7.548  0.00  0.00    +0.000 A 
ENDROOT
BRANCH   2   9
ATOM      7  O   UNL     1     -17.077  40.381 -10.487  0.00  0.00    +0.000 OA
ATOM      8  N   UNL     1     -17.499  42.671 -10.755  0.00  0.00    +0.000 N 
ATOM      9  C   UNL     1     -17.749  41.369 -10.215  0.00  0.00    +0.000 C 
ATOM     10  H   UNL     1     -18.227  43.391 -10.655  0.00  0.00    +0.000 HD
BRANCH   8  11
ATOM     11  S   UNL     1     -16.244  43.044 -11.858  0.00  0.00    +0.000 S 
ATOM     12  O   UNL     1     -14.953  42.827 -11.235  0.00  0.00    +0.000 OA
ATOM     13  O   UNL     1     -16.562  42.448 -13.141  0.00  0.00    +0.000 OA
ATOM     14  C   UNL     1     -16.494  44.796 -12.007  0.00  0.00    +0.000 C 
ENDBRANCH   8  11
ENDBRANCH   2   9
BRANCH   3  15
ATOM     15  N   UNL     1     -19.956  39.600 -10.639  0.00  0.00    +0.000 N 
ATOM     16  H   UNL     1     -19.958  38.594 -10.522  0.00  0.00    +0.000 HD
ATOM     17  H   UNL     1     -19.484  39.976 -11.452  0.00  0.00    +0.000 HD
ENDBRANCH   3  15
TORSDOF 3
ENDMDL
MODEL 3
REMARK VINA RESULT:    -5.822      2.552      3.650
REMARK INTER + INTRA:          -6.563
REMARK INTER:                  -6.138
REMARK INTRA:                  -0.425
REMARK UNBOUND:                 0.110
REMARK  Name = 121260737
REMARK  4 active torsions:
REMARK  status: ('A' for Active; 'I' for Inactive)
REMARK    1  A    between atoms: S_1  and  N_5
REMARK    2  A    between atoms: S_1  and  C_10
REMARK    3  A    between atoms: N_7  and  C_11
REMARK    4  A    between atoms: C_8  and  C_9
REMARK                            x       y       z     vdW  Elec       q    Type
REMARK                         _______ _______ _______ _____ _____    ______ ____
ROOT
ATOM      1  N   UNL     1     -19.719  39.701 -10.064  0.00  0.00    +0.000 NA
ATOM      2  C   UNL     1     -18.465  41.513 -11.059  0.00  0.00    +0.000 A 
ATOM      3  C   UNL     1     -19.257  40.378 -11.139  0.00  0.00    +0.000 A 
ATOM      4  C   UNL     1     -18.125  41.982  -9.796  0.00  0.00    +0.000 A 
ATOM      5  C   UNL     1     -18.580  41.311  -8.665  0.00  0.00    +0.000 A 
ATOM      6  C   UNL     1     -19.368  40.186  -8.852  0.00  0.00    +0.000 A 
ENDROOT
BRANCH   2   9
ATOM      7  O   UNL     1     -17.418  41.636 -13.170  0.00  0.00    +0.000 OA
ATOM      8  N   UNL     1     -18.196  43.652 -12.261  0.00  0.00    +0.000 N 
ATOM      9  C   UNL     1     -17.975  42.237 -12.260  0.00  0.00    +0.000 C 
ATOM     10  H   UNL     1     -18.855  44.045 -11.576  0.00  0.00    +0.000 HD
BRANCH   8  11
ATOM     11  S   UNL     1     -17.729  44.709 -13.523  0.00  0.00    +0.000 S 
ATOM     12  O   UNL     1     -16.289  44.679 -13.692  0.00  0.00    +0.000 OA
ATOM     13  O   UNL     1     -18.615  44.504 -14.652  0.00  0.00    +0.000 OA
ATOM     14  C   UNL     1     -18.161  46.263 -12.781  0.00  0.00    +0.000 C 
ENDBRANCH   8  11
ENDBRANCH   2   9
BRANCH   3  15
ATOM     15  N   UNL     1     -19.610  39.896 -12.425  0.00  0.00    +0.000 N 
ATOM     16  H   UNL     1     -19.949  38.945 -12.509  0.00  0.00    +0.000 HD
ATOM     17  H   UNL     1     -19.096  40.281 -13.207  0.00  0.00    +0.000 HD
ENDBRANCH   3  15
TORSDOF 3
ENDMDL
MODEL 4
REMARK VINA RESULT:    -5.735      3.150      5.250
REMARK INTER + INTRA:          -6.463
REMARK INTER:                  -6.028
REMARK INTRA:                  -0.434
REMARK UNBOUND:                 0.110
REMARK  Name = 121260737
REMARK  4 active torsions:
REMARK  status: ('A' for Active; 'I' for Inactive)
REMARK    1  A    between atoms: S_1  and  N_5
REMARK    2  A    between atoms: S_1  and  C_10
REMARK    3  A    between atoms: N_7  and  C_11
REMARK    4  A    between atoms: C_8  and  C_9
REMARK                            x       y       z     vdW  Elec       q    Type
REMARK                         _______ _______ _______ _____ _____    ______ ____
ROOT
ATOM      1  N   UNL     1     -18.476  45.967 -13.844  0.00  0.00    +0.000 NA
ATOM      2  C   UNL     1     -17.938  43.894 -12.723  0.00  0.00    +0.000 A 
ATOM      3  C   UNL     1     -18.389  44.618 -13.815  0.00  0.00    +0.000 A 
ATOM      4  C   UNL     1     -17.551  44.598 -11.588  0.00  0.00    +0.000 A 
ATOM      5  C   UNL     1     -17.626  45.987 -11.581  0.00  0.00    +0.000 A 
ATOM      6  C   UNL     1     -18.091  46.619 -12.724  0.00  0.00    +0.000 A 
ENDROOT
BRANCH   2   9
ATOM      7  O   UNL     1     -17.152  41.824 -13.537  0.00  0.00    +0.000 OA
ATOM      8  N   UNL     1     -18.633  41.747 -11.723  0.00  0.00    +0.000 N 
ATOM      9  C   UNL     1     -17.851  42.411 -12.722  0.00  0.00    +0.000 C 
ATOM     10  H   UNL     1     -19.014  42.305 -10.947  0.00  0.00    +0.000 HD
BRANCH   8  11
ATOM     11  S   UNL     1     -18.705  40.050 -11.512  0.00  0.00    +0.000 S 
ATOM     12  O   UNL     1     -19.490  39.449 -12.572  0.00  0.00    +0.000 OA
ATOM     13  O   UNL     1     -17.374  39.564 -11.203  0.00  0.00    +0.000 OA
ATOM     14  C   UNL     1     -19.659  39.980 -10.016  0.00  0.00    +0.000 C 
ENDBRANCH   8  11
ENDBRANCH   2   9
BRANCH   3  15
ATOM     15  N   UNL     1     -18.783  43.906 -14.976  0.00  0.00    +0.000 N 
ATOM     16  H   UNL     1     -19.721  43.527 -15.016  0.00  0.00    +0.000 HD
ATOM     17  H   UNL     1     -18.053  43.403 -15.464  0.00  0.00    +0.000 HD
ENDBRANCH   3  15
TORSDOF 3
ENDMDL
MODEL 5
REMARK VINA RESULT:    -5.700      4.401      5.463
REMARK INTER + INTRA:          -6.423
REMARK INTER:                  -5.971
REMARK INTRA:                  -0.451
REMARK UNBOUND:                 0.110
REMARK  Name = 121260737
REMARK  4 active torsions:
REMARK  status: ('A' for Active; 'I' for Inactive)
REMARK    1  A    between atoms: S_1  and  N_5
REMARK    2  A    between atoms: S_1  and  C_10
REMARK    3  A    between atoms: N_7  and  C_11
REMARK    4  A    between atoms: C_8  and  C_9
REMARK                            x       y       z     vdW  Elec       q    Type
REMARK                         _______ _______ _______ _____ _____    ______ ____
ROOT
ATOM      1  N   UNL     1     -16.835  41.720 -12.055  0.00  0.00    +0.000 NA
ATOM      2  C   UNL     1     -18.324  42.870 -13.573  0.00  0.00    +0.000 A 
ATOM      3  C   UNL     1     -17.859  41.729 -12.938  0.00  0.00    +0.000 A 
ATOM      4  C   UNL     1     -17.701  44.078 -13.283  0.00  0.00    +0.000 A 
ATOM      5  C   UNL     1     -16.644  44.108 -12.379  0.00  0.00    +0.000 A 
ATOM      6  C   UNL     1     -16.253  42.912 -11.797  0.00  0.00    +0.000 A 
ENDROOT
BRANCH   2   9
ATOM      7  O   UNL     1     -20.560  42.446 -14.199  0.00  0.00    +0.000 OA
ATOM      8  N   UNL     1     -19.149  43.318 -15.856  0.00  0.00    +0.000 N 
ATOM      9  C   UNL     1     -19.454  42.849 -14.537  0.00  0.00    +0.000 C 
ATOM     10  H   UNL     1     -18.274  43.838 -16.001  0.00  0.00    +0.000 HD
BRANCH   8  11
ATOM     11  S   UNL     1     -20.273  43.395 -17.145  0.00  0.00    +0.000 S 
ATOM     12  O   UNL     1     -20.686  42.058 -17.527  0.00  0.00    +0.000 OA
ATOM     13  O   UNL     1     -21.253  44.421 -16.846  0.00  0.00    +0.000 OA
ATOM     14  C   UNL     1     -19.212  44.026 -18.422  0.00  0.00    +0.000 C 
ENDBRANCH   8  11
ENDBRANCH   2   9
BRANCH   3  15
ATOM     15  N   UNL     1     -18.492  40.495 -13.228  0.00  0.00    +0.000 N 
ATOM     16  H   UNL     1     -19.382  40.509 -13.710  0.00  0.00    +0.000 HD
ATOM     17  H   UNL     1     -18.324  39.739 -12.576  0.00  0.00    +0.000 HD
ENDBRANCH   3  15
TORSDOF 3
ENDMDL
