MODEL 1
REMARK VINA RESULT:    -5.337      0.000      0.000
REMARK INTER + INTRA:          -6.123
REMARK INTER:                  -5.961
REMARK INTRA:                  -0.162
REMARK UNBOUND:                -0.162
REMARK  Name = 121380162
REMARK  2 active torsions:
REMARK  status: ('A' for Active; 'I' for Inactive)
REMARK    1  A    between atoms: N_3  and  C_7
REMARK    2  A    between atoms: C_6  and  C_11
REMARK                            x       y       z     vdW  Elec       q    Type
REMARK                         _______ _______ _______ _____ _____    ______ ____
ROOT
ATOM      1  N   UNL     1     -18.483  42.086  -8.490  0.00  0.00    +0.000 NA
ATOM      2  C   UNL     1     -19.265  40.444 -10.084  0.00  0.00    +0.000 A 
ATOM      3  C   UNL     1     -18.385  41.430  -9.668  0.00  0.00    +0.000 A 
ATOM      4  C   UNL     1     -20.316  40.110  -9.236  0.00  0.00    +0.000 A 
ATOM      5  C   UNL     1     -20.451  40.764  -8.016  0.00  0.00    +0.000 A 
ATOM      6  C   UNL     1     -19.518  41.735  -7.693  0.00  0.00    +0.000 A 
ENDROOT
BRANCH   3   7
ATOM      7  N   UNL     1     -17.304  41.813 -10.472  0.00  0.00    +0.000 NA
ATOM      8  N   UNL     1     -17.447  42.954 -10.963  0.00  0.00    +0.000 NA
ATOM      9  N   UNL     1     -17.585  43.996 -11.408  0.00  0.00    +0.000 NA
ENDBRANCH   3   7
BRANCH   2  11
ATOM     10  O   UNL     1     -19.400  38.571 -11.522  0.00  0.00    +0.000 OA
ATOM     11  C   UNL     1     -19.118  39.761 -11.360  0.00  0.00    +0.000 C 
ENDBRANCH   2  11
TORSDOF 2
ENDMDL
MODEL 2
REMARK VINA RESULT:    -4.973      2.578      2.968
REMARK INTER + INTRA:          -5.716
REMARK INTER:                  -5.675
REMARK INTRA:                  -0.041
REMARK UNBOUND:                -0.162
REMARK  Name = 121380162
REMARK  2 active torsions:
REMARK  status: ('A' for Active; 'I' for Inactive)
REMARK    1  A    between atoms: N_3  and  C_7
REMARK    2  A    between atoms: C_6  and  C_11
REMARK                            x       y       z     vdW  Elec       q    Type
REMARK                         _______ _______ _______ _____ _____    ______ ____
ROOT
ATOM      1  N   UNL     1     -19.695  39.727 -10.006  0.00  0.00    +0.000 NA
ATOM      2  C   UNL     1     -18.184  41.615 -10.021  0.00  0.00    +0.000 A 
ATOM      3  C   UNL     1     -18.790  40.522 -10.620  0.00  0.00    +0.000 A 
ATOM      4  C   UNL     1     -18.529  41.911  -8.706  0.00  0.00    +0.000 A 
ATOM      5  C   UNL     1     -19.456  41.115  -8.042  0.00  0.00    +0.000 A 
ATOM      6  C   UNL     1     -20.005  40.045  -8.729  0.00  0.00    +0.000 A 
ENDROOT
BRANCH   3   7
ATOM      7  N   UNL     1     -18.489  40.169 -11.942  0.00  0.00    +0.000 NA
ATOM      8  N   UNL     1     -19.100  40.868 -12.779  0.00  0.00    +0.000 NA
ATOM      9  N   UNL     1     -19.662  41.510 -13.538  0.00  0.00    +0.000 NA
ENDBRANCH   3   7
BRANCH   2  11
ATOM     10  O   UNL     1     -17.510  43.525 -11.242  0.00  0.00    +0.000 OA
ATOM     11  C   UNL     1     -17.217  42.446 -10.721  0.00  0.00    +0.000 C 
ENDBRANCH   2  11
TORSDOF 2
ENDMDL
MODEL 3
REMARK VINA RESULT:    -4.970      1.718      3.203
REMARK INTER + INTRA:          -5.712
REMARK INTER:                  -5.633
REMARK INTRA:                  -0.080
REMARK UNBOUND:                -0.162
REMARK  Name = 121380162
REMARK  2 active torsions:
REMARK  status: ('A' for Active; 'I' for Inactive)
REMARK    1  A    between atoms: N_3  and  C_7
REMARK    2  A    between atoms: C_6  and  C_11
REMARK                            x       y       z     vdW  Elec       q    Type
REMARK                         _______ _______ _______ _____ _____    ______ ____
ROOT
ATOM      1  N   UNL     1     -17.713  42.744 -10.034  0.00  0.00    +0.000 NA
ATOM      2  C   UNL     1     -18.567  40.832 -11.244  0.00  0.00    +0.000 A 
ATOM      3  C   UNL     1     -18.205  41.485 -10.076  0.00  0.00    +0.000 A 
ATOM      4  C   UNL     1     -18.413  41.514 -12.446  0.00  0.00    +0.000 A 
ATOM      5  C   UNL     1     -17.910  42.811 -12.443  0.00  0.00    +0.000 A 
ATOM      6  C   UNL     1     -17.578  43.375 -11.223  0.00  0.00    +0.000 A 
ENDROOT
BRANCH   3   7
ATOM      7  N   UNL     1     -18.335  40.857  -8.832  0.00  0.00    +0.000 NA
ATOM      8  N   UNL     1     -18.877  41.588  -7.975  0.00  0.00    +0.000 NA
ATOM      9  N   UNL     1     -19.372  42.262  -7.198  0.00  0.00    +0.000 NA
ENDBRANCH   3   7
BRANCH   2  11
ATOM     10  O   UNL     1     -19.455  38.894 -12.268  0.00  0.00    +0.000 OA
ATOM     11  C   UNL     1     -19.096  39.476 -11.242  0.00  0.00    +0.000 C 
ENDBRANCH   2  11
TORSDOF 2
ENDMDL
MODEL 4
REMARK VINA RESULT:    -4.966      3.338      4.385
REMARK INTER + INTRA:          -5.709
REMARK INTER:                  -5.593
REMARK INTRA:                  -0.115
REMARK UNBOUND:                -0.162
REMARK  Name = 121380162
REMARK  2 active torsions:
REMARK  status: ('A' for Active; 'I' for Inactive)
REMARK    1  A    between atoms: N_3  and  C_7
REMARK    2  A    between atoms: C_6  and  C_11
REMARK                            x       y       z     vdW  Elec       q    Type
REMARK                         _______ _______ _______ _____ _____    ______ ____
ROOT
ATOM      1  N   UNL     1     -19.704  41.067 -12.769  0.00  0.00    +0.000 NA
ATOM      2  C   UNL     1     -17.391  40.985 -12.071  0.00  0.00    +0.000 A 
ATOM      3  C   UNL     1     -18.690  40.502 -12.077  0.00  0.00    +0.000 A 
ATOM      4  C   UNL     1     -17.115  42.122 -12.823  0.00  0.00    +0.000 A 
ATOM      5  C   UNL     1     -18.133  42.732 -13.548  0.00  0.00    +0.000 A 
ATOM      6  C   UNL     1     -19.398  42.171 -13.487  0.00  0.00    +0.000 A 
ENDROOT
BRANCH   3   7
ATOM      7  N   UNL     1     -19.035  39.360 -11.343  0.00  0.00    +0.000 NA
ATOM      8  N   UNL     1     -19.513  39.633 -10.221  0.00  0.00    +0.000 NA
ATOM      9  N   UNL     1     -19.948  39.890  -9.197  0.00  0.00    +0.000 NA
ENDBRANCH   3   7
BRANCH   2  11
ATOM     10  O   UNL     1     -15.710  39.356 -11.726  0.00  0.00    +0.000 OA
ATOM     11  C   UNL     1     -16.327  40.341 -11.314  0.00  0.00    +0.000 C 
ENDBRANCH   2  11
TORSDOF 2
ENDMDL
MODEL 5
REMARK VINA RESULT:    -4.852      3.203      4.008
REMARK INTER + INTRA:          -5.581
REMARK INTER:                  -5.403
REMARK INTRA:                  -0.178
REMARK UNBOUND:                -0.162
REMARK  Name = 121380162
REMARK  2 active torsions:
REMARK  status: ('A' for Active; 'I' for Inactive)
REMARK    1  A    between atoms: N_3  and  C_7
REMARK    2  A    between atoms: C_6  and  C_11
REMARK                            x       y       z     vdW  Elec       q    Type
REMARK                         _______ _______ _______ _____ _____    ______ ____
ROOT
ATOM      1  N   UNL     1     -19.033  40.168 -12.902  0.00  0.00    +0.000 NA
ATOM      2  C   UNL     1     -18.229  41.981 -11.518  0.00  0.00    +0.000 A 
ATOM      3  C   UNL     1     -18.557  41.423 -12.744  0.00  0.00    +0.000 A 
ATOM      4  C   UNL     1     -18.401  41.200 -10.381  0.00  0.00    +0.000 A 
ATOM      5  C   UNL     1     -18.889  39.903 -10.503  0.00  0.00    +0.000 A 
ATOM      6  C   UNL     1     -19.187  39.438 -11.773  0.00  0.00    +0.000 A 
ENDROOT
BRANCH   3   7
ATOM      7  N   UNL     1     -18.410  42.156 -13.928  0.00  0.00    +0.000 NA
ATOM      8  N   UNL     1     -19.505  42.470 -14.442  0.00  0.00    +0.000 NA
ATOM      9  N   UNL     1     -20.510  42.751 -14.906  0.00  0.00    +0.000 NA
ENDBRANCH   3   7
BRANCH   2  11
ATOM     10  O   UNL     1     -16.521  43.615 -11.439  0.00  0.00    +0.000 OA
ATOM     11  C   UNL     1     -17.723  43.339 -11.395  0.00  0.00    +0.000 C 
ENDBRANCH   2  11
TORSDOF 2
ENDMDL
