MODEL 1
REMARK VINA RESULT:    -6.191      0.000      0.000
REMARK INTER + INTRA:          -7.102
REMARK INTER:                  -6.915
REMARK INTRA:                  -0.187
REMARK UNBOUND:                -0.187
REMARK  Name = 12254382
REMARK  2 active torsions:
REMARK  status: ('A' for Active; 'I' for Inactive)
REMARK    1  A    between atoms: N_2  and  C_9
REMARK    2  A    between atoms: C_10  and  C_12
REMARK                            x       y       z     vdW  Elec       q    Type
REMARK                         _______ _______ _______ _____ _____    ______ ____
ROOT
ATOM      1  N   UNL     1     -18.503  42.337  -8.457  0.00  0.00    +0.000 NA
ATOM      2  C   UNL     1     -18.436  41.740  -9.702  0.00  0.00    +0.000 A 
ATOM      3  C   UNL     1     -19.316  40.675 -10.014  0.00  0.00    +0.000 A 
ATOM      4  C   UNL     1     -20.241  40.237  -9.073  0.00  0.00    +0.000 A 
ATOM      5  C   UNL     1     -19.416  41.883  -7.569  0.00  0.00    +0.000 A 
ATOM      6  C   UNL     1     -20.299  40.847  -7.825  0.00  0.00    +0.000 A 
ENDROOT
BRANCH   3   9
ATOM      7  O   UNL     1     -18.640  38.969 -11.489  0.00  0.00    +0.000 OA
ATOM      8  N   UNL     1     -19.955  40.631 -12.364  0.00  0.00    +0.000 N 
ATOM      9  C   UNL     1     -19.265  40.030 -11.318  0.00  0.00    +0.000 C 
ATOM     10  H   UNL     1     -20.475  41.495 -12.241  0.00  0.00    +0.000 HD
ATOM     11  H   UNL     1     -19.958  40.222 -13.292  0.00  0.00    +0.000 HD
ENDBRANCH   3   9
BRANCH   2  12
ATOM     12  N   UNL     1     -17.516  42.180 -10.630  0.00  0.00    +0.000 N 
ATOM     13  C   UNL     1     -15.478  42.527 -11.752  0.00  0.00    +0.000 C 
ATOM     14  C   UNL     1     -16.579  43.259 -12.498  0.00  0.00    +0.000 C 
ATOM     15  C   UNL     1     -16.246  41.513 -10.907  0.00  0.00    +0.000 C 
ATOM     16  C   UNL     1     -17.689  43.374 -11.455  0.00  0.00    +0.000 C 
ENDBRANCH   2  12
TORSDOF 2
ENDMDL
MODEL 2
REMARK VINA RESULT:    -4.856      2.986      5.405
REMARK INTER + INTRA:          -5.611
REMARK INTER:                  -5.392
REMARK INTRA:                  -0.219
REMARK UNBOUND:                -0.187
REMARK  Name = 12254382
REMARK  2 active torsions:
REMARK  status: ('A' for Active; 'I' for Inactive)
REMARK    1  A    between atoms: N_2  and  C_9
REMARK    2  A    between atoms: C_10  and  C_12
REMARK                            x       y       z     vdW  Elec       q    Type
REMARK                         _______ _______ _______ _____ _____    ______ ____
ROOT
ATOM      1  N   UNL     1     -19.612  42.285 -14.692  0.00  0.00    +0.000 NA
ATOM      2  C   UNL     1     -18.723  42.541 -13.664  0.00  0.00    +0.000 A 
ATOM      3  C   UNL     1     -18.128  43.821 -13.559  0.00  0.00    +0.000 A 
ATOM      4  C   UNL     1     -18.436  44.812 -14.484  0.00  0.00    +0.000 A 
ATOM      5  C   UNL     1     -19.887  43.274 -15.572  0.00  0.00    +0.000 A 
ATOM      6  C   UNL     1     -19.332  44.542 -15.512  0.00  0.00    +0.000 A 
ENDROOT
BRANCH   3   9
ATOM      7  O   UNL     1     -17.585  44.428 -11.349  0.00  0.00    +0.000 OA
ATOM      8  N   UNL     1     -15.831  44.015 -12.768  0.00  0.00    +0.000 N 
ATOM      9  C   UNL     1     -17.189  44.115 -12.485  0.00  0.00    +0.000 C 
ATOM     10  H   UNL     1     -15.490  43.756 -13.689  0.00  0.00    +0.000 HD
ATOM     11  H   UNL     1     -15.134  44.203 -12.056  0.00  0.00    +0.000 HD
ENDBRANCH   3   9
BRANCH   2  12
ATOM     12  N   UNL     1     -18.422  41.553 -12.750  0.00  0.00    +0.000 N 
ATOM     13  C   UNL     1     -18.348  40.321 -10.748  0.00  0.00    +0.000 C 
ATOM     14  C   UNL     1     -17.522  39.600 -11.798  0.00  0.00    +0.000 C 
ATOM     15  C   UNL     1     -19.238  41.243 -11.580  0.00  0.00    +0.000 C 
ATOM     16  C   UNL     1     -17.246  40.690 -12.832  0.00  0.00    +0.000 C 
ENDBRANCH   2  12
TORSDOF 2
ENDMDL
MODEL 3
REMARK VINA RESULT:    -4.839      2.302      3.019
REMARK INTER + INTRA:          -5.592
REMARK INTER:                  -5.446
REMARK INTRA:                  -0.147
REMARK UNBOUND:                -0.187
REMARK  Name = 12254382
REMARK  2 active torsions:
REMARK  status: ('A' for Active; 'I' for Inactive)
REMARK    1  A    between atoms: N_2  and  C_9
REMARK    2  A    between atoms: C_10  and  C_12
REMARK                            x       y       z     vdW  Elec       q    Type
REMARK                         _______ _______ _______ _____ _____    ______ ____
ROOT
ATOM      1  N   UNL     1     -17.463  41.545 -10.500  0.00  0.00    +0.000 NA
ATOM      2  C   UNL     1     -17.824  42.262 -11.626  0.00  0.00    +0.000 A 
ATOM      3  C   UNL     1     -18.917  41.821 -12.412  0.00  0.00    +0.000 A 
ATOM      4  C   UNL     1     -19.619  40.677 -12.052  0.00  0.00    +0.000 A 
ATOM      5  C   UNL     1     -18.170  40.438 -10.182  0.00  0.00    +0.000 A 
ATOM      6  C   UNL     1     -19.246  39.966 -10.917  0.00  0.00    +0.000 A 
ENDROOT
BRANCH   3   9
ATOM      7  O   UNL     1     -19.008  42.165 -14.740  0.00  0.00    +0.000 OA
ATOM      8  N   UNL     1     -20.074  43.711 -13.425  0.00  0.00    +0.000 N 
ATOM      9  C   UNL     1     -19.317  42.559 -13.602  0.00  0.00    +0.000 C 
ATOM     10  H   UNL     1     -20.340  44.045 -12.503  0.00  0.00    +0.000 HD
ATOM     11  H   UNL     1     -20.384  44.260 -14.219  0.00  0.00    +0.000 HD
ENDBRANCH   3   9
BRANCH   2  12
ATOM     12  N   UNL     1     -17.123  43.396 -11.977  0.00  0.00    +0.000 N 
ATOM     13  C   UNL     1     -16.592  45.655 -12.357  0.00  0.00    +0.000 C 
ATOM     14  C   UNL     1     -15.395  44.800 -12.734  0.00  0.00    +0.000 C 
ATOM     15  C   UNL     1     -17.410  44.730 -11.458  0.00  0.00    +0.000 C 
ATOM     16  C   UNL     1     -16.004  43.411 -12.916  0.00  0.00    +0.000 C 
ENDBRANCH   2  12
TORSDOF 2
ENDMDL
MODEL 4
REMARK VINA RESULT:    -4.756      7.151      8.591
REMARK INTER + INTRA:          -5.499
REMARK INTER:                  -5.293
REMARK INTRA:                  -0.206
REMARK UNBOUND:                -0.187
REMARK  Name = 12254382
REMARK  2 active torsions:
REMARK  status: ('A' for Active; 'I' for Inactive)
REMARK    1  A    between atoms: N_2  and  C_9
REMARK    2  A    between atoms: C_10  and  C_12
REMARK                            x       y       z     vdW  Elec       q    Type
REMARK                         _______ _______ _______ _____ _____    ______ ____
ROOT
ATOM      1  N   UNL     1     -21.820  46.117 -18.213  0.00  0.00    +0.000 NA
ATOM      2  C   UNL     1     -20.964  45.067 -17.934  0.00  0.00    +0.000 A 
ATOM      3  C   UNL     1     -21.412  44.003 -17.113  0.00  0.00    +0.000 A 
ATOM      4  C   UNL     1     -22.702  44.016 -16.594  0.00  0.00    +0.000 A 
ATOM      5  C   UNL     1     -23.066  46.095 -17.690  0.00  0.00    +0.000 A 
ATOM      6  C   UNL     1     -23.551  45.078 -16.883  0.00  0.00    +0.000 A 
ENDROOT
BRANCH   3   9
ATOM      7  O   UNL     1     -20.518  41.860 -17.507  0.00  0.00    +0.000 OA
ATOM      8  N   UNL     1     -19.686  43.012 -15.708  0.00  0.00    +0.000 N 
ATOM      9  C   UNL     1     -20.531  42.886 -16.805  0.00  0.00    +0.000 C 
ATOM     10  H   UNL     1     -19.679  43.845 -15.126  0.00  0.00    +0.000 HD
ATOM     11  H   UNL     1     -19.048  42.267 -15.451  0.00  0.00    +0.000 HD
ENDBRANCH   3   9
BRANCH   2  12
ATOM     12  N   UNL     1     -19.687  45.061 -18.452  0.00  0.00    +0.000 N 
ATOM     13  C   UNL     1     -17.806  44.455 -19.728  0.00  0.00    +0.000 C 
ATOM     14  C   UNL     1     -17.443  45.639 -18.850  0.00  0.00    +0.000 C 
ATOM     15  C   UNL     1     -19.333  44.497 -19.752  0.00  0.00    +0.000 C 
ATOM     16  C   UNL     1     -18.521  45.614 -17.768  0.00  0.00    +0.000 C 
ENDBRANCH   2  12
TORSDOF 2
ENDMDL
MODEL 5
REMARK VINA RESULT:    -4.520      2.728      4.579
REMARK INTER + INTRA:          -5.236
REMARK INTER:                  -5.358
REMARK INTRA:                   0.122
REMARK UNBOUND:                -0.187
REMARK  Name = 12254382
REMARK  2 active torsions:
REMARK  status: ('A' for Active; 'I' for Inactive)
REMARK    1  A    between atoms: N_2  and  C_9
REMARK    2  A    between atoms: C_10  and  C_12
REMARK                            x       y       z     vdW  Elec       q    Type
REMARK                         _______ _______ _______ _____ _____    ______ ____
ROOT
ATOM      1  N   UNL     1     -17.194  44.397 -11.505  0.00  0.00    +0.000 NA
ATOM      2  C   UNL     1     -17.843  43.537 -12.372  0.00  0.00    +0.000 A 
ATOM      3  C   UNL     1     -18.591  44.069 -13.451  0.00  0.00    +0.000 A 
ATOM      4  C   UNL     1     -18.670  45.445 -13.634  0.00  0.00    +0.000 A 
ATOM      5  C   UNL     1     -17.295  45.729 -11.715  0.00  0.00    +0.000 A 
ATOM      6  C   UNL     1     -18.013  46.298 -12.754  0.00  0.00    +0.000 A 
ENDROOT
BRANCH   3   9
ATOM      7  O   UNL     1     -20.083  42.324 -13.974  0.00  0.00    +0.000 OA
ATOM      8  N   UNL     1     -19.032  43.349 -15.736  0.00  0.00    +0.000 N 
ATOM      9  C   UNL     1     -19.283  43.185 -14.378  0.00  0.00    +0.000 C 
ATOM     10  H   UNL     1     -18.386  44.050 -16.084  0.00  0.00    +0.000 HD
ATOM     11  H   UNL     1     -19.491  42.764 -16.426  0.00  0.00    +0.000 HD
ENDBRANCH   3   9
BRANCH   2  12
ATOM     12  N   UNL     1     -17.759  42.174 -12.185  0.00  0.00    +0.000 N 
ATOM     13  C   UNL     1     -17.876  40.057 -11.168  0.00  0.00    +0.000 C 
ATOM     14  C   UNL     1     -17.365  39.891 -12.588  0.00  0.00    +0.000 C 
ATOM     15  C   UNL     1     -18.537  41.434 -11.196  0.00  0.00    +0.000 C 
ATOM     16  C   UNL     1     -16.878  41.294 -12.948  0.00  0.00    +0.000 C 
ENDBRANCH   2  12
TORSDOF 2
ENDMDL
