MODEL 1
REMARK VINA RESULT:    -6.513      0.000      0.000
REMARK INTER + INTRA:          -7.063
REMARK INTER:                  -6.894
REMARK INTRA:                  -0.170
REMARK UNBOUND:                -0.170
REMARK  Name = 122696815
REMARK  3 active torsions:
REMARK  status: ('A' for Active; 'I' for Inactive)
REMARK    1  A    between atoms: N_2  and  C_5
REMARK    2  A    between atoms: C_5  and  C_7
REMARK    3  A    between atoms: C_5  and  C_8
REMARK                            x       y       z     vdW  Elec       q    Type
REMARK                         _______ _______ _______ _____ _____    ______ ____
ROOT
ATOM      1  O   UNL     1     -19.585  38.532 -11.637  0.00  0.00    +0.000 OA
ATOM      2  N   UNL     1     -17.377  41.857 -11.171  0.00  0.00    +0.000 N 
ATOM      3  N   UNL     1     -18.280  42.220  -8.957  0.00  0.00    +0.000 NA
ATOM      4  N   UNL     1     -18.048  39.985 -12.515  0.00  0.00    +0.000 NA
ATOM      5  C   UNL     1     -18.217  41.488 -10.100  0.00  0.00    +0.000 A 
ATOM      6  C   UNL     1     -18.989  40.328 -10.256  0.00  0.00    +0.000 A 
ATOM      7  C   UNL     1     -17.370  41.065 -12.291  0.00  0.00    +0.000 A 
ATOM      8  C   UNL     1     -18.901  39.544 -11.521  0.00  0.00    +0.000 A 
ATOM      9  C   UNL     1     -19.836  39.918  -9.224  0.00  0.00    +0.000 A 
ATOM     10  C   UNL     1     -19.899  40.667  -8.058  0.00  0.00    +0.000 A 
ATOM     11  C   UNL     1     -19.109  41.798  -7.974  0.00  0.00    +0.000 A 
ENDROOT
BRANCH   2  12
ATOM     12  C   UNL     1     -16.572  43.057 -11.018  0.00  0.00    +0.000 C 
ATOM     13  C   UNL     1     -17.213  44.195 -11.800  0.00  0.00    +0.000 C 
ATOM     14  C   UNL     1     -15.153  42.782 -11.499  0.00  0.00    +0.000 C 
ENDBRANCH   2  12
TORSDOF 1
ENDMDL
MODEL 2
REMARK VINA RESULT:    -5.152      2.791      5.083
REMARK INTER + INTRA:          -5.623
REMARK INTER:                  -5.507
REMARK INTRA:                  -0.117
REMARK UNBOUND:                -0.170
REMARK  Name = 122696815
REMARK  3 active torsions:
REMARK  status: ('A' for Active; 'I' for Inactive)
REMARK    1  A    between atoms: N_2  and  C_5
REMARK    2  A    between atoms: C_5  and  C_7
REMARK    3  A    between atoms: C_5  and  C_8
REMARK                            x       y       z     vdW  Elec       q    Type
REMARK                         _______ _______ _______ _____ _____    ______ ____
ROOT
ATOM      1  O   UNL     1     -16.156  44.816 -12.051  0.00  0.00    +0.000 OA
ATOM      2  N   UNL     1     -18.646  41.707 -11.515  0.00  0.00    +0.000 N 
ATOM      3  N   UNL     1     -19.815  42.211 -13.571  0.00  0.00    +0.000 NA
ATOM      4  N   UNL     1     -16.795  43.036 -10.759  0.00  0.00    +0.000 NA
ATOM      5  C   UNL     1     -18.835  42.491 -12.672  0.00  0.00    +0.000 A 
ATOM      6  C   UNL     1     -17.969  43.577 -12.865  0.00  0.00    +0.000 A 
ATOM      7  C   UNL     1     -17.634  42.055 -10.656  0.00  0.00    +0.000 A 
ATOM      8  C   UNL     1     -16.903  43.861 -11.863  0.00  0.00    +0.000 A 
ATOM      9  C   UNL     1     -18.114  44.383 -13.996  0.00  0.00    +0.000 A 
ATOM     10  C   UNL     1     -19.115  44.096 -14.913  0.00  0.00    +0.000 A 
ATOM     11  C   UNL     1     -19.931  43.009 -14.657  0.00  0.00    +0.000 A 
ENDROOT
BRANCH   2  12
ATOM     12  C   UNL     1     -19.537  40.579 -11.307  0.00  0.00    +0.000 C 
ATOM     13  C   UNL     1     -19.802  40.417  -9.817  0.00  0.00    +0.000 C 
ATOM     14  C   UNL     1     -18.914  39.322 -11.901  0.00  0.00    +0.000 C 
ENDBRANCH   2  12
TORSDOF 1
ENDMDL
MODEL 3
REMARK VINA RESULT:    -5.070      2.518      4.807
REMARK INTER + INTRA:          -5.536
REMARK INTER:                  -5.361
REMARK INTRA:                  -0.175
REMARK UNBOUND:                -0.170
REMARK  Name = 122696815
REMARK  3 active torsions:
REMARK  status: ('A' for Active; 'I' for Inactive)
REMARK    1  A    between atoms: N_2  and  C_5
REMARK    2  A    between atoms: C_5  and  C_7
REMARK    3  A    between atoms: C_5  and  C_8
REMARK                            x       y       z     vdW  Elec       q    Type
REMARK                         _______ _______ _______ _____ _____    ______ ____
ROOT
ATOM      1  O   UNL     1     -18.402  44.806 -14.587  0.00  0.00    +0.000 OA
ATOM      2  N   UNL     1     -18.555  41.588 -12.185  0.00  0.00    +0.000 N 
ATOM      3  N   UNL     1     -16.295  41.978 -11.418  0.00  0.00    +0.000 NA
ATOM      4  N   UNL     1     -19.607  43.029 -13.791  0.00  0.00    +0.000 NA
ATOM      5  C   UNL     1     -17.356  42.330 -12.191  0.00  0.00    +0.000 A 
ATOM      6  C   UNL     1     -17.296  43.455 -13.026  0.00  0.00    +0.000 A 
ATOM      7  C   UNL     1     -19.580  42.009 -12.994  0.00  0.00    +0.000 A 
ATOM      8  C   UNL     1     -18.475  43.819 -13.863  0.00  0.00    +0.000 A 
ATOM      9  C   UNL     1     -16.132  44.225 -13.066  0.00  0.00    +0.000 A 
ATOM     10  C   UNL     1     -15.050  43.863 -12.276  0.00  0.00    +0.000 A 
ATOM     11  C   UNL     1     -15.180  42.742 -11.477  0.00  0.00    +0.000 A 
ENDROOT
BRANCH   2  12
ATOM     12  C   UNL     1     -18.626  40.422 -11.322  0.00  0.00    +0.000 C 
ATOM     13  C   UNL     1     -19.192  39.248 -12.110  0.00  0.00    +0.000 C 
ATOM     14  C   UNL     1     -19.486  40.741 -10.106  0.00  0.00    +0.000 C 
ENDBRANCH   2  12
TORSDOF 1
ENDMDL
MODEL 4
REMARK VINA RESULT:    -5.025      2.437      4.420
REMARK INTER + INTRA:          -5.488
REMARK INTER:                  -5.308
REMARK INTRA:                  -0.180
REMARK UNBOUND:                -0.170
REMARK  Name = 122696815
REMARK  3 active torsions:
REMARK  status: ('A' for Active; 'I' for Inactive)
REMARK    1  A    between atoms: N_2  and  C_5
REMARK    2  A    between atoms: C_5  and  C_7
REMARK    3  A    between atoms: C_5  and  C_8
REMARK                            x       y       z     vdW  Elec       q    Type
REMARK                         _______ _______ _______ _____ _____    ______ ____
ROOT
ATOM      1  O   UNL     1     -20.172  43.326 -14.967  0.00  0.00    +0.000 OA
ATOM      2  N   UNL     1     -18.270  41.956 -11.703  0.00  0.00    +0.000 N 
ATOM      3  N   UNL     1     -17.262  44.118 -11.308  0.00  0.00    +0.000 NA
ATOM      4  N   UNL     1     -19.741  41.571 -13.560  0.00  0.00    +0.000 NA
ATOM      5  C   UNL     1     -18.065  43.308 -12.046  0.00  0.00    +0.000 A 
ATOM      6  C   UNL     1     -18.727  43.793 -13.184  0.00  0.00    +0.000 A 
ATOM      7  C   UNL     1     -19.096  41.204 -12.499  0.00  0.00    +0.000 A 
ATOM      8  C   UNL     1     -19.602  42.882 -13.975  0.00  0.00    +0.000 A 
ATOM      9  C   UNL     1     -18.559  45.126 -13.566  0.00  0.00    +0.000 A 
ATOM     10  C   UNL     1     -17.737  45.951 -12.810  0.00  0.00    +0.000 A 
ATOM     11  C   UNL     1     -17.118  45.405 -11.702  0.00  0.00    +0.000 A 
ENDROOT
BRANCH   2  12
ATOM     12  C   UNL     1     -17.590  41.446 -10.526  0.00  0.00    +0.000 C 
ATOM     13  C   UNL     1     -16.660  40.311 -10.935  0.00  0.00    +0.000 C 
ATOM     14  C   UNL     1     -18.620  40.978  -9.505  0.00  0.00    +0.000 C 
ENDBRANCH   2  12
TORSDOF 1
ENDMDL
MODEL 5
REMARK VINA RESULT:    -5.003      2.540      3.300
REMARK INTER + INTRA:          -5.465
REMARK INTER:                  -5.289
REMARK INTRA:                  -0.177
REMARK UNBOUND:                -0.170
REMARK  Name = 122696815
REMARK  3 active torsions:
REMARK  status: ('A' for Active; 'I' for Inactive)
REMARK    1  A    between atoms: N_2  and  C_5
REMARK    2  A    between atoms: C_5  and  C_7
REMARK    3  A    between atoms: C_5  and  C_8
REMARK                            x       y       z     vdW  Elec       q    Type
REMARK                         _______ _______ _______ _____ _____    ______ ____
ROOT
ATOM      1  O   UNL     1     -20.330  42.378 -14.746  0.00  0.00    +0.000 OA
ATOM      2  N   UNL     1     -17.481  44.222 -12.593  0.00  0.00    +0.000 N 
ATOM      3  N   UNL     1     -17.586  42.516 -10.881  0.00  0.00    +0.000 NA
ATOM      4  N   UNL     1     -18.877  44.137 -14.544  0.00  0.00    +0.000 NA
ATOM      5  C   UNL     1     -18.014  43.027 -12.065  0.00  0.00    +0.000 A 
ATOM      6  C   UNL     1     -19.008  42.379 -12.812  0.00  0.00    +0.000 A 
ATOM      7  C   UNL     1     -17.966  44.672 -13.794  0.00  0.00    +0.000 A 
ATOM      8  C   UNL     1     -19.459  42.962 -14.108  0.00  0.00    +0.000 A 
ATOM      9  C   UNL     1     -19.568  41.192 -12.335  0.00  0.00    +0.000 A 
ATOM     10  C   UNL     1     -19.129  40.672 -11.125  0.00  0.00    +0.000 A 
ATOM     11  C   UNL     1     -18.146  41.365 -10.443  0.00  0.00    +0.000 A 
ENDROOT
BRANCH   2  12
ATOM     12  C   UNL     1     -16.450  44.899 -11.826  0.00  0.00    +0.000 C 
ATOM     13  C   UNL     1     -16.796  46.378 -11.717  0.00  0.00    +0.000 C 
ATOM     14  C   UNL     1     -15.098  44.694 -12.498  0.00  0.00    +0.000 C 
ENDBRANCH   2  12
TORSDOF 1
ENDMDL
