MODEL 1
REMARK VINA RESULT:    -5.848      0.000      0.000
REMARK INTER + INTRA:          -7.403
REMARK INTER:                  -7.045
REMARK INTRA:                  -0.359
REMARK UNBOUND:                -0.359
REMARK  Name = 12267033
REMARK  5 active torsions:
REMARK  status: ('A' for Active; 'I' for Inactive)
REMARK    1  A    between atoms: N_2  and  C_5
REMARK    2  A    between atoms: N_4  and  C_10
REMARK    3  A    between atoms: C_5  and  C_6
REMARK    4  A    between atoms: C_6  and  C_9
REMARK    5  A    between atoms: C_7  and  C_8
REMARK                            x       y       z     vdW  Elec       q    Type
REMARK                         _______ _______ _______ _____ _____    ______ ____
ROOT
ATOM      1  N   UNL     1     -18.886  41.642 -13.589  0.00  0.00    +0.000 NA
ATOM      2  C   UNL     1     -18.644  41.473 -11.215  0.00  0.00    +0.000 A 
ATOM      3  C   UNL     1     -19.153  41.038 -12.410  0.00  0.00    +0.000 A 
ATOM      4  C   UNL     1     -17.819  42.573 -11.179  0.00  0.00    +0.000 A 
ATOM      5  C   UNL     1     -17.520  43.222 -12.371  0.00  0.00    +0.000 A 
ATOM      6  C   UNL     1     -18.074  42.721 -13.538  0.00  0.00    +0.000 A 
ENDROOT
BRANCH   2   9
ATOM      7  O   UNL     1     -18.905  39.560  -9.884  0.00  0.00    +0.000 OA
ATOM      8  N   UNL     1     -19.271  41.608  -8.859  0.00  0.00    +0.000 N 
ATOM      9  C   UNL     1     -18.957  40.785  -9.935  0.00  0.00    +0.000 C 
ATOM     10  H   UNL     1     -19.200  42.616  -8.951  0.00  0.00    +0.000 HD
BRANCH   8  11
ATOM     11  C   UNL     1     -19.572  41.095  -7.551  0.00  0.00    +0.000 C 
BRANCH  11  12
ATOM     12  C   UNL     1     -20.562  41.973  -6.796  0.00  0.00    +0.000 C 
ATOM     13  C   UNL     1     -22.009  41.686  -7.173  0.00  0.00    +0.000 C 
ENDBRANCH  11  12
ENDBRANCH   8  11
ENDBRANCH   2   9
BRANCH   3  14
ATOM     14  N   UNL     1     -20.004  39.903 -12.429  0.00  0.00    +0.000 N 
ATOM     15  H   UNL     1     -19.846  39.226 -11.690  0.00  0.00    +0.000 HD
ATOM     16  H   UNL     1     -20.970  40.050 -12.699  0.00  0.00    +0.000 HD
ENDBRANCH   3  14
TORSDOF 4
ENDMDL
MODEL 2
REMARK VINA RESULT:    -5.809      1.788      2.407
REMARK INTER + INTRA:          -7.356
REMARK INTER:                  -6.908
REMARK INTRA:                  -0.449
REMARK UNBOUND:                -0.359
REMARK  Name = 12267033
REMARK  5 active torsions:
REMARK  status: ('A' for Active; 'I' for Inactive)
REMARK    1  A    between atoms: N_2  and  C_5
REMARK    2  A    between atoms: N_4  and  C_10
REMARK    3  A    between atoms: C_5  and  C_6
REMARK    4  A    between atoms: C_6  and  C_9
REMARK    5  A    between atoms: C_7  and  C_8
REMARK                            x       y       z     vdW  Elec       q    Type
REMARK                         _______ _______ _______ _____ _____    ______ ____
ROOT
ATOM      1  N   UNL     1     -17.264  41.625 -12.085  0.00  0.00    +0.000 NA
ATOM      2  C   UNL     1     -18.759  40.582 -10.535  0.00  0.00    +0.000 A 
ATOM      3  C   UNL     1     -17.847  41.549 -10.867  0.00  0.00    +0.000 A 
ATOM      4  C   UNL     1     -19.121  39.630 -11.461  0.00  0.00    +0.000 A 
ATOM      5  C   UNL     1     -18.543  39.675 -12.724  0.00  0.00    +0.000 A 
ATOM      6  C   UNL     1     -17.629  40.684 -12.984  0.00  0.00    +0.000 A 
ENDROOT
BRANCH   2   9
ATOM      7  O   UNL     1     -18.662  40.492  -8.194  0.00  0.00    +0.000 OA
ATOM      8  N   UNL     1     -20.772  40.540  -9.154  0.00  0.00    +0.000 N 
ATOM      9  C   UNL     1     -19.382  40.526  -9.187  0.00  0.00    +0.000 C 
ATOM     10  H   UNL     1     -21.300  40.666 -10.012  0.00  0.00    +0.000 HD
BRANCH   8  11
ATOM     11  C   UNL     1     -21.520  40.516  -7.928  0.00  0.00    +0.000 C 
BRANCH  11  12
ATOM     12  C   UNL     1     -21.663  41.900  -7.307  0.00  0.00    +0.000 C 
ATOM     13  C   UNL     1     -21.097  41.973  -5.896  0.00  0.00    +0.000 C 
ENDBRANCH  11  12
ENDBRANCH   8  11
ENDBRANCH   2   9
BRANCH   3  14
ATOM     14  N   UNL     1     -17.484  42.521  -9.901  0.00  0.00    +0.000 N 
ATOM     15  H   UNL     1     -16.493  42.582  -9.693  0.00  0.00    +0.000 HD
ATOM     16  H   UNL     1     -17.992  43.399  -9.910  0.00  0.00    +0.000 HD
ENDBRANCH   3  14
TORSDOF 4
ENDMDL
MODEL 3
REMARK VINA RESULT:    -5.633      1.750      4.728
REMARK INTER + INTRA:          -7.145
REMARK INTER:                  -6.747
REMARK INTRA:                  -0.398
REMARK UNBOUND:                -0.359
REMARK  Name = 12267033
REMARK  5 active torsions:
REMARK  status: ('A' for Active; 'I' for Inactive)
REMARK    1  A    between atoms: N_2  and  C_5
REMARK    2  A    between atoms: N_4  and  C_10
REMARK    3  A    between atoms: C_5  and  C_6
REMARK    4  A    between atoms: C_6  and  C_9
REMARK    5  A    between atoms: C_7  and  C_8
REMARK                            x       y       z     vdW  Elec       q    Type
REMARK                         _______ _______ _______ _____ _____    ______ ____
ROOT
ATOM      1  N   UNL     1     -21.127  40.432  -8.702  0.00  0.00    +0.000 NA
ATOM      2  C   UNL     1     -18.908  41.192  -9.172  0.00  0.00    +0.000 A 
ATOM      3  C   UNL     1     -20.003  40.420  -9.454  0.00  0.00    +0.000 A 
ATOM      4  C   UNL     1     -18.919  42.031  -8.081  0.00  0.00    +0.000 A 
ATOM      5  C   UNL     1     -20.057  42.071  -7.283  0.00  0.00    +0.000 A 
ATOM      6  C   UNL     1     -21.124  41.260  -7.634  0.00  0.00    +0.000 A 
ENDROOT
BRANCH   2   9
ATOM      7  O   UNL     1     -17.148  40.078 -10.250  0.00  0.00    +0.000 OA
ATOM      8  N   UNL     1     -17.252  42.379 -10.518  0.00  0.00    +0.000 N 
ATOM      9  C   UNL     1     -17.687  41.157 -10.019  0.00  0.00    +0.000 C 
ATOM     10  H   UNL     1     -17.804  43.217 -10.364  0.00  0.00    +0.000 HD
BRANCH   8  11
ATOM     11  C   UNL     1     -16.103  42.505 -11.371  0.00  0.00    +0.000 C 
BRANCH  11  12
ATOM     12  C   UNL     1     -16.469  42.982 -12.772  0.00  0.00    +0.000 C 
ATOM     13  C   UNL     1     -17.705  42.287 -13.325  0.00  0.00    +0.000 C 
ENDBRANCH  11  12
ENDBRANCH   8  11
ENDBRANCH   2   9
BRANCH   3  14
ATOM     14  N   UNL     1     -19.974  39.561 -10.582  0.00  0.00    +0.000 N 
ATOM     15  H   UNL     1     -20.343  38.628 -10.430  0.00  0.00    +0.000 HD
ATOM     16  H   UNL     1     -20.168  39.974 -11.487  0.00  0.00    +0.000 HD
ENDBRANCH   3  14
TORSDOF 4
ENDMDL
MODEL 4
REMARK VINA RESULT:    -4.972      1.947      2.801
REMARK INTER + INTRA:          -6.348
REMARK INTER:                  -5.976
REMARK INTRA:                  -0.372
REMARK UNBOUND:                -0.359
REMARK  Name = 12267033
REMARK  5 active torsions:
REMARK  status: ('A' for Active; 'I' for Inactive)
REMARK    1  A    between atoms: N_2  and  C_5
REMARK    2  A    between atoms: N_4  and  C_10
REMARK    3  A    between atoms: C_5  and  C_6
REMARK    4  A    between atoms: C_6  and  C_9
REMARK    5  A    between atoms: C_7  and  C_8
REMARK                            x       y       z     vdW  Elec       q    Type
REMARK                         _______ _______ _______ _____ _____    ______ ____
ROOT
ATOM      1  N   UNL     1     -18.113  44.720 -14.110  0.00  0.00    +0.000 NA
ATOM      2  C   UNL     1     -18.113  42.674 -12.870  0.00  0.00    +0.000 A 
ATOM      3  C   UNL     1     -18.736  43.611 -13.652  0.00  0.00    +0.000 A 
ATOM      4  C   UNL     1     -16.793  42.838 -12.518  0.00  0.00    +0.000 A 
ATOM      5  C   UNL     1     -16.118  43.966 -12.971  0.00  0.00    +0.000 A 
ATOM      6  C   UNL     1     -16.816  44.868 -13.757  0.00  0.00    +0.000 A 
ENDROOT
BRANCH   2   9
ATOM      7  O   UNL     1     -19.500  40.806 -13.169  0.00  0.00    +0.000 OA
ATOM      8  N   UNL     1     -18.651  41.151 -11.038  0.00  0.00    +0.000 N 
ATOM      9  C   UNL     1     -18.826  41.464 -12.381  0.00  0.00    +0.000 C 
ATOM     10  H   UNL     1     -18.001  41.687 -10.471  0.00  0.00    +0.000 HD
BRANCH   8  11
ATOM     11  C   UNL     1     -19.253  40.001 -10.424  0.00  0.00    +0.000 C 
BRANCH  11  12
ATOM     12  C   UNL     1     -20.094  40.365  -9.207  0.00  0.00    +0.000 C 
ATOM     13  C   UNL     1     -19.247  40.716  -7.991  0.00  0.00    +0.000 C 
ENDBRANCH  11  12
ENDBRANCH   8  11
ENDBRANCH   2   9
BRANCH   3  14
ATOM     14  N   UNL     1     -20.097  43.426 -14.004  0.00  0.00    +0.000 N 
ATOM     15  H   UNL     1     -20.318  42.542 -14.447  0.00  0.00    +0.000 HD
ATOM     16  H   UNL     1     -20.796  43.791 -13.366  0.00  0.00    +0.000 HD
ENDBRANCH   3  14
TORSDOF 4
ENDMDL
MODEL 5
REMARK VINA RESULT:    -4.697      3.042      4.158
REMARK INTER + INTRA:          -6.016
REMARK INTER:                  -5.573
REMARK INTRA:                  -0.443
REMARK UNBOUND:                -0.359
REMARK  Name = 12267033
REMARK  5 active torsions:
REMARK  status: ('A' for Active; 'I' for Inactive)
REMARK    1  A    between atoms: N_2  and  C_5
REMARK    2  A    between atoms: N_4  and  C_10
REMARK    3  A    between atoms: C_5  and  C_6
REMARK    4  A    between atoms: C_6  and  C_9
REMARK    5  A    between atoms: C_7  and  C_8
REMARK                            x       y       z     vdW  Elec       q    Type
REMARK                         _______ _______ _______ _____ _____    ______ ____
ROOT
ATOM      1  N   UNL     1     -15.097  45.666 -12.395  0.00  0.00    +0.000 NA
ATOM      2  C   UNL     1     -16.633  43.885 -11.956  0.00  0.00    +0.000 A 
ATOM      3  C   UNL     1     -15.411  44.351 -12.363  0.00  0.00    +0.000 A 
ATOM      4  C   UNL     1     -17.607  44.769 -11.553  0.00  0.00    +0.000 A 
ATOM      5  C   UNL     1     -17.322  46.129 -11.571  0.00  0.00    +0.000 A 
ATOM      6  C   UNL     1     -16.064  46.522 -11.996  0.00  0.00    +0.000 A 
ENDROOT
BRANCH   2   9
ATOM      7  O   UNL     1     -17.016  41.816 -12.992  0.00  0.00    +0.000 OA
ATOM      8  N   UNL     1     -17.120  41.864 -10.675  0.00  0.00    +0.000 N 
ATOM      9  C   UNL     1     -16.947  42.432 -11.932  0.00  0.00    +0.000 C 
ATOM     10  H   UNL     1     -16.952  42.415  -9.840  0.00  0.00    +0.000 HD
BRANCH   8  11
ATOM     11  C   UNL     1     -17.402  40.468 -10.486  0.00  0.00    +0.000 C 
BRANCH  11  12
ATOM     12  C   UNL     1     -18.743  40.234  -9.801  0.00  0.00    +0.000 C 
ATOM     13  C   UNL     1     -18.809  40.850  -8.411  0.00  0.00    +0.000 C 
ENDBRANCH  11  12
ENDBRANCH   8  11
ENDBRANCH   2   9
BRANCH   3  14
ATOM     14  N   UNL     1     -14.418  43.426 -12.777  0.00  0.00    +0.000 N 
ATOM     15  H   UNL     1     -13.489  43.587 -12.404  0.00  0.00    +0.000 HD
ATOM     16  H   UNL     1     -14.698  42.456 -12.873  0.00  0.00    +0.000 HD
ENDBRANCH   3  14
TORSDOF 4
ENDMDL
