MODEL 1
REMARK VINA RESULT:    -5.919      0.000      0.000
REMARK INTER + INTRA:          -7.480
REMARK INTER:                  -6.957
REMARK INTRA:                  -0.524
REMARK UNBOUND:                -0.524
REMARK  Name = 123260746
REMARK  3 active torsions:
REMARK  status: ('A' for Active; 'I' for Inactive)
REMARK    1  A    between atoms: C_7  and  C_9
REMARK    2  A    between atoms: C_8  and  C_13
REMARK    3  A    between atoms: C_9  and  C_14
REMARK                            x       y       z     vdW  Elec       q    Type
REMARK                         _______ _______ _______ _____ _____    ______ ____
ROOT
ATOM      1  N   UNL     1     -19.546  40.032  -9.631  0.00  0.00    +0.000 NA
ATOM      2  N   UNL     1     -19.659  38.766 -11.630  0.00  0.00    +0.000 N 
ATOM      3  C   UNL     1     -17.718  41.777 -10.829  0.00  0.00    +0.000 A 
ATOM      4  C   UNL     1     -18.229  40.700 -11.545  0.00  0.00    +0.000 A 
ATOM      5  C   UNL     1     -18.121  41.982  -9.513  0.00  0.00    +0.000 A 
ATOM      6  C   UNL     1     -19.132  39.866 -10.907  0.00  0.00    +0.000 A 
ATOM      7  C   UNL     1     -19.028  41.090  -8.965  0.00  0.00    +0.000 A 
ATOM      8  H   UNL     1     -19.776  38.856 -12.632  0.00  0.00    +0.000 HD
ATOM      9  H   UNL     1     -20.312  38.172 -11.134  0.00  0.00    +0.000 HD
ENDROOT
BRANCH   4  12
ATOM     10  O   UNL     1     -18.497  40.881 -13.878  0.00  0.00    +0.000 OA
ATOM     11  N   UNL     1     -16.624  39.788 -13.135  0.00  0.00    +0.000 N 
ATOM     12  C   UNL     1     -17.817  40.470 -12.925  0.00  0.00    +0.000 C 
ATOM     13  H   UNL     1     -16.054  39.450 -12.366  0.00  0.00    +0.000 HD
ATOM     14  H   UNL     1     -16.285  39.604 -14.074  0.00  0.00    +0.000 HD
ENDBRANCH   4  12
BRANCH   3  15
ATOM     15  C   UNL     1     -16.741  42.725 -11.440  0.00  0.00    +0.000 C 
BRANCH  15  18
ATOM     16  O   UNL     1     -17.882  44.863 -11.567  0.00  0.00    +0.000 OA
ATOM     17  N   UNL     1     -17.360  43.774 -13.523  0.00  0.00    +0.000 N 
ATOM     18  C   UNL     1     -17.389  43.901 -12.150  0.00  0.00    +0.000 C 
ATOM     19  H   UNL     1     -16.953  42.970 -13.988  0.00  0.00    +0.000 HD
ATOM     20  H   UNL     1     -17.758  44.491 -14.120  0.00  0.00    +0.000 HD
ENDBRANCH  15  18
ENDBRANCH   3  15
TORSDOF 3
ENDMDL
MODEL 2
REMARK VINA RESULT:    -5.822      2.225      3.031
REMARK INTER + INTRA:          -7.367
REMARK INTER:                  -6.818
REMARK INTRA:                  -0.549
REMARK UNBOUND:                -0.524
REMARK  Name = 123260746
REMARK  3 active torsions:
REMARK  status: ('A' for Active; 'I' for Inactive)
REMARK    1  A    between atoms: C_7  and  C_9
REMARK    2  A    between atoms: C_8  and  C_13
REMARK    3  A    between atoms: C_9  and  C_14
REMARK                            x       y       z     vdW  Elec       q    Type
REMARK                         _______ _______ _______ _____ _____    ______ ____
ROOT
ATOM      1  N   UNL     1     -19.856  41.577 -13.408  0.00  0.00    +0.000 NA
ATOM      2  N   UNL     1     -19.634  39.482 -12.325  0.00  0.00    +0.000 N 
ATOM      3  C   UNL     1     -17.759  42.604 -11.870  0.00  0.00    +0.000 A 
ATOM      4  C   UNL     1     -18.168  41.286 -11.702  0.00  0.00    +0.000 A 
ATOM      5  C   UNL     1     -18.398  43.409 -12.807  0.00  0.00    +0.000 A 
ATOM      6  C   UNL     1     -19.211  40.825 -12.488  0.00  0.00    +0.000 A 
ATOM      7  C   UNL     1     -19.431  42.854 -13.544  0.00  0.00    +0.000 A 
ATOM      8  H   UNL     1     -18.950  38.787 -12.052  0.00  0.00    +0.000 HD
ATOM      9  H   UNL     1     -20.403  39.176 -12.910  0.00  0.00    +0.000 HD
ENDROOT
BRANCH   4  12
ATOM     10  O   UNL     1     -16.593  39.660 -11.051  0.00  0.00    +0.000 OA
ATOM     11  N   UNL     1     -17.936  40.515  -9.402  0.00  0.00    +0.000 N 
ATOM     12  C   UNL     1     -17.511  40.428 -10.722  0.00  0.00    +0.000 C 
ATOM     13  H   UNL     1     -18.681  41.142  -9.116  0.00  0.00    +0.000 HD
ATOM     14  H   UNL     1     -17.511  39.945  -8.677  0.00  0.00    +0.000 HD
ENDBRANCH   4  12
BRANCH   3  15
ATOM     15  C   UNL     1     -16.644  43.182 -11.063  0.00  0.00    +0.000 C 
BRANCH  15  18
ATOM     16  O   UNL     1     -14.898  43.737 -12.654  0.00  0.00    +0.000 OA
ATOM     17  N   UNL     1     -14.512  42.054 -11.138  0.00  0.00    +0.000 N 
ATOM     18  C   UNL     1     -15.279  43.042 -11.716  0.00  0.00    +0.000 C 
ATOM     19  H   UNL     1     -14.845  41.486 -10.366  0.00  0.00    +0.000 HD
ATOM     20  H   UNL     1     -13.576  41.857 -11.476  0.00  0.00    +0.000 HD
ENDBRANCH  15  18
ENDBRANCH   3  15
TORSDOF 3
ENDMDL
MODEL 3
REMARK VINA RESULT:    -5.795      1.710      2.109
REMARK INTER + INTRA:          -7.335
REMARK INTER:                  -6.780
REMARK INTRA:                  -0.554
REMARK UNBOUND:                -0.524
REMARK  Name = 123260746
REMARK  3 active torsions:
REMARK  status: ('A' for Active; 'I' for Inactive)
REMARK    1  A    between atoms: C_7  and  C_9
REMARK    2  A    between atoms: C_8  and  C_13
REMARK    3  A    between atoms: C_9  and  C_14
REMARK                            x       y       z     vdW  Elec       q    Type
REMARK                         _______ _______ _______ _____ _____    ______ ____
ROOT
ATOM      1  N   UNL     1     -19.507  41.485  -8.263  0.00  0.00    +0.000 NA
ATOM      2  N   UNL     1     -20.859  39.725  -9.092  0.00  0.00    +0.000 N 
ATOM      3  C   UNL     1     -18.100  41.554 -10.679  0.00  0.00    +0.000 A 
ATOM      4  C   UNL     1     -19.136  40.643 -10.499  0.00  0.00    +0.000 A 
ATOM      5  C   UNL     1     -17.768  42.431  -9.651  0.00  0.00    +0.000 A 
ATOM      6  C   UNL     1     -19.801  40.649  -9.284  0.00  0.00    +0.000 A 
ATOM      7  C   UNL     1     -18.495  42.357  -8.474  0.00  0.00    +0.000 A 
ATOM      8  H   UNL     1     -21.410  39.445  -9.894  0.00  0.00    +0.000 HD
ATOM      9  H   UNL     1     -21.322  39.750  -8.191  0.00  0.00    +0.000 HD
ENDROOT
BRANCH   4  12
ATOM     10  O   UNL     1     -19.257  38.500 -11.469  0.00  0.00    +0.000 OA
ATOM     11  N   UNL     1     -20.132  40.236 -12.684  0.00  0.00    +0.000 N 
ATOM     12  C   UNL     1     -19.496  39.714 -11.565  0.00  0.00    +0.000 C 
ATOM     13  H   UNL     1     -20.340  41.226 -12.775  0.00  0.00    +0.000 HD
ATOM     14  H   UNL     1     -20.411  39.636 -13.454  0.00  0.00    +0.000 HD
ENDBRANCH   4  12
BRANCH   3  15
ATOM     15  C   UNL     1     -17.330  41.615 -11.956  0.00  0.00    +0.000 C 
BRANCH  15  18
ATOM     16  O   UNL     1     -18.910  43.046 -13.114  0.00  0.00    +0.000 OA
ATOM     17  N   UNL     1     -16.662  43.444 -13.381  0.00  0.00    +0.000 N 
ATOM     18  C   UNL     1     -17.742  42.759 -12.866  0.00  0.00    +0.000 C 
ATOM     19  H   UNL     1     -15.703  43.190 -13.168  0.00  0.00    +0.000 HD
ATOM     20  H   UNL     1     -16.795  44.234 -14.002  0.00  0.00    +0.000 HD
ENDBRANCH  15  18
ENDBRANCH   3  15
TORSDOF 3
ENDMDL
MODEL 4
REMARK VINA RESULT:    -5.261      2.049      4.746
REMARK INTER + INTRA:          -6.707
REMARK INTER:                  -6.156
REMARK INTRA:                  -0.551
REMARK UNBOUND:                -0.524
REMARK  Name = 123260746
REMARK  3 active torsions:
REMARK  status: ('A' for Active; 'I' for Inactive)
REMARK    1  A    between atoms: C_7  and  C_9
REMARK    2  A    between atoms: C_8  and  C_13
REMARK    3  A    between atoms: C_9  and  C_14
REMARK                            x       y       z     vdW  Elec       q    Type
REMARK                         _______ _______ _______ _____ _____    ______ ____
ROOT
ATOM      1  N   UNL     1     -18.700  44.815 -13.542  0.00  0.00    +0.000 NA
ATOM      2  N   UNL     1     -17.651  45.474 -11.524  0.00  0.00    +0.000 N 
ATOM      3  C   UNL     1     -18.229  42.129 -12.921  0.00  0.00    +0.000 A 
ATOM      4  C   UNL     1     -17.813  43.132 -12.051  0.00  0.00    +0.000 A 
ATOM      5  C   UNL     1     -18.881  42.469 -14.102  0.00  0.00    +0.000 A 
ATOM      6  C   UNL     1     -18.070  44.445 -12.405  0.00  0.00    +0.000 A 
ATOM      7  C   UNL     1     -19.090  43.813 -14.364  0.00  0.00    +0.000 A 
ATOM      8  H   UNL     1     -17.630  45.283 -10.529  0.00  0.00    +0.000 HD
ATOM      9  H   UNL     1     -17.848  46.425 -11.813  0.00  0.00    +0.000 HD
ENDROOT
BRANCH   4  12
ATOM     10  O   UNL     1     -17.747  42.671  -9.742  0.00  0.00    +0.000 OA
ATOM     11  N   UNL     1     -15.752  42.593 -10.868  0.00  0.00    +0.000 N 
ATOM     12  C   UNL     1     -17.126  42.793 -10.809  0.00  0.00    +0.000 C 
ATOM     13  H   UNL     1     -15.230  42.683 -11.735  0.00  0.00    +0.000 HD
ATOM     14  H   UNL     1     -15.223  42.350 -10.036  0.00  0.00    +0.000 HD
ENDBRANCH   4  12
BRANCH   3  15
ATOM     15  C   UNL     1     -17.991  40.687 -12.618  0.00  0.00    +0.000 C 
BRANCH  15  18
ATOM     16  O   UNL     1     -19.694  38.963 -12.741  0.00  0.00    +0.000 OA
ATOM     17  N   UNL     1     -19.792  40.486 -11.024  0.00  0.00    +0.000 N 
ATOM     18  C   UNL     1     -19.235  39.944 -12.162  0.00  0.00    +0.000 C 
ATOM     19  H   UNL     1     -19.402  41.301 -10.560  0.00  0.00    +0.000 HD
ATOM     20  H   UNL     1     -20.626  40.085 -10.610  0.00  0.00    +0.000 HD
ENDBRANCH  15  18
ENDBRANCH   3  15
TORSDOF 3
ENDMDL
MODEL 5
REMARK VINA RESULT:    -5.166      2.297      3.422
REMARK INTER + INTRA:          -6.596
REMARK INTER:                  -6.159
REMARK INTRA:                  -0.436
REMARK UNBOUND:                -0.524
REMARK  Name = 123260746
REMARK  3 active torsions:
REMARK  status: ('A' for Active; 'I' for Inactive)
REMARK    1  A    between atoms: C_7  and  C_9
REMARK    2  A    between atoms: C_8  and  C_13
REMARK    3  A    between atoms: C_9  and  C_14
REMARK                            x       y       z     vdW  Elec       q    Type
REMARK                         _______ _______ _______ _____ _____    ______ ____
ROOT
ATOM      1  N   UNL     1     -15.709  42.536 -11.550  0.00  0.00    +0.000 NA
ATOM      2  N   UNL     1     -16.071  40.199 -11.421  0.00  0.00    +0.000 N 
ATOM      3  C   UNL     1     -18.258  42.879 -12.647  0.00  0.00    +0.000 A 
ATOM      4  C   UNL     1     -17.808  41.607 -12.309  0.00  0.00    +0.000 A 
ATOM      5  C   UNL     1     -17.434  43.980 -12.436  0.00  0.00    +0.000 A 
ATOM      6  C   UNL     1     -16.538  41.491 -11.769  0.00  0.00    +0.000 A 
ATOM      7  C   UNL     1     -16.181  43.758 -11.891  0.00  0.00    +0.000 A 
ATOM      8  H   UNL     1     -16.743  39.506 -11.116  0.00  0.00    +0.000 HD
ATOM      9  H   UNL     1     -15.136  40.146 -11.033  0.00  0.00    +0.000 HD
ENDROOT
BRANCH   4  12
ATOM     10  O   UNL     1     -18.521  39.722 -13.527  0.00  0.00    +0.000 OA
ATOM     11  N   UNL     1     -19.615  40.155 -11.560  0.00  0.00    +0.000 N 
ATOM     12  C   UNL     1     -18.658  40.442 -12.526  0.00  0.00    +0.000 C 
ATOM     13  H   UNL     1     -19.736  40.731 -10.732  0.00  0.00    +0.000 HD
ATOM     14  H   UNL     1     -20.231  39.354 -11.656  0.00  0.00    +0.000 HD
ENDBRANCH   4  12
BRANCH   3  15
ATOM     15  C   UNL     1     -19.613  43.095 -13.235  0.00  0.00    +0.000 C 
BRANCH  15  18
ATOM     16  O   UNL     1     -19.645  42.317 -15.533  0.00  0.00    +0.000 OA
ATOM     17  N   UNL     1     -19.558  44.579 -15.137  0.00  0.00    +0.000 N 
ATOM     18  C   UNL     1     -19.607  43.258 -14.745  0.00  0.00    +0.000 C 
ATOM     19  H   UNL     1     -19.521  45.345 -14.472  0.00  0.00    +0.000 HD
ATOM     20  H   UNL     1     -19.550  44.830 -16.119  0.00  0.00    +0.000 HD
ENDBRANCH  15  18
ENDBRANCH   3  15
TORSDOF 3
ENDMDL
