MODEL 1
REMARK VINA RESULT:    -6.106      0.000      0.000
REMARK INTER + INTRA:          -9.018
REMARK INTER:                  -8.426
REMARK INTRA:                  -0.591
REMARK UNBOUND:                -0.591
REMARK  Name = 123302989
REMARK  9 active torsions:
REMARK  status: ('A' for Active; 'I' for Inactive)
REMARK    1  A    between atoms: N_2  and  C_8
REMARK    2  A    between atoms: N_3  and  C_9
REMARK    3  A    between atoms: N_4  and  C_12
REMARK    4  A    between atoms: N_6  and  C_17
REMARK    5  A    between atoms: C_7  and  C_8
REMARK    6  A    between atoms: C_7  and  C_9
REMARK    7  A    between atoms: C_10  and  C_11
REMARK    8  A    between atoms: C_12  and  C_14
REMARK    9  A    between atoms: C_12  and  C_15
REMARK                            x       y       z     vdW  Elec       q    Type
REMARK                         _______ _______ _______ _____ _____    ______ ____
ROOT
ATOM      1  N   UNL     1     -19.608  41.826 -13.992  0.00  0.00    +0.000 NA
ATOM      2  C   UNL     1     -18.482  41.933 -11.855  0.00  0.00    +0.000 A 
ATOM      3  C   UNL     1     -17.973  43.187 -12.178  0.00  0.00    +0.000 A 
ATOM      4  C   UNL     1     -19.287  41.301 -12.789  0.00  0.00    +0.000 A 
ATOM      5  C   UNL     1     -19.094  43.046 -14.271  0.00  0.00    +0.000 A 
ATOM      6  C   UNL     1     -18.280  43.760 -13.406  0.00  0.00    +0.000 A 
ENDROOT
BRANCH   2   9
ATOM      7  O   UNL     1     -17.190  40.561 -10.460  0.00  0.00    +0.000 OA
ATOM      8  N   UNL     1     -19.029  41.600  -9.500  0.00  0.00    +0.000 N 
ATOM      9  C   UNL     1     -18.172  41.293 -10.551  0.00  0.00    +0.000 C 
ATOM     10  H   UNL     1     -19.789  42.257  -9.632  0.00  0.00    +0.000 HD
BRANCH   8  11
ATOM     11  C   UNL     1     -18.846  41.080  -8.173  0.00  0.00    +0.000 C 
BRANCH  11  12
ATOM     12  C   UNL     1     -19.942  41.529  -7.211  0.00  0.00    +0.000 C 
BRANCH  12  13
ATOM     13  C   UNL     1     -21.344  41.278  -7.768  0.00  0.00    +0.000 C 
BRANCH  13  14
ATOM     14  N   UNL     1     -21.340  40.104  -8.634  0.00  0.00    +0.000 NA
ATOM     15  H   UNL     1     -20.679  40.243  -9.397  0.00  0.00    +0.000 HD
ATOM     16  H   UNL     1     -21.006  39.297  -8.110  0.00  0.00    +0.000 HD
ENDBRANCH  13  14
ENDBRANCH  12  13
ENDBRANCH  11  12
ENDBRANCH   8  11
ENDBRANCH   2   9
BRANCH   5  18
ATOM     17  N   UNL     1     -20.190  42.796 -16.129  0.00  0.00    +0.000 NA
ATOM     18  N   UNL     1     -19.432  43.582 -15.516  0.00  0.00    +0.000 NA
BRANCH  17  19
ATOM     19  C   UNL     1     -20.573  43.316 -17.441  0.00  0.00    +0.000 C 
ATOM     20  C   UNL     1     -19.382  44.039 -18.052  0.00  0.00    +0.000 C 
ATOM     21  C   UNL     1     -21.769  44.241 -17.275  0.00  0.00    +0.000 C 
ENDBRANCH  17  19
ENDBRANCH   5  18
TORSDOF 7
ENDMDL
MODEL 2
REMARK VINA RESULT:    -5.885      3.931      7.153
REMARK INTER + INTRA:          -8.712
REMARK INTER:                  -8.026
REMARK INTRA:                  -0.686
REMARK UNBOUND:                -0.591
REMARK  Name = 123302989
REMARK  9 active torsions:
REMARK  status: ('A' for Active; 'I' for Inactive)
REMARK    1  A    between atoms: N_2  and  C_8
REMARK    2  A    between atoms: N_3  and  C_9
REMARK    3  A    between atoms: N_4  and  C_12
REMARK    4  A    between atoms: N_6  and  C_17
REMARK    5  A    between atoms: C_7  and  C_8
REMARK    6  A    between atoms: C_7  and  C_9
REMARK    7  A    between atoms: C_10  and  C_11
REMARK    8  A    between atoms: C_12  and  C_14
REMARK    9  A    between atoms: C_12  and  C_15
REMARK                            x       y       z     vdW  Elec       q    Type
REMARK                         _______ _______ _______ _____ _____    ______ ____
ROOT
ATOM      1  N   UNL     1     -19.790  40.601 -10.408  0.00  0.00    +0.000 NA
ATOM      2  C   UNL     1     -17.749  41.778 -10.950  0.00  0.00    +0.000 A 
ATOM      3  C   UNL     1     -17.713  42.321  -9.670  0.00  0.00    +0.000 A 
ATOM      4  C   UNL     1     -18.799  40.931 -11.265  0.00  0.00    +0.000 A 
ATOM      5  C   UNL     1     -19.722  41.148  -9.173  0.00  0.00    +0.000 A 
ATOM      6  C   UNL     1     -18.715  42.005  -8.759  0.00  0.00    +0.000 A 
ENDROOT
BRANCH   2   9
ATOM      7  O   UNL     1     -16.723  41.548 -13.046  0.00  0.00    +0.000 OA
ATOM      8  N   UNL     1     -15.743  43.030 -11.554  0.00  0.00    +0.000 N 
ATOM      9  C   UNL     1     -16.694  42.095 -11.946  0.00  0.00    +0.000 C 
ATOM     10  H   UNL     1     -15.811  43.484 -10.651  0.00  0.00    +0.000 HD
BRANCH   8  11
ATOM     11  C   UNL     1     -14.675  43.459 -12.415  0.00  0.00    +0.000 C 
BRANCH  11  12
ATOM     12  C   UNL     1     -13.370  43.693 -11.659  0.00  0.00    +0.000 C 
BRANCH  12  13
ATOM     13  C   UNL     1     -12.531  42.421 -11.538  0.00  0.00    +0.000 C 
BRANCH  13  14
ATOM     14  N   UNL     1     -13.290  41.379 -10.855  0.00  0.00    +0.000 NA
ATOM     15  H   UNL     1     -12.651  40.680 -10.478  0.00  0.00    +0.000 HD
ATOM     16  H   UNL     1     -13.776  41.783 -10.056  0.00  0.00    +0.000 HD
ENDBRANCH  13  14
ENDBRANCH  12  13
ENDBRANCH  11  12
ENDBRANCH   8  11
ENDBRANCH   2   9
BRANCH   5  18
ATOM     17  N   UNL     1     -20.974  41.745  -7.501  0.00  0.00    +0.000 NA
ATOM     18  N   UNL     1     -20.750  40.801  -8.292  0.00  0.00    +0.000 NA
BRANCH  17  19
ATOM     19  C   UNL     1     -22.046  41.427  -6.559  0.00  0.00    +0.000 C 
ATOM     20  C   UNL     1     -23.269  40.967  -7.339  0.00  0.00    +0.000 C 
ATOM     21  C   UNL     1     -22.346  42.660  -5.718  0.00  0.00    +0.000 C 
ENDBRANCH  17  19
ENDBRANCH   5  18
TORSDOF 7
ENDMDL
MODEL 3
REMARK VINA RESULT:    -5.635      2.315      7.200
REMARK INTER + INTRA:          -8.367
REMARK INTER:                  -7.773
REMARK INTRA:                  -0.594
REMARK UNBOUND:                -0.591
REMARK  Name = 123302989
REMARK  9 active torsions:
REMARK  status: ('A' for Active; 'I' for Inactive)
REMARK    1  A    between atoms: N_2  and  C_8
REMARK    2  A    between atoms: N_3  and  C_9
REMARK    3  A    between atoms: N_4  and  C_12
REMARK    4  A    between atoms: N_6  and  C_17
REMARK    5  A    between atoms: C_7  and  C_8
REMARK    6  A    between atoms: C_7  and  C_9
REMARK    7  A    between atoms: C_10  and  C_11
REMARK    8  A    between atoms: C_12  and  C_14
REMARK    9  A    between atoms: C_12  and  C_15
REMARK                            x       y       z     vdW  Elec       q    Type
REMARK                         _______ _______ _______ _____ _____    ______ ____
ROOT
ATOM      1  N   UNL     1     -19.445  41.693 -13.471  0.00  0.00    +0.000 NA
ATOM      2  C   UNL     1     -18.928  43.912 -14.281  0.00  0.00    +0.000 A 
ATOM      3  C   UNL     1     -18.207  44.175 -13.121  0.00  0.00    +0.000 A 
ATOM      4  C   UNL     1     -19.522  42.666 -14.406  0.00  0.00    +0.000 A 
ATOM      5  C   UNL     1     -18.737  41.986 -12.356  0.00  0.00    +0.000 A 
ATOM      6  C   UNL     1     -18.105  43.200 -12.136  0.00  0.00    +0.000 A 
ENDROOT
BRANCH   2   9
ATOM      7  O   UNL     1     -18.143  45.737 -15.525  0.00  0.00    +0.000 OA
ATOM      8  N   UNL     1     -20.218  44.881 -16.111  0.00  0.00    +0.000 N 
ATOM      9  C   UNL     1     -19.055  44.933 -15.352  0.00  0.00    +0.000 C 
ATOM     10  H   UNL     1     -20.905  44.154 -15.950  0.00  0.00    +0.000 HD
BRANCH   8  11
ATOM     11  C   UNL     1     -20.475  45.786 -17.199  0.00  0.00    +0.000 C 
BRANCH  11  12
ATOM     12  C   UNL     1     -21.961  46.082 -17.377  0.00  0.00    +0.000 C 
BRANCH  12  13
ATOM     13  C   UNL     1     -22.801  44.807 -17.475  0.00  0.00    +0.000 C 
BRANCH  13  14
ATOM     14  N   UNL     1     -23.121  44.310 -16.142  0.00  0.00    +0.000 NA
ATOM     15  H   UNL     1     -22.651  43.420 -15.985  0.00  0.00    +0.000 HD
ATOM     16  H   UNL     1     -22.753  44.954 -15.443  0.00  0.00    +0.000 HD
ENDBRANCH  13  14
ENDBRANCH  12  13
ENDBRANCH  11  12
ENDBRANCH   8  11
ENDBRANCH   2   9
BRANCH   5  18
ATOM     17  N   UNL     1     -19.436  41.228 -10.445  0.00  0.00    +0.000 NA
ATOM     18  N   UNL     1     -18.662  40.974 -11.396  0.00  0.00    +0.000 NA
BRANCH  17  19
ATOM     19  C   UNL     1     -19.393  40.193  -9.413  0.00  0.00    +0.000 C 
ATOM     20  C   UNL     1     -20.796  39.985  -8.863  0.00  0.00    +0.000 C 
ATOM     21  C   UNL     1     -18.418  40.621  -8.325  0.00  0.00    +0.000 C 
ENDBRANCH  17  19
ENDBRANCH   5  18
TORSDOF 7
ENDMDL
MODEL 4
REMARK VINA RESULT:    -5.462      1.549      1.970
REMARK INTER + INTRA:          -8.129
REMARK INTER:                  -7.315
REMARK INTRA:                  -0.813
REMARK UNBOUND:                -0.591
REMARK  Name = 123302989
REMARK  9 active torsions:
REMARK  status: ('A' for Active; 'I' for Inactive)
REMARK    1  A    between atoms: N_2  and  C_8
REMARK    2  A    between atoms: N_3  and  C_9
REMARK    3  A    between atoms: N_4  and  C_12
REMARK    4  A    between atoms: N_6  and  C_17
REMARK    5  A    between atoms: C_7  and  C_8
REMARK    6  A    between atoms: C_7  and  C_9
REMARK    7  A    between atoms: C_10  and  C_11
REMARK    8  A    between atoms: C_12  and  C_14
REMARK    9  A    between atoms: C_12  and  C_15
REMARK                            x       y       z     vdW  Elec       q    Type
REMARK                         _______ _______ _______ _____ _____    ______ ____
ROOT
ATOM      1  N   UNL     1     -19.771  42.890 -15.079  0.00  0.00    +0.000 NA
ATOM      2  C   UNL     1     -18.715  42.771 -12.908  0.00  0.00    +0.000 A 
ATOM      3  C   UNL     1     -18.246  44.072 -13.057  0.00  0.00    +0.000 A 
ATOM      4  C   UNL     1     -19.467  42.231 -13.939  0.00  0.00    +0.000 A 
ATOM      5  C   UNL     1     -19.298  44.152 -15.189  0.00  0.00    +0.000 A 
ATOM      6  C   UNL     1     -18.538  44.781 -14.216  0.00  0.00    +0.000 A 
ENDROOT
BRANCH   2   9
ATOM      7  O   UNL     1     -17.485  42.327 -10.962  0.00  0.00    +0.000 OA
ATOM      8  N   UNL     1     -19.264  40.911 -11.426  0.00  0.00    +0.000 N 
ATOM      9  C   UNL     1     -18.420  41.986 -11.682  0.00  0.00    +0.000 C 
ATOM     10  H   UNL     1     -20.052  40.720 -12.034  0.00  0.00    +0.000 HD
BRANCH   8  11
ATOM     11  C   UNL     1     -19.122  40.072 -10.267  0.00  0.00    +0.000 C 
BRANCH  11  12
ATOM     12  C   UNL     1     -20.162  40.377  -9.193  0.00  0.00    +0.000 C 
BRANCH  12  13
ATOM     13  C   UNL     1     -19.539  40.990  -7.937  0.00  0.00    +0.000 C 
BRANCH  13  14
ATOM     14  N   UNL     1     -18.325  41.721  -8.282  0.00  0.00    +0.000 NA
ATOM     15  H   UNL     1     -17.515  41.248  -7.885  0.00  0.00    +0.000 HD
ATOM     16  H   UNL     1     -18.197  41.707  -9.292  0.00  0.00    +0.000 HD
ENDBRANCH  13  14
ENDBRANCH  12  13
ENDBRANCH  11  12
ENDBRANCH   8  11
ENDBRANCH   2   9
BRANCH   5  18
ATOM     17  N   UNL     1     -20.769  44.506 -16.746  0.00  0.00    +0.000 NA
ATOM     18  N   UNL     1     -19.618  44.825 -16.370  0.00  0.00    +0.000 NA
BRANCH  17  19
ATOM     19  C   UNL     1     -21.150  45.189 -17.982  0.00  0.00    +0.000 C 
ATOM     20  C   UNL     1     -21.218  44.169 -19.109  0.00  0.00    +0.000 C 
ATOM     21  C   UNL     1     -20.135  46.285 -18.273  0.00  0.00    +0.000 C 
ENDBRANCH  17  19
ENDBRANCH   5  18
TORSDOF 7
ENDMDL
MODEL 5
REMARK VINA RESULT:    -5.404      2.748      7.852
REMARK INTER + INTRA:          -8.049
REMARK INTER:                  -7.294
REMARK INTRA:                  -0.755
REMARK UNBOUND:                -0.591
REMARK  Name = 123302989
REMARK  9 active torsions:
REMARK  status: ('A' for Active; 'I' for Inactive)
REMARK    1  A    between atoms: N_2  and  C_8
REMARK    2  A    between atoms: N_3  and  C_9
REMARK    3  A    between atoms: N_4  and  C_12
REMARK    4  A    between atoms: N_6  and  C_17
REMARK    5  A    between atoms: C_7  and  C_8
REMARK    6  A    between atoms: C_7  and  C_9
REMARK    7  A    between atoms: C_10  and  C_11
REMARK    8  A    between atoms: C_12  and  C_14
REMARK    9  A    between atoms: C_12  and  C_15
REMARK                            x       y       z     vdW  Elec       q    Type
REMARK                         _______ _______ _______ _____ _____    ______ ____
ROOT
ATOM      1  N   UNL     1     -19.670  42.039 -13.832  0.00  0.00    +0.000 NA
ATOM      2  C   UNL     1     -19.423  43.951 -15.292  0.00  0.00    +0.000 A 
ATOM      3  C   UNL     1     -18.604  44.571 -14.353  0.00  0.00    +0.000 A 
ATOM      4  C   UNL     1     -19.925  42.696 -14.985  0.00  0.00    +0.000 A 
ATOM      5  C   UNL     1     -18.871  42.673 -12.944  0.00  0.00    +0.000 A 
ATOM      6  C   UNL     1     -18.319  43.927 -13.155  0.00  0.00    +0.000 A 
ENDROOT
BRANCH   2   9
ATOM      7  O   UNL     1     -20.906  44.950 -16.808  0.00  0.00    +0.000 OA
ATOM      8  N   UNL     1     -18.678  44.824 -17.446  0.00  0.00    +0.000 N 
ATOM      9  C   UNL     1     -19.747  44.612 -16.581  0.00  0.00    +0.000 C 
ATOM     10  H   UNL     1     -17.737  44.570 -17.171  0.00  0.00    +0.000 HD
BRANCH   8  11
ATOM     11  C   UNL     1     -18.828  45.474 -18.719  0.00  0.00    +0.000 C 
BRANCH  11  12
ATOM     12  C   UNL     1     -19.139  44.493 -19.845  0.00  0.00    +0.000 C 
BRANCH  12  13
ATOM     13  C   UNL     1     -20.558  44.664 -20.390  0.00  0.00    +0.000 C 
BRANCH  13  14
ATOM     14  N   UNL     1     -21.476  43.767 -19.696  0.00  0.00    +0.000 NA
ATOM     15  H   UNL     1     -21.046  43.437 -18.833  0.00  0.00    +0.000 HD
ATOM     16  H   UNL     1     -22.310  44.283 -19.421  0.00  0.00    +0.000 HD
ENDBRANCH  13  14
ENDBRANCH  12  13
ENDBRANCH  11  12
ENDBRANCH   8  11
ENDBRANCH   2   9
BRANCH   5  18
ATOM     17  N   UNL     1     -19.375  40.999 -11.656  0.00  0.00    +0.000 NA
ATOM     18  N   UNL     1     -18.612  41.986 -11.755  0.00  0.00    +0.000 NA
BRANCH  17  19
ATOM     19  C   UNL     1     -19.139  40.246 -10.425  0.00  0.00    +0.000 C 
ATOM     20  C   UNL     1     -20.192  40.635  -9.398  0.00  0.00    +0.000 C 
ATOM     21  C   UNL     1     -17.731  40.541  -9.928  0.00  0.00    +0.000 C 
ENDBRANCH  17  19
ENDBRANCH   5  18
TORSDOF 7
ENDMDL
