MODEL 1
REMARK VINA RESULT:    -6.116      0.000      0.000
REMARK INTER + INTRA:          -7.424
REMARK INTER:                  -7.188
REMARK INTRA:                  -0.236
REMARK UNBOUND:                -0.236
REMARK  Name = 123486589
REMARK  5 active torsions:
REMARK  status: ('A' for Active; 'I' for Inactive)
REMARK    1  A    between atoms: N_3  and  C_6
REMARK    2  A    between atoms: C_6  and  C_7
REMARK    3  A    between atoms: C_7  and  C_10
REMARK    4  A    between atoms: C_8  and  C_9
REMARK    5  A    between atoms: C_15  and  C_16
REMARK                            x       y       z     vdW  Elec       q    Type
REMARK                         _______ _______ _______ _____ _____    ______ ____
ROOT
ATOM      1  O   UNL     1     -21.441  42.255  -6.964  0.00  0.00    +0.000 OA
ATOM      2  N   UNL     1     -19.303  41.662  -8.711  0.00  0.00    +0.000 NA
ATOM      3  N   UNL     1     -21.376  40.533  -8.571  0.00  0.00    +0.000 N 
ATOM      4  C   UNL     1     -17.656  40.921 -10.317  0.00  0.00    +0.000 A 
ATOM      5  C   UNL     1     -18.515  39.917 -10.748  0.00  0.00    +0.000 A 
ATOM      6  C   UNL     1     -20.112  40.675  -9.156  0.00  0.00    +0.000 A 
ATOM      7  C   UNL     1     -18.093  41.760  -9.305  0.00  0.00    +0.000 A 
ATOM      8  C   UNL     1     -19.770  39.786 -10.161  0.00  0.00    +0.000 A 
ATOM      9  C   UNL     1     -21.943  41.301  -7.550  0.00  0.00    +0.000 C 
ATOM     10  C   UNL     1     -23.333  40.827  -7.204  0.00  0.00    +0.000 C 
ATOM     11  H   UNL     1     -21.947  39.775  -8.941  0.00  0.00    +0.000 HD
ENDROOT
BRANCH   4  14
ATOM     12  O   UNL     1     -15.756  40.119 -11.434  0.00  0.00    +0.000 OA
ATOM     13  N   UNL     1     -15.772  42.370 -10.875  0.00  0.00    +0.000 N 
ATOM     14  C   UNL     1     -16.308  41.088 -10.920  0.00  0.00    +0.000 C 
ATOM     15  H   UNL     1     -16.308  43.138 -10.485  0.00  0.00    +0.000 HD
BRANCH  13  16
ATOM     16  C   UNL     1     -14.491  42.697 -11.437  0.00  0.00    +0.000 C 
BRANCH  16  17
ATOM     17  C   UNL     1     -14.542  43.942 -12.315  0.00  0.00    +0.000 C 
ATOM     18  C   UNL     1     -15.793  44.000 -13.180  0.00  0.00    +0.000 C 
ENDBRANCH  16  17
ENDBRANCH  13  16
ENDBRANCH   4  14
TORSDOF 3
ENDMDL
MODEL 2
REMARK VINA RESULT:    -5.967      0.719      1.340
REMARK INTER + INTRA:          -7.249
REMARK INTER:                  -6.976
REMARK INTRA:                  -0.272
REMARK UNBOUND:                -0.236
REMARK  Name = 123486589
REMARK  5 active torsions:
REMARK  status: ('A' for Active; 'I' for Inactive)
REMARK    1  A    between atoms: N_3  and  C_6
REMARK    2  A    between atoms: C_6  and  C_7
REMARK    3  A    between atoms: C_7  and  C_10
REMARK    4  A    between atoms: C_8  and  C_9
REMARK    5  A    between atoms: C_15  and  C_16
REMARK                            x       y       z     vdW  Elec       q    Type
REMARK                         _______ _______ _______ _____ _____    ______ ____
ROOT
ATOM      1  O   UNL     1     -21.300  42.561  -6.887  0.00  0.00    +0.000 OA
ATOM      2  N   UNL     1     -19.227  41.858  -8.672  0.00  0.00    +0.000 NA
ATOM      3  N   UNL     1     -21.285  40.731  -8.371  0.00  0.00    +0.000 N 
ATOM      4  C   UNL     1     -17.639  41.014 -10.286  0.00  0.00    +0.000 A 
ATOM      5  C   UNL     1     -18.506  39.978 -10.611  0.00  0.00    +0.000 A 
ATOM      6  C   UNL     1     -20.046  40.838  -9.014  0.00  0.00    +0.000 A 
ATOM      7  C   UNL     1     -18.042  41.920  -9.319  0.00  0.00    +0.000 A 
ATOM      8  C   UNL     1     -19.736  39.882  -9.968  0.00  0.00    +0.000 A 
ATOM      9  C   UNL     1     -21.817  41.567  -7.385  0.00  0.00    +0.000 C 
ATOM     10  C   UNL     1     -23.188  41.111  -6.951  0.00  0.00    +0.000 C 
ATOM     11  H   UNL     1     -21.863  39.946  -8.664  0.00  0.00    +0.000 HD
ENDROOT
BRANCH   4  14
ATOM     12  O   UNL     1     -15.770  40.142 -11.403  0.00  0.00    +0.000 OA
ATOM     13  N   UNL     1     -15.799  42.432 -11.037  0.00  0.00    +0.000 N 
ATOM     14  C   UNL     1     -16.317  41.145 -10.952  0.00  0.00    +0.000 C 
ATOM     15  H   UNL     1     -16.332  43.224 -10.693  0.00  0.00    +0.000 HD
BRANCH  13  16
ATOM     16  C   UNL     1     -14.545  42.725 -11.674  0.00  0.00    +0.000 C 
BRANCH  16  17
ATOM     17  C   UNL     1     -13.413  42.905 -10.670  0.00  0.00    +0.000 C 
ATOM     18  C   UNL     1     -12.501  41.689 -10.588  0.00  0.00    +0.000 C 
ENDBRANCH  16  17
ENDBRANCH  13  16
ENDBRANCH   4  14
TORSDOF 3
ENDMDL
MODEL 3
REMARK VINA RESULT:    -5.942      2.587      6.671
REMARK INTER + INTRA:          -7.220
REMARK INTER:                  -7.064
REMARK INTRA:                  -0.155
REMARK UNBOUND:                -0.236
REMARK  Name = 123486589
REMARK  5 active torsions:
REMARK  status: ('A' for Active; 'I' for Inactive)
REMARK    1  A    between atoms: N_3  and  C_6
REMARK    2  A    between atoms: C_6  and  C_7
REMARK    3  A    between atoms: C_7  and  C_10
REMARK    4  A    between atoms: C_8  and  C_9
REMARK    5  A    between atoms: C_15  and  C_16
REMARK                            x       y       z     vdW  Elec       q    Type
REMARK                         _______ _______ _______ _____ _____    ______ ____
ROOT
ATOM      1  O   UNL     1     -15.705  45.647 -12.731  0.00  0.00    +0.000 OA
ATOM      2  N   UNL     1     -17.268  43.437 -11.927  0.00  0.00    +0.000 NA
ATOM      3  N   UNL     1     -17.051  44.300 -14.119  0.00  0.00    +0.000 N 
ATOM      4  C   UNL     1     -18.690  41.520 -11.544  0.00  0.00    +0.000 A 
ATOM      5  C   UNL     1     -19.008  41.476 -12.896  0.00  0.00    +0.000 A 
ATOM      6  C   UNL     1     -17.600  43.363 -13.235  0.00  0.00    +0.000 A 
ATOM      7  C   UNL     1     -17.823  42.511 -11.114  0.00  0.00    +0.000 A 
ATOM      8  C   UNL     1     -18.456  42.411 -13.766  0.00  0.00    +0.000 A 
ATOM      9  C   UNL     1     -16.170  45.346 -13.825  0.00  0.00    +0.000 C 
ATOM     10  C   UNL     1     -15.809  46.132 -15.061  0.00  0.00    +0.000 C 
ATOM     11  H   UNL     1     -17.333  44.202 -15.092  0.00  0.00    +0.000 HD
ENDROOT
BRANCH   4  14
ATOM     12  O   UNL     1     -18.936  39.357 -10.673  0.00  0.00    +0.000 OA
ATOM     13  N   UNL     1     -20.132  41.050  -9.632  0.00  0.00    +0.000 N 
ATOM     14  C   UNL     1     -19.264  40.537 -10.588  0.00  0.00    +0.000 C 
ATOM     15  H   UNL     1     -20.314  42.046  -9.583  0.00  0.00    +0.000 HD
BRANCH  13  16
ATOM     16  C   UNL     1     -20.748  40.232  -8.623  0.00  0.00    +0.000 C 
BRANCH  16  17
ATOM     17  C   UNL     1     -21.754  41.007  -7.782  0.00  0.00    +0.000 C 
ATOM     18  C   UNL     1     -21.091  41.859  -6.710  0.00  0.00    +0.000 C 
ENDBRANCH  16  17
ENDBRANCH  13  16
ENDBRANCH   4  14
TORSDOF 3
ENDMDL
MODEL 4
REMARK VINA RESULT:    -5.303      5.806      7.390
REMARK INTER + INTRA:          -6.469
REMARK INTER:                  -6.286
REMARK INTRA:                  -0.183
REMARK UNBOUND:                -0.236
REMARK  Name = 123486589
REMARK  5 active torsions:
REMARK  status: ('A' for Active; 'I' for Inactive)
REMARK    1  A    between atoms: N_3  and  C_6
REMARK    2  A    between atoms: C_6  and  C_7
REMARK    3  A    between atoms: C_7  and  C_10
REMARK    4  A    between atoms: C_8  and  C_9
REMARK    5  A    between atoms: C_15  and  C_16
REMARK                            x       y       z     vdW  Elec       q    Type
REMARK                         _______ _______ _______ _____ _____    ______ ____
ROOT
ATOM      1  O   UNL     1     -19.655  39.984 -12.750  0.00  0.00    +0.000 OA
ATOM      2  N   UNL     1     -19.654  42.313 -14.346  0.00  0.00    +0.000 NA
ATOM      3  N   UNL     1     -18.358  41.922 -12.406  0.00  0.00    +0.000 N 
ATOM      4  C   UNL     1     -19.438  44.420 -15.510  0.00  0.00    +0.000 A 
ATOM      5  C   UNL     1     -18.493  44.845 -14.583  0.00  0.00    +0.000 A 
ATOM      6  C   UNL     1     -18.732  42.759 -13.464  0.00  0.00    +0.000 A 
ATOM      7  C   UNL     1     -19.983  43.157 -15.349  0.00  0.00    +0.000 A 
ATOM      8  C   UNL     1     -18.127  44.003 -13.537  0.00  0.00    +0.000 A 
ATOM      9  C   UNL     1     -18.824  40.634 -12.124  0.00  0.00    +0.000 C 
ATOM     10  C   UNL     1     -18.166  40.064 -10.891  0.00  0.00    +0.000 C 
ATOM     11  H   UNL     1     -17.662  42.304 -11.770  0.00  0.00    +0.000 HD
ENDROOT
BRANCH   4  14
ATOM     12  O   UNL     1     -18.995  45.901 -17.273  0.00  0.00    +0.000 OA
ATOM     13  N   UNL     1     -21.215  45.339 -16.908  0.00  0.00    +0.000 N 
ATOM     14  C   UNL     1     -19.853  45.294 -16.638  0.00  0.00    +0.000 C 
ATOM     15  H   UNL     1     -21.864  44.766 -16.379  0.00  0.00    +0.000 HD
BRANCH  13  16
ATOM     16  C   UNL     1     -21.769  46.118 -17.982  0.00  0.00    +0.000 C 
BRANCH  16  17
ATOM     17  C   UNL     1     -23.221  46.504 -17.729  0.00  0.00    +0.000 C 
ATOM     18  C   UNL     1     -24.076  45.323 -17.291  0.00  0.00    +0.000 C 
ENDBRANCH  16  17
ENDBRANCH  13  16
ENDBRANCH   4  14
TORSDOF 3
ENDMDL
MODEL 5
REMARK VINA RESULT:    -4.998      2.638      3.374
REMARK INTER + INTRA:          -6.110
REMARK INTER:                  -5.883
REMARK INTRA:                  -0.228
REMARK UNBOUND:                -0.236
REMARK  Name = 123486589
REMARK  5 active torsions:
REMARK  status: ('A' for Active; 'I' for Inactive)
REMARK    1  A    between atoms: N_3  and  C_6
REMARK    2  A    between atoms: C_6  and  C_7
REMARK    3  A    between atoms: C_7  and  C_10
REMARK    4  A    between atoms: C_8  and  C_9
REMARK    5  A    between atoms: C_15  and  C_16
REMARK                            x       y       z     vdW  Elec       q    Type
REMARK                         _______ _______ _______ _____ _____    ______ ____
ROOT
ATOM      1  O   UNL     1     -19.348  41.243  -8.102  0.00  0.00    +0.000 OA
ATOM      2  N   UNL     1     -18.063  42.336 -10.367  0.00  0.00    +0.000 NA
ATOM      3  N   UNL     1     -19.751  40.679 -10.354  0.00  0.00    +0.000 N 
ATOM      4  C   UNL     1     -17.147  43.078 -12.477  0.00  0.00    +0.000 A 
ATOM      5  C   UNL     1     -17.986  42.203 -13.158  0.00  0.00    +0.000 A 
ATOM      6  C   UNL     1     -18.864  41.498 -11.063  0.00  0.00    +0.000 A 
ATOM      7  C   UNL     1     -17.224  43.107 -11.095  0.00  0.00    +0.000 A 
ATOM      8  C   UNL     1     -18.865  41.395 -12.444  0.00  0.00    +0.000 A 
ATOM      9  C   UNL     1     -19.933  40.604  -8.970  0.00  0.00    +0.000 C 
ATOM     10  C   UNL     1     -20.992  39.594  -8.603  0.00  0.00    +0.000 C 
ATOM     11  H   UNL     1     -20.331  40.066 -10.924  0.00  0.00    +0.000 HD
ENDROOT
BRANCH   4  14
ATOM     12  O   UNL     1     -14.990  43.817 -13.022  0.00  0.00    +0.000 OA
ATOM     13  N   UNL     1     -16.760  44.869 -14.090  0.00  0.00    +0.000 N 
ATOM     14  C   UNL     1     -16.196  43.954 -13.209  0.00  0.00    +0.000 C 
ATOM     15  H   UNL     1     -17.763  44.890 -14.238  0.00  0.00    +0.000 HD
BRANCH  13  16
ATOM     16  C   UNL     1     -15.972  45.768 -14.887  0.00  0.00    +0.000 C 
BRANCH  16  17
ATOM     17  C   UNL     1     -16.524  47.188 -14.879  0.00  0.00    +0.000 C 
ATOM     18  C   UNL     1     -17.808  47.315 -14.072  0.00  0.00    +0.000 C 
ENDBRANCH  16  17
ENDBRANCH  13  16
ENDBRANCH   4  14
TORSDOF 3
ENDMDL
