MODEL 1
REMARK VINA RESULT:    -6.452      0.000      0.000
REMARK INTER + INTRA:          -8.508
REMARK INTER:                  -7.960
REMARK INTRA:                  -0.548
REMARK UNBOUND:                -0.548
REMARK  Name = 123621053
REMARK  5 active torsions:
REMARK  status: ('A' for Active; 'I' for Inactive)
REMARK    1  A    between atoms: N_3  and  C_9
REMARK    2  A    between atoms: C_6  and  C_7
REMARK    3  A    between atoms: C_6  and  C_8
REMARK    4  A    between atoms: C_7  and  C_10
REMARK    5  A    between atoms: C_11  and  C_14
REMARK                            x       y       z     vdW  Elec       q    Type
REMARK                         _______ _______ _______ _____ _____    ______ ____
ROOT
ATOM      1  N   UNL     1     -18.509  42.206  -8.223  0.00  0.00    +0.000 NA
ATOM      2  C   UNL     1     -18.410  41.551  -9.401  0.00  0.00    +0.000 A 
ATOM      3  C   UNL     1     -19.354  40.654  -9.872  0.00  0.00    +0.000 A 
ATOM      4  C   UNL     1     -20.473  40.413  -9.083  0.00  0.00    +0.000 A 
ATOM      5  C   UNL     1     -20.612  41.068  -7.864  0.00  0.00    +0.000 A 
ATOM      6  C   UNL     1     -19.610  41.947  -7.483  0.00  0.00    +0.000 A 
ENDROOT
BRANCH   3   9
ATOM      7  O   UNL     1     -18.463  38.987 -11.277  0.00  0.00    +0.000 OA
ATOM      8  N   UNL     1     -19.983  40.426 -12.214  0.00  0.00    +0.000 N 
ATOM      9  C   UNL     1     -19.220  39.965 -11.148  0.00  0.00    +0.000 C 
ATOM     10  H   UNL     1     -20.611  41.218 -12.125  0.00  0.00    +0.000 HD
ATOM     11  H   UNL     1     -19.933  39.978 -13.124  0.00  0.00    +0.000 HD
ENDBRANCH   3   9
BRANCH   2  13
ATOM     12  O   UNL     1     -17.802  43.824 -11.265  0.00  0.00    +0.000 OA
ATOM     13  N   UNL     1     -17.265  41.805 -10.194  0.00  0.00    +0.000 N 
ATOM     14  C   UNL     1     -17.044  42.886 -11.043  0.00  0.00    +0.000 C 
ATOM     15  H   UNL     1     -16.521  41.114 -10.135  0.00  0.00    +0.000 HD
BRANCH  14  16
ATOM     16  C   UNL     1     -15.691  42.756 -11.733  0.00  0.00    +0.000 C 
BRANCH  16  17
ATOM     17  C   UNL     1     -15.389  43.882 -12.719  0.00  0.00    +0.000 C 
ATOM     18  C   UNL     1     -14.689  45.063 -12.060  0.00  0.00    +0.000 C 
ENDBRANCH  16  17
ENDBRANCH  14  16
ENDBRANCH   2  13
TORSDOF 4
ENDMDL
MODEL 2
REMARK VINA RESULT:    -5.643      1.834      5.081
REMARK INTER + INTRA:          -7.511
REMARK INTER:                  -6.930
REMARK INTRA:                  -0.580
REMARK UNBOUND:                -0.548
REMARK  Name = 123621053
REMARK  5 active torsions:
REMARK  status: ('A' for Active; 'I' for Inactive)
REMARK    1  A    between atoms: N_3  and  C_9
REMARK    2  A    between atoms: C_6  and  C_7
REMARK    3  A    between atoms: C_6  and  C_8
REMARK    4  A    between atoms: C_7  and  C_10
REMARK    5  A    between atoms: C_11  and  C_14
REMARK                            x       y       z     vdW  Elec       q    Type
REMARK                         _______ _______ _______ _____ _____    ______ ____
ROOT
ATOM      1  N   UNL     1     -16.298  42.711 -10.900  0.00  0.00    +0.000 NA
ATOM      2  C   UNL     1     -17.515  42.494 -11.447  0.00  0.00    +0.000 A 
ATOM      3  C   UNL     1     -17.878  42.902 -12.720  0.00  0.00    +0.000 A 
ATOM      4  C   UNL     1     -16.931  43.577 -13.482  0.00  0.00    +0.000 A 
ATOM      5  C   UNL     1     -15.666  43.819 -12.954  0.00  0.00    +0.000 A 
ATOM      6  C   UNL     1     -15.402  43.370 -11.670  0.00  0.00    +0.000 A 
ENDROOT
BRANCH   3   9
ATOM      7  O   UNL     1     -19.639  41.496 -13.403  0.00  0.00    +0.000 OA
ATOM      8  N   UNL     1     -19.958  43.753 -13.661  0.00  0.00    +0.000 N 
ATOM      9  C   UNL     1     -19.198  42.652 -13.282  0.00  0.00    +0.000 C 
ATOM     10  H   UNL     1     -19.616  44.704 -13.562  0.00  0.00    +0.000 HD
ATOM     11  H   UNL     1     -20.887  43.636 -14.052  0.00  0.00    +0.000 HD
ENDBRANCH   3   9
BRANCH   2  13
ATOM     12  O   UNL     1     -17.801  39.564 -10.856  0.00  0.00    +0.000 OA
ATOM     13  N   UNL     1     -18.471  41.807 -10.660  0.00  0.00    +0.000 N 
ATOM     14  C   UNL     1     -18.548  40.437 -10.425  0.00  0.00    +0.000 C 
ATOM     15  H   UNL     1     -19.181  42.384 -10.219  0.00  0.00    +0.000 HD
BRANCH  14  16
ATOM     16  C   UNL     1     -19.749  40.112  -9.545  0.00  0.00    +0.000 C 
BRANCH  16  17
ATOM     17  C   UNL     1     -19.777  40.884  -8.227  0.00  0.00    +0.000 C 
ATOM     18  C   UNL     1     -21.185  41.306  -7.828  0.00  0.00    +0.000 C 
ENDBRANCH  16  17
ENDBRANCH  14  16
ENDBRANCH   2  13
TORSDOF 4
ENDMDL
MODEL 3
REMARK VINA RESULT:    -5.587      2.737      5.742
REMARK INTER + INTRA:          -7.442
REMARK INTER:                  -6.834
REMARK INTRA:                  -0.608
REMARK UNBOUND:                -0.548
REMARK  Name = 123621053
REMARK  5 active torsions:
REMARK  status: ('A' for Active; 'I' for Inactive)
REMARK    1  A    between atoms: N_3  and  C_9
REMARK    2  A    between atoms: C_6  and  C_7
REMARK    3  A    between atoms: C_6  and  C_8
REMARK    4  A    between atoms: C_7  and  C_10
REMARK    5  A    between atoms: C_11  and  C_14
REMARK                            x       y       z     vdW  Elec       q    Type
REMARK                         _______ _______ _______ _____ _____    ______ ____
ROOT
ATOM      1  N   UNL     1     -20.040  42.355 -14.473  0.00  0.00    +0.000 NA
ATOM      2  C   UNL     1     -19.291  42.548 -13.365  0.00  0.00    +0.000 A 
ATOM      3  C   UNL     1     -18.468  43.645 -13.165  0.00  0.00    +0.000 A 
ATOM      4  C   UNL     1     -18.410  44.606 -14.168  0.00  0.00    +0.000 A 
ATOM      5  C   UNL     1     -19.167  44.443 -15.324  0.00  0.00    +0.000 A 
ATOM      6  C   UNL     1     -19.958  43.310 -15.427  0.00  0.00    +0.000 A 
ENDROOT
BRANCH   3   9
ATOM      7  O   UNL     1     -16.987  42.900 -11.492  0.00  0.00    +0.000 OA
ATOM      8  N   UNL     1     -17.696  45.077 -11.352  0.00  0.00    +0.000 N 
ATOM      9  C   UNL     1     -17.674  43.825 -11.957  0.00  0.00    +0.000 C 
ATOM     10  H   UNL     1     -18.247  45.845 -11.721  0.00  0.00    +0.000 HD
ATOM     11  H   UNL     1     -17.156  45.259 -10.512  0.00  0.00    +0.000 HD
ENDBRANCH   3   9
BRANCH   2  13
ATOM     12  O   UNL     1     -18.519  39.648 -13.423  0.00  0.00    +0.000 OA
ATOM     13  N   UNL     1     -19.359  41.561 -12.351  0.00  0.00    +0.000 N 
ATOM     14  C   UNL     1     -18.982  40.224 -12.444  0.00  0.00    +0.000 C 
ATOM     15  H   UNL     1     -19.727  41.869 -11.455  0.00  0.00    +0.000 HD
BRANCH  14  16
ATOM     16  C   UNL     1     -19.248  39.502 -11.129  0.00  0.00    +0.000 C 
BRANCH  16  17
ATOM     17  C   UNL     1     -19.264  40.421  -9.910  0.00  0.00    +0.000 C 
ATOM     18  C   UNL     1     -20.394  40.089  -8.944  0.00  0.00    +0.000 C 
ENDBRANCH  16  17
ENDBRANCH  14  16
ENDBRANCH   2  13
TORSDOF 4
ENDMDL
MODEL 4
REMARK VINA RESULT:    -5.582      2.206      5.461
REMARK INTER + INTRA:          -7.436
REMARK INTER:                  -7.049
REMARK INTRA:                  -0.386
REMARK UNBOUND:                -0.548
REMARK  Name = 123621053
REMARK  5 active torsions:
REMARK  status: ('A' for Active; 'I' for Inactive)
REMARK    1  A    between atoms: N_3  and  C_9
REMARK    2  A    between atoms: C_6  and  C_7
REMARK    3  A    between atoms: C_6  and  C_8
REMARK    4  A    between atoms: C_7  and  C_10
REMARK    5  A    between atoms: C_11  and  C_14
REMARK                            x       y       z     vdW  Elec       q    Type
REMARK                         _______ _______ _______ _____ _____    ______ ____
ROOT
ATOM      1  N   UNL     1     -19.261  39.644 -11.718  0.00  0.00    +0.000 NA
ATOM      2  C   UNL     1     -19.088  40.770 -10.990  0.00  0.00    +0.000 A 
ATOM      3  C   UNL     1     -18.008  41.627 -11.132  0.00  0.00    +0.000 A 
ATOM      4  C   UNL     1     -17.044  41.308 -12.082  0.00  0.00    +0.000 A 
ATOM      5  C   UNL     1     -17.188  40.158 -12.851  0.00  0.00    +0.000 A 
ATOM      6  C   UNL     1     -18.305  39.367 -12.632  0.00  0.00    +0.000 A 
ENDROOT
BRANCH   3   9
ATOM      7  O   UNL     1     -17.884  42.797  -9.091  0.00  0.00    +0.000 OA
ATOM      8  N   UNL     1     -17.638  44.032 -11.008  0.00  0.00    +0.000 N 
ATOM      9  C   UNL     1     -17.850  42.834 -10.333  0.00  0.00    +0.000 C 
ATOM     10  H   UNL     1     -17.600  44.080 -12.021  0.00  0.00    +0.000 HD
ATOM     11  H   UNL     1     -17.515  44.902 -10.501  0.00  0.00    +0.000 HD
ENDBRANCH   3   9
BRANCH   2  13
ATOM     12  O   UNL     1     -19.349  39.907  -8.127  0.00  0.00    +0.000 OA
ATOM     13  N   UNL     1     -20.076  41.083 -10.025  0.00  0.00    +0.000 N 
ATOM     14  C   UNL     1     -20.139  40.647  -8.705  0.00  0.00    +0.000 C 
ATOM     15  H   UNL     1     -20.824  41.696 -10.338  0.00  0.00    +0.000 HD
BRANCH  14  16
ATOM     16  C   UNL     1     -21.385  41.195  -8.020  0.00  0.00    +0.000 C 
BRANCH  16  17
ATOM     17  C   UNL     1     -21.102  41.909  -6.700  0.00  0.00    +0.000 C 
ATOM     18  C   UNL     1     -22.309  42.680  -6.183  0.00  0.00    +0.000 C 
ENDBRANCH  16  17
ENDBRANCH  14  16
ENDBRANCH   2  13
TORSDOF 4
ENDMDL
MODEL 5
REMARK VINA RESULT:    -4.985      3.831      5.308
REMARK INTER + INTRA:          -6.699
REMARK INTER:                  -6.370
REMARK INTRA:                  -0.329
REMARK UNBOUND:                -0.548
REMARK  Name = 123621053
REMARK  5 active torsions:
REMARK  status: ('A' for Active; 'I' for Inactive)
REMARK    1  A    between atoms: N_3  and  C_9
REMARK    2  A    between atoms: C_6  and  C_7
REMARK    3  A    between atoms: C_6  and  C_8
REMARK    4  A    between atoms: C_7  and  C_10
REMARK    5  A    between atoms: C_11  and  C_14
REMARK                            x       y       z     vdW  Elec       q    Type
REMARK                         _______ _______ _______ _____ _____    ______ ____
ROOT
ATOM      1  N   UNL     1     -18.966  40.541 -13.286  0.00  0.00    +0.000 NA
ATOM      2  C   UNL     1     -18.221  41.669 -13.287  0.00  0.00    +0.000 A 
ATOM      3  C   UNL     1     -17.229  41.944 -12.360  0.00  0.00    +0.000 A 
ATOM      4  C   UNL     1     -16.985  41.001 -11.369  0.00  0.00    +0.000 A 
ATOM      5  C   UNL     1     -17.732  39.827 -11.334  0.00  0.00    +0.000 A 
ATOM      6  C   UNL     1     -18.702  39.647 -12.308  0.00  0.00    +0.000 A 
ENDROOT
BRANCH   3   9
ATOM      7  O   UNL     1     -16.975  44.284 -12.256  0.00  0.00    +0.000 OA
ATOM      8  N   UNL     1     -15.065  43.048 -12.550  0.00  0.00    +0.000 N 
ATOM      9  C   UNL     1     -16.441  43.169 -12.389  0.00  0.00    +0.000 C 
ATOM     10  H   UNL     1     -14.612  42.145 -12.653  0.00  0.00    +0.000 HD
ATOM     11  H   UNL     1     -14.468  43.868 -12.570  0.00  0.00    +0.000 HD
ENDBRANCH   3   9
BRANCH   2  13
ATOM     12  O   UNL     1     -20.823  42.593 -14.467  0.00  0.00    +0.000 OA
ATOM     13  N   UNL     1     -18.480  42.622 -14.302  0.00  0.00    +0.000 N 
ATOM     14  C   UNL     1     -19.719  43.007 -14.807  0.00  0.00    +0.000 C 
ATOM     15  H   UNL     1     -17.664  43.073 -14.707  0.00  0.00    +0.000 HD
BRANCH  14  16
ATOM     16  C   UNL     1     -19.547  44.040 -15.914  0.00  0.00    +0.000 C 
BRANCH  16  17
ATOM     17  C   UNL     1     -20.110  43.600 -17.264  0.00  0.00    +0.000 C 
ATOM     18  C   UNL     1     -21.523  44.114 -17.503  0.00  0.00    +0.000 C 
ENDBRANCH  16  17
ENDBRANCH  14  16
ENDBRANCH   2  13
TORSDOF 4
ENDMDL
