MODEL 1
REMARK VINA RESULT:    -6.184      0.000      0.000
REMARK INTER + INTRA:          -7.611
REMARK INTER:                  -7.269
REMARK INTRA:                  -0.342
REMARK UNBOUND:                -0.342
REMARK  Name = 123650531
REMARK  4 active torsions:
REMARK  status: ('A' for Active; 'I' for Inactive)
REMARK    1  A    between atoms: N_3  and  C_15
REMARK    2  A    between atoms: C_7  and  C_9
REMARK    3  A    between atoms: C_8  and  C_13
REMARK    4  A    between atoms: C_9  and  C_14
REMARK                            x       y       z     vdW  Elec       q    Type
REMARK                         _______ _______ _______ _____ _____    ______ ____
ROOT
ATOM      1  N   UNL     1     -19.410  42.405 -14.689  0.00  0.00    +0.000 N 
ATOM      2  N   UNL     1     -18.567  44.099 -13.263  0.00  0.00    +0.000 NA
ATOM      3  C   UNL     1     -17.891  42.172 -11.355  0.00  0.00    +0.000 A 
ATOM      4  C   UNL     1     -18.486  41.789 -12.552  0.00  0.00    +0.000 A 
ATOM      5  C   UNL     1     -18.802  42.784 -13.465  0.00  0.00    +0.000 A 
ATOM      6  C   UNL     1     -17.632  43.515 -11.112  0.00  0.00    +0.000 A 
ATOM      7  C   UNL     1     -17.986  44.432 -12.088  0.00  0.00    +0.000 A 
ATOM      8  C   UNL     1     -19.773  43.351 -15.693  0.00  0.00    +0.000 C 
ATOM      9  H   UNL     1     -19.312  41.437 -14.974  0.00  0.00    +0.000 HD
ENDROOT
BRANCH   4  12
ATOM     10  O   UNL     1     -17.942  39.663 -13.405  0.00  0.00    +0.000 OA
ATOM     11  N   UNL     1     -19.987  39.878 -12.390  0.00  0.00    +0.000 N 
ATOM     12  C   UNL     1     -18.768  40.384 -12.823  0.00  0.00    +0.000 C 
ATOM     13  H   UNL     1     -20.670  40.454 -11.907  0.00  0.00    +0.000 HD
ATOM     14  H   UNL     1     -20.233  38.906 -12.547  0.00  0.00    +0.000 HD
ENDBRANCH   4  12
BRANCH   3  15
ATOM     15  C   UNL     1     -17.518  41.165 -10.317  0.00  0.00    +0.000 C 
BRANCH  15  18
ATOM     16  O   UNL     1     -18.419  42.123  -8.277  0.00  0.00    +0.000 OA
ATOM     17  N   UNL     1     -19.206  40.080  -8.977  0.00  0.00    +0.000 N 
ATOM     18  C   UNL     1     -18.407  41.198  -9.086  0.00  0.00    +0.000 C 
ATOM     19  H   UNL     1     -19.180  39.323  -9.652  0.00  0.00    +0.000 HD
ATOM     20  H   UNL     1     -19.851  39.974  -8.201  0.00  0.00    +0.000 HD
ENDBRANCH  15  18
ENDBRANCH   3  15
TORSDOF 3
ENDMDL
MODEL 2
REMARK VINA RESULT:    -6.105      1.788      2.228
REMARK INTER + INTRA:          -7.519
REMARK INTER:                  -7.148
REMARK INTRA:                  -0.371
REMARK UNBOUND:                -0.342
REMARK  Name = 123650531
REMARK  4 active torsions:
REMARK  status: ('A' for Active; 'I' for Inactive)
REMARK    1  A    between atoms: N_3  and  C_15
REMARK    2  A    between atoms: C_7  and  C_9
REMARK    3  A    between atoms: C_8  and  C_13
REMARK    4  A    between atoms: C_9  and  C_14
REMARK                            x       y       z     vdW  Elec       q    Type
REMARK                         _______ _______ _______ _____ _____    ______ ____
ROOT
ATOM      1  N   UNL     1     -20.088  42.401 -14.525  0.00  0.00    +0.000 N 
ATOM      2  N   UNL     1     -18.375  43.958 -14.027  0.00  0.00    +0.000 NA
ATOM      3  C   UNL     1     -17.454  42.304 -11.970  0.00  0.00    +0.000 A 
ATOM      4  C   UNL     1     -18.553  41.923 -12.734  0.00  0.00    +0.000 A 
ATOM      5  C   UNL     1     -18.970  42.779 -13.741  0.00  0.00    +0.000 A 
ATOM      6  C   UNL     1     -16.815  43.510 -12.235  0.00  0.00    +0.000 A 
ATOM      7  C   UNL     1     -17.310  44.294 -13.264  0.00  0.00    +0.000 A 
ATOM      8  C   UNL     1     -20.595  43.210 -15.585  0.00  0.00    +0.000 C 
ATOM      9  H   UNL     1     -20.341  41.419 -14.527  0.00  0.00    +0.000 HD
ENDROOT
BRANCH   4  12
ATOM     10  O   UNL     1     -19.121  39.694 -13.235  0.00  0.00    +0.000 OA
ATOM     11  N   UNL     1     -20.009  40.581 -11.316  0.00  0.00    +0.000 N 
ATOM     12  C   UNL     1     -19.237  40.662 -12.468  0.00  0.00    +0.000 C 
ATOM     13  H   UNL     1     -20.109  41.364 -10.676  0.00  0.00    +0.000 HD
ATOM     14  H   UNL     1     -20.504  39.727 -11.078  0.00  0.00    +0.000 HD
ENDBRANCH   4  12
BRANCH   3  15
ATOM     15  C   UNL     1     -16.939  41.441 -10.865  0.00  0.00    +0.000 C 
BRANCH  15  18
ATOM     16  O   UNL     1     -16.079  39.394 -11.846  0.00  0.00    +0.000 OA
ATOM     17  N   UNL     1     -14.585  40.936 -11.026  0.00  0.00    +0.000 N 
ATOM     18  C   UNL     1     -15.854  40.472 -11.302  0.00  0.00    +0.000 C 
ATOM     19  H   UNL     1     -14.417  41.828 -10.572  0.00  0.00    +0.000 HD
ATOM     20  H   UNL     1     -13.766  40.388 -11.268  0.00  0.00    +0.000 HD
ENDBRANCH  15  18
ENDBRANCH   3  15
TORSDOF 3
ENDMDL
MODEL 3
REMARK VINA RESULT:    -5.637      2.952      4.480
REMARK INTER + INTRA:          -6.968
REMARK INTER:                  -6.436
REMARK INTRA:                  -0.532
REMARK UNBOUND:                -0.342
REMARK  Name = 123650531
REMARK  4 active torsions:
REMARK  status: ('A' for Active; 'I' for Inactive)
REMARK    1  A    between atoms: N_3  and  C_15
REMARK    2  A    between atoms: C_7  and  C_9
REMARK    3  A    between atoms: C_8  and  C_13
REMARK    4  A    between atoms: C_9  and  C_14
REMARK                            x       y       z     vdW  Elec       q    Type
REMARK                         _______ _______ _______ _____ _____    ______ ____
ROOT
ATOM      1  N   UNL     1     -13.906  41.311 -10.868  0.00  0.00    +0.000 N 
ATOM      2  N   UNL     1     -14.284  43.451 -11.811  0.00  0.00    +0.000 NA
ATOM      3  C   UNL     1     -17.014  42.889 -12.019  0.00  0.00    +0.000 A 
ATOM      4  C   UNL     1     -16.145  41.941 -11.488  0.00  0.00    +0.000 A 
ATOM      5  C   UNL     1     -14.800  42.270 -11.407  0.00  0.00    +0.000 A 
ATOM      6  C   UNL     1     -16.520  44.116 -12.444  0.00  0.00    +0.000 A 
ATOM      7  C   UNL     1     -15.160  44.346 -12.321  0.00  0.00    +0.000 A 
ATOM      8  C   UNL     1     -12.505  41.551 -10.741  0.00  0.00    +0.000 C 
ATOM      9  H   UNL     1     -14.305  40.574 -10.297  0.00  0.00    +0.000 HD
ENDROOT
BRANCH   4  12
ATOM     10  O   UNL     1     -16.521  39.631 -11.740  0.00  0.00    +0.000 OA
ATOM     11  N   UNL     1     -17.250  40.591  -9.790  0.00  0.00    +0.000 N 
ATOM     12  C   UNL     1     -16.645  40.647 -11.039  0.00  0.00    +0.000 C 
ATOM     13  H   UNL     1     -17.353  41.413  -9.202  0.00  0.00    +0.000 HD
ATOM     14  H   UNL     1     -17.612  39.716  -9.424  0.00  0.00    +0.000 HD
ENDBRANCH   4  12
BRANCH   3  15
ATOM     15  C   UNL     1     -18.478  42.617 -12.143  0.00  0.00    +0.000 C 
BRANCH  15  18
ATOM     16  O   UNL     1     -19.041  42.655 -14.503  0.00  0.00    +0.000 OA
ATOM     17  N   UNL     1     -19.023  40.635 -13.407  0.00  0.00    +0.000 N 
ATOM     18  C   UNL     1     -18.875  42.004 -13.475  0.00  0.00    +0.000 C 
ATOM     19  H   UNL     1     -18.885  40.114 -12.547  0.00  0.00    +0.000 HD
ATOM     20  H   UNL     1     -19.284  40.098 -14.227  0.00  0.00    +0.000 HD
ENDBRANCH  15  18
ENDBRANCH   3  15
TORSDOF 3
ENDMDL
MODEL 4
REMARK VINA RESULT:    -5.348      2.680      3.780
REMARK INTER + INTRA:          -6.629
REMARK INTER:                  -6.050
REMARK INTRA:                  -0.579
REMARK UNBOUND:                -0.342
REMARK  Name = 123650531
REMARK  4 active torsions:
REMARK  status: ('A' for Active; 'I' for Inactive)
REMARK    1  A    between atoms: N_3  and  C_15
REMARK    2  A    between atoms: C_7  and  C_9
REMARK    3  A    between atoms: C_8  and  C_13
REMARK    4  A    between atoms: C_9  and  C_14
REMARK                            x       y       z     vdW  Elec       q    Type
REMARK                         _______ _______ _______ _____ _____    ______ ____
ROOT
ATOM      1  N   UNL     1     -19.783  43.575 -14.718  0.00  0.00    +0.000 N 
ATOM      2  N   UNL     1     -19.683  41.533 -13.520  0.00  0.00    +0.000 NA
ATOM      3  C   UNL     1     -17.644  42.565 -11.911  0.00  0.00    +0.000 A 
ATOM      4  C   UNL     1     -18.201  43.346 -12.918  0.00  0.00    +0.000 A 
ATOM      5  C   UNL     1     -19.209  42.787 -13.689  0.00  0.00    +0.000 A 
ATOM      6  C   UNL     1     -18.107  41.270 -11.707  0.00  0.00    +0.000 A 
ATOM      7  C   UNL     1     -19.118  40.805 -12.531  0.00  0.00    +0.000 A 
ATOM      8  C   UNL     1     -20.825  43.093 -15.565  0.00  0.00    +0.000 C 
ATOM      9  H   UNL     1     -19.660  44.579 -14.656  0.00  0.00    +0.000 HD
ENDROOT
BRANCH   4  12
ATOM     10  O   UNL     1     -18.273  45.679 -12.607  0.00  0.00    +0.000 OA
ATOM     11  N   UNL     1     -16.626  44.869 -13.982  0.00  0.00    +0.000 N 
ATOM     12  C   UNL     1     -17.726  44.706 -13.148  0.00  0.00    +0.000 C 
ATOM     13  H   UNL     1     -16.164  44.082 -14.428  0.00  0.00    +0.000 HD
ATOM     14  H   UNL     1     -16.250  45.792 -14.174  0.00  0.00    +0.000 HD
ENDBRANCH   4  12
BRANCH   3  15
ATOM     15  C   UNL     1     -16.553  43.089 -11.035  0.00  0.00    +0.000 C 
BRANCH  15  18
ATOM     16  O   UNL     1     -14.530  43.485 -12.315  0.00  0.00    +0.000 OA
ATOM     17  N   UNL     1     -14.665  41.586 -11.027  0.00  0.00    +0.000 N 
ATOM     18  C   UNL     1     -15.157  42.768 -11.540  0.00  0.00    +0.000 C 
ATOM     19  H   UNL     1     -15.199  41.003 -10.391  0.00  0.00    +0.000 HD
ATOM     20  H   UNL     1     -13.741  41.253 -11.281  0.00  0.00    +0.000 HD
ENDBRANCH  15  18
ENDBRANCH   3  15
TORSDOF 3
ENDMDL
MODEL 5
REMARK VINA RESULT:    -5.294      2.389      4.447
REMARK INTER + INTRA:          -6.565
REMARK INTER:                  -6.095
REMARK INTRA:                  -0.470
REMARK UNBOUND:                -0.342
REMARK  Name = 123650531
REMARK  4 active torsions:
REMARK  status: ('A' for Active; 'I' for Inactive)
REMARK    1  A    between atoms: N_3  and  C_15
REMARK    2  A    between atoms: C_7  and  C_9
REMARK    3  A    between atoms: C_8  and  C_13
REMARK    4  A    between atoms: C_9  and  C_14
REMARK                            x       y       z     vdW  Elec       q    Type
REMARK                         _______ _______ _______ _____ _____    ______ ____
ROOT
ATOM      1  N   UNL     1     -18.801  40.338 -11.659  0.00  0.00    +0.000 N 
ATOM      2  N   UNL     1     -19.522  41.537 -13.571  0.00  0.00    +0.000 NA
ATOM      3  C   UNL     1     -17.950  43.719 -12.808  0.00  0.00    +0.000 A 
ATOM      4  C   UNL     1     -17.974  42.569 -12.027  0.00  0.00    +0.000 A 
ATOM      5  C   UNL     1     -18.769  41.515 -12.449  0.00  0.00    +0.000 A 
ATOM      6  C   UNL     1     -18.710  43.779 -13.970  0.00  0.00    +0.000 A 
ATOM      7  C   UNL     1     -19.472  42.672 -14.305  0.00  0.00    +0.000 A 
ATOM      8  C   UNL     1     -19.586  39.199 -12.007  0.00  0.00    +0.000 C 
ATOM      9  H   UNL     1     -18.035  40.195 -11.010  0.00  0.00    +0.000 HD
ENDROOT
BRANCH   4  12
ATOM     10  O   UNL     1     -17.689  42.729  -9.694  0.00  0.00    +0.000 OA
ATOM     11  N   UNL     1     -15.851  42.117 -10.921  0.00  0.00    +0.000 N 
ATOM     12  C   UNL     1     -17.184  42.489 -10.802  0.00  0.00    +0.000 C 
ATOM     13  H   UNL     1     -15.425  41.912 -11.820  0.00  0.00    +0.000 HD
ATOM     14  H   UNL     1     -15.256  42.041 -10.102  0.00  0.00    +0.000 HD
ENDBRANCH   4  12
BRANCH   3  15
ATOM     15  C   UNL     1     -17.120  44.901 -12.426  0.00  0.00    +0.000 C 
BRANCH  15  18
ATOM     16  O   UNL     1     -14.713  44.600 -12.329  0.00  0.00    +0.000 OA
ATOM     17  N   UNL     1     -15.674  45.163 -14.341  0.00  0.00    +0.000 N 
ATOM     18  C   UNL     1     -15.711  44.867 -12.994  0.00  0.00    +0.000 C 
ATOM     19  H   UNL     1     -16.508  45.385 -14.873  0.00  0.00    +0.000 HD
ATOM     20  H   UNL     1     -14.795  45.173 -14.847  0.00  0.00    +0.000 HD
ENDBRANCH  15  18
ENDBRANCH   3  15
TORSDOF 3
ENDMDL
