MODEL 1
REMARK VINA RESULT:    -6.882      0.000      0.000
REMARK INTER + INTRA:          -8.243
REMARK INTER:                  -8.089
REMARK INTRA:                  -0.153
REMARK UNBOUND:                -0.153
REMARK  Name = 123711792
REMARK  3 active torsions:
REMARK  status: ('A' for Active; 'I' for Inactive)
REMARK    1  A    between atoms: N_4  and  C_12
REMARK    2  A    between atoms: C_5  and  C_9
REMARK    3  A    between atoms: C_11  and  C_12
REMARK                            x       y       z     vdW  Elec       q    Type
REMARK                         _______ _______ _______ _____ _____    ______ ____
ROOT
ATOM      1  N   UNL     1     -22.488  41.602  -6.879  0.00  0.00    +0.000 NA
ATOM      2  N   UNL     1     -22.051  43.102  -5.080  0.00  0.00    +0.000 N 
ATOM      3  C   UNL     1     -20.655  40.816  -8.245  0.00  0.00    +0.000 A 
ATOM      4  C   UNL     1     -19.761  41.564  -7.486  0.00  0.00    +0.000 A 
ATOM      5  C   UNL     1     -20.229  42.331  -6.426  0.00  0.00    +0.000 A 
ATOM      6  C   UNL     1     -21.997  40.869  -7.903  0.00  0.00    +0.000 A 
ATOM      7  C   UNL     1     -21.589  42.316  -6.165  0.00  0.00    +0.000 A 
ATOM      8  H   UNL     1     -21.418  43.277  -4.309  0.00  0.00    +0.000 HD
ATOM      9  H   UNL     1     -23.045  43.083  -4.890  0.00  0.00    +0.000 HD
ENDROOT
BRANCH   3  10
ATOM     10  C   UNL     1     -20.198  40.007  -9.359  0.00  0.00    +0.000 C 
ATOM     11  C   UNL     1     -19.148  40.300 -10.162  0.00  0.00    +0.000 C 
BRANCH  11  13
ATOM     12  O   UNL     1     -19.515  38.533 -11.722  0.00  0.00    +0.000 OA
ATOM     13  C   UNL     1     -18.759  39.388 -11.274  0.00  0.00    +0.000 C 
BRANCH  13  14
ATOM     14  N   UNL     1     -17.475  39.668 -11.681  0.00  0.00    +0.000 NA
ATOM     15  C   UNL     1     -17.301  40.013 -12.911  0.00  0.00    +0.000 C 
ENDBRANCH  13  14
ENDBRANCH  11  13
ENDBRANCH   3  10
TORSDOF 3
ENDMDL
MODEL 2
REMARK VINA RESULT:    -6.600      2.102      5.818
REMARK INTER + INTRA:          -7.911
REMARK INTER:                  -7.717
REMARK INTRA:                  -0.193
REMARK UNBOUND:                -0.153
REMARK  Name = 123711792
REMARK  3 active torsions:
REMARK  status: ('A' for Active; 'I' for Inactive)
REMARK    1  A    between atoms: N_4  and  C_12
REMARK    2  A    between atoms: C_5  and  C_9
REMARK    3  A    between atoms: C_11  and  C_12
REMARK                            x       y       z     vdW  Elec       q    Type
REMARK                         _______ _______ _______ _____ _____    ______ ____
ROOT
ATOM      1  N   UNL     1     -18.511  39.401 -11.276  0.00  0.00    +0.000 NA
ATOM      2  N   UNL     1     -16.245  40.077 -11.570  0.00  0.00    +0.000 N 
ATOM      3  C   UNL     1     -19.793  40.303  -9.436  0.00  0.00    +0.000 A 
ATOM      4  C   UNL     1     -18.695  41.052  -9.030  0.00  0.00    +0.000 A 
ATOM      5  C   UNL     1     -17.505  40.976  -9.745  0.00  0.00    +0.000 A 
ATOM      6  C   UNL     1     -19.651  39.500 -10.557  0.00  0.00    +0.000 A 
ATOM      7  C   UNL     1     -17.465  40.144 -10.851  0.00  0.00    +0.000 A 
ATOM      8  H   UNL     1     -15.634  40.885 -11.556  0.00  0.00    +0.000 HD
ATOM      9  H   UNL     1     -16.223  39.472 -12.380  0.00  0.00    +0.000 HD
ENDROOT
BRANCH   3  10
ATOM     10  C   UNL     1     -21.049  40.359  -8.711  0.00  0.00    +0.000 C 
ATOM     11  C   UNL     1     -21.454  41.383  -7.923  0.00  0.00    +0.000 C 
BRANCH  11  13
ATOM     12  O   UNL     1     -23.688  40.613  -7.601  0.00  0.00    +0.000 OA
ATOM     13  C   UNL     1     -22.772  41.340  -7.232  0.00  0.00    +0.000 C 
BRANCH  13  14
ATOM     14  N   UNL     1     -22.771  42.213  -6.168  0.00  0.00    +0.000 NA
ATOM     15  C   UNL     1     -21.632  42.521  -5.650  0.00  0.00    +0.000 C 
ENDBRANCH  13  14
ENDBRANCH  11  13
ENDBRANCH   3  10
TORSDOF 3
ENDMDL
MODEL 3
REMARK VINA RESULT:    -5.843      1.409      1.522
REMARK INTER + INTRA:          -7.021
REMARK INTER:                  -6.849
REMARK INTRA:                  -0.172
REMARK UNBOUND:                -0.153
REMARK  Name = 123711792
REMARK  3 active torsions:
REMARK  status: ('A' for Active; 'I' for Inactive)
REMARK    1  A    between atoms: N_4  and  C_12
REMARK    2  A    between atoms: C_5  and  C_9
REMARK    3  A    between atoms: C_11  and  C_12
REMARK                            x       y       z     vdW  Elec       q    Type
REMARK                         _______ _______ _______ _____ _____    ______ ____
ROOT
ATOM      1  N   UNL     1     -21.849  41.054  -7.728  0.00  0.00    +0.000 NA
ATOM      2  N   UNL     1     -22.067  42.557  -5.892  0.00  0.00    +0.000 N 
ATOM      3  C   UNL     1     -19.700  40.795  -8.805  0.00  0.00    +0.000 A 
ATOM      4  C   UNL     1     -19.142  41.717  -7.927  0.00  0.00    +0.000 A 
ATOM      5  C   UNL     1     -19.935  42.309  -6.951  0.00  0.00    +0.000 A 
ATOM      6  C   UNL     1     -21.047  40.500  -8.664  0.00  0.00    +0.000 A 
ATOM      7  C   UNL     1     -21.271  41.947  -6.893  0.00  0.00    +0.000 A 
ATOM      8  H   UNL     1     -21.616  42.860  -5.037  0.00  0.00    +0.000 HD
ATOM      9  H   UNL     1     -23.040  42.285  -5.850  0.00  0.00    +0.000 HD
ENDROOT
BRANCH   3  10
ATOM     10  C   UNL     1     -18.899  40.160  -9.835  0.00  0.00    +0.000 C 
ATOM     11  C   UNL     1     -17.973  40.783 -10.601  0.00  0.00    +0.000 C 
BRANCH  11  13
ATOM     12  O   UNL     1     -16.155  39.440 -11.364  0.00  0.00    +0.000 OA
ATOM     13  C   UNL     1     -17.198  40.029 -11.627  0.00  0.00    +0.000 C 
BRANCH  13  14
ATOM     14  N   UNL     1     -17.831  40.111 -12.845  0.00  0.00    +0.000 NA
ATOM     15  C   UNL     1     -18.175  41.282 -13.262  0.00  0.00    +0.000 C 
ENDBRANCH  13  14
ENDBRANCH  11  13
ENDBRANCH   3  10
TORSDOF 3
ENDMDL
MODEL 4
REMARK VINA RESULT:    -5.225      4.206      5.574
REMARK INTER + INTRA:          -6.294
REMARK INTER:                  -6.095
REMARK INTRA:                  -0.199
REMARK UNBOUND:                -0.153
REMARK  Name = 123711792
REMARK  3 active torsions:
REMARK  status: ('A' for Active; 'I' for Inactive)
REMARK    1  A    between atoms: N_4  and  C_12
REMARK    2  A    between atoms: C_5  and  C_9
REMARK    3  A    between atoms: C_11  and  C_12
REMARK                            x       y       z     vdW  Elec       q    Type
REMARK                         _______ _______ _______ _____ _____    ______ ____
ROOT
ATOM      1  N   UNL     1     -19.300  40.159 -10.660  0.00  0.00    +0.000 NA
ATOM      2  N   UNL     1     -18.084  40.445  -8.631  0.00  0.00    +0.000 N 
ATOM      3  C   UNL     1     -19.011  41.753 -12.454  0.00  0.00    +0.000 A 
ATOM      4  C   UNL     1     -18.101  42.467 -11.682  0.00  0.00    +0.000 A 
ATOM      5  C   UNL     1     -17.791  42.029 -10.400  0.00  0.00    +0.000 A 
ATOM      6  C   UNL     1     -19.577  40.616 -11.901  0.00  0.00    +0.000 A 
ATOM      7  C   UNL     1     -18.411  40.879  -9.939  0.00  0.00    +0.000 A 
ATOM      8  H   UNL     1     -17.170  40.676  -8.262  0.00  0.00    +0.000 HD
ATOM      9  H   UNL     1     -18.536  39.601  -8.301  0.00  0.00    +0.000 HD
ENDROOT
BRANCH   3  10
ATOM     10  C   UNL     1     -19.357  42.185 -13.796  0.00  0.00    +0.000 C 
ATOM     11  C   UNL     1     -19.250  43.451 -14.263  0.00  0.00    +0.000 C 
BRANCH  11  13
ATOM     12  O   UNL     1     -19.359  44.860 -16.184  0.00  0.00    +0.000 OA
ATOM     13  C   UNL     1     -19.625  43.781 -15.667  0.00  0.00    +0.000 C 
BRANCH  13  14
ATOM     14  N   UNL     1     -20.284  42.717 -16.238  0.00  0.00    +0.000 NA
ATOM     15  C   UNL     1     -20.681  42.846 -17.458  0.00  0.00    +0.000 C 
ENDBRANCH  13  14
ENDBRANCH  11  13
ENDBRANCH   3  10
TORSDOF 3
ENDMDL
MODEL 5
REMARK VINA RESULT:    -4.785      4.932      6.548
REMARK INTER + INTRA:          -5.778
REMARK INTER:                  -5.605
REMARK INTRA:                  -0.173
REMARK UNBOUND:                -0.153
REMARK  Name = 123711792
REMARK  3 active torsions:
REMARK  status: ('A' for Active; 'I' for Inactive)
REMARK    1  A    between atoms: N_4  and  C_12
REMARK    2  A    between atoms: C_5  and  C_9
REMARK    3  A    between atoms: C_11  and  C_12
REMARK                            x       y       z     vdW  Elec       q    Type
REMARK                         _______ _______ _______ _____ _____    ______ ____
ROOT
ATOM      1  N   UNL     1     -19.553  40.939 -12.815  0.00  0.00    +0.000 NA
ATOM      2  N   UNL     1     -19.483  38.825 -11.716  0.00  0.00    +0.000 N 
ATOM      3  C   UNL     1     -18.262  42.781 -11.931  0.00  0.00    +0.000 A 
ATOM      4  C   UNL     1     -17.792  41.969 -10.906  0.00  0.00    +0.000 A 
ATOM      5  C   UNL     1     -18.202  40.643 -10.833  0.00  0.00    +0.000 A 
ATOM      6  C   UNL     1     -19.133  42.223 -12.853  0.00  0.00    +0.000 A 
ATOM      7  C   UNL     1     -19.075  40.179 -11.803  0.00  0.00    +0.000 A 
ATOM      8  H   UNL     1     -18.855  38.160 -11.281  0.00  0.00    +0.000 HD
ATOM      9  H   UNL     1     -20.117  38.490 -12.431  0.00  0.00    +0.000 HD
ENDROOT
BRANCH   3  10
ATOM     10  C   UNL     1     -17.854  44.170 -12.034  0.00  0.00    +0.000 C 
ATOM     11  C   UNL     1     -18.522  45.135 -12.708  0.00  0.00    +0.000 C 
BRANCH  11  13
ATOM     12  O   UNL     1     -17.243  46.977 -11.896  0.00  0.00    +0.000 OA
ATOM     13  C   UNL     1     -18.016  46.536 -12.739  0.00  0.00    +0.000 C 
BRANCH  13  14
ATOM     14  N   UNL     1     -18.545  47.201 -13.821  0.00  0.00    +0.000 NA
ATOM     15  C   UNL     1     -18.610  46.562 -14.940  0.00  0.00    +0.000 C 
ENDBRANCH  13  14
ENDBRANCH  11  13
ENDBRANCH   3  10
TORSDOF 3
ENDMDL
