MODEL 1
REMARK VINA RESULT:    -6.812      0.000      0.000
REMARK INTER + INTRA:          -7.737
REMARK INTER:                  -7.609
REMARK INTRA:                  -0.128
REMARK UNBOUND:                -0.128
REMARK  Name = 123783097
REMARK  2 active torsions:
REMARK  status: ('A' for Active; 'I' for Inactive)
REMARK    1  A    between atoms: C_5  and  C_9
REMARK    2  A    between atoms: C_11  and  C_12
REMARK                            x       y       z     vdW  Elec       q    Type
REMARK                         _______ _______ _______ _____ _____    ______ ____
ROOT
ATOM      1  N   UNL     1     -22.377  41.585  -6.904  0.00  0.00    +0.000 NA
ATOM      2  N   UNL     1     -21.933  43.109  -5.127  0.00  0.00    +0.000 N 
ATOM      3  C   UNL     1     -20.555  40.821  -8.297  0.00  0.00    +0.000 A 
ATOM      4  C   UNL     1     -19.660  41.592  -7.564  0.00  0.00    +0.000 A 
ATOM      5  C   UNL     1     -20.122  42.360  -6.501  0.00  0.00    +0.000 A 
ATOM      6  C   UNL     1     -21.890  40.852  -7.930  0.00  0.00    +0.000 A 
ATOM      7  C   UNL     1     -21.477  42.322  -6.214  0.00  0.00    +0.000 A 
ATOM      8  H   UNL     1     -21.289  43.304  -4.370  0.00  0.00    +0.000 HD
ATOM      9  H   UNL     1     -22.922  43.074  -4.917  0.00  0.00    +0.000 HD
ENDROOT
BRANCH   3  10
ATOM     10  C   UNL     1     -20.103  40.009  -9.413  0.00  0.00    +0.000 C 
ATOM     11  C   UNL     1     -19.151  40.365 -10.306  0.00  0.00    +0.000 C 
BRANCH  11  14
ATOM     12  O   UNL     1     -19.554  38.698 -11.974  0.00  0.00    +0.000 OA
ATOM     13  N   UNL     1     -17.423  39.523 -11.711  0.00  0.00    +0.000 N 
ATOM     14  C   UNL     1     -18.763  39.443 -11.406  0.00  0.00    +0.000 C 
ATOM     15  H   UNL     1     -16.783  40.149 -11.229  0.00  0.00    +0.000 HD
ATOM     16  H   UNL     1     -17.022  38.947 -12.444  0.00  0.00    +0.000 HD
ENDBRANCH  11  14
ENDBRANCH   3  10
TORSDOF 2
ENDMDL
MODEL 2
REMARK VINA RESULT:    -6.812      2.323      5.572
REMARK INTER + INTRA:          -7.737
REMARK INTER:                  -7.602
REMARK INTRA:                  -0.135
REMARK UNBOUND:                -0.128
REMARK  Name = 123783097
REMARK  2 active torsions:
REMARK  status: ('A' for Active; 'I' for Inactive)
REMARK    1  A    between atoms: C_5  and  C_9
REMARK    2  A    between atoms: C_11  and  C_12
REMARK                            x       y       z     vdW  Elec       q    Type
REMARK                         _______ _______ _______ _____ _____    ______ ____
ROOT
ATOM      1  N   UNL     1     -18.903  39.284 -11.071  0.00  0.00    +0.000 NA
ATOM      2  N   UNL     1     -16.623  39.578 -11.696  0.00  0.00    +0.000 N 
ATOM      3  C   UNL     1     -19.821  40.601  -9.263  0.00  0.00    +0.000 A 
ATOM      4  C   UNL     1     -18.593  41.230  -9.088  0.00  0.00    +0.000 A 
ATOM      5  C   UNL     1     -17.521  40.887  -9.903  0.00  0.00    +0.000 A 
ATOM      6  C   UNL     1     -19.923  39.644 -10.260  0.00  0.00    +0.000 A 
ATOM      7  C   UNL     1     -17.725  39.917 -10.871  0.00  0.00    +0.000 A 
ATOM      8  H   UNL     1     -15.915  40.283 -11.866  0.00  0.00    +0.000 HD
ATOM      9  H   UNL     1     -16.779  38.874 -12.405  0.00  0.00    +0.000 HD
ENDROOT
BRANCH   3  10
ATOM     10  C   UNL     1     -20.959  40.936  -8.427  0.00  0.00    +0.000 C 
ATOM     11  C   UNL     1     -20.991  41.928  -7.506  0.00  0.00    +0.000 C 
BRANCH  11  14
ATOM     12  O   UNL     1     -23.138  41.378  -6.607  0.00  0.00    +0.000 OA
ATOM     13  N   UNL     1     -22.213  43.426  -6.118  0.00  0.00    +0.000 N 
ATOM     14  C   UNL     1     -22.223  42.185  -6.714  0.00  0.00    +0.000 C 
ATOM     15  H   UNL     1     -21.443  44.081  -6.217  0.00  0.00    +0.000 HD
ATOM     16  H   UNL     1     -22.993  43.732  -5.546  0.00  0.00    +0.000 HD
ENDBRANCH  11  14
ENDBRANCH   3  10
TORSDOF 2
ENDMDL
MODEL 3
REMARK VINA RESULT:    -6.719      1.002      1.496
REMARK INTER + INTRA:          -7.632
REMARK INTER:                  -7.523
REMARK INTRA:                  -0.109
REMARK UNBOUND:                -0.128
REMARK  Name = 123783097
REMARK  2 active torsions:
REMARK  status: ('A' for Active; 'I' for Inactive)
REMARK    1  A    between atoms: C_5  and  C_9
REMARK    2  A    between atoms: C_11  and  C_12
REMARK                            x       y       z     vdW  Elec       q    Type
REMARK                         _______ _______ _______ _____ _____    ______ ____
ROOT
ATOM      1  N   UNL     1     -19.715  42.292  -6.741  0.00  0.00    +0.000 NA
ATOM      2  N   UNL     1     -21.498  42.963  -5.311  0.00  0.00    +0.000 N 
ATOM      3  C   UNL     1     -20.169  40.801  -8.589  0.00  0.00    +0.000 A 
ATOM      4  C   UNL     1     -21.513  40.760  -8.236  0.00  0.00    +0.000 A 
ATOM      5  C   UNL     1     -21.959  41.485  -7.137  0.00  0.00    +0.000 A 
ATOM      6  C   UNL     1     -19.319  41.575  -7.817  0.00  0.00    +0.000 A 
ATOM      7  C   UNL     1     -21.028  42.229  -6.429  0.00  0.00    +0.000 A 
ATOM      8  H   UNL     1     -22.461  43.277  -5.311  0.00  0.00    +0.000 HD
ATOM      9  H   UNL     1     -20.815  43.509  -4.801  0.00  0.00    +0.000 HD
ENDROOT
BRANCH   3  10
ATOM     10  C   UNL     1     -19.673  40.054  -9.731  0.00  0.00    +0.000 C 
ATOM     11  C   UNL     1     -19.083  40.593 -10.824  0.00  0.00    +0.000 C 
BRANCH  11  14
ATOM     12  O   UNL     1     -19.326  39.324 -12.837  0.00  0.00    +0.000 OA
ATOM     13  N   UNL     1     -17.264  39.425 -11.821  0.00  0.00    +0.000 N 
ATOM     14  C   UNL     1     -18.603  39.724 -11.931  0.00  0.00    +0.000 C 
ATOM     15  H   UNL     1     -16.682  39.768 -11.063  0.00  0.00    +0.000 HD
ATOM     16  H   UNL     1     -16.806  38.839 -12.511  0.00  0.00    +0.000 HD
ENDBRANCH  11  14
ENDBRANCH   3  10
TORSDOF 2
ENDMDL
MODEL 4
REMARK VINA RESULT:    -6.425      1.778      1.990
REMARK INTER + INTRA:          -7.305
REMARK INTER:                  -7.191
REMARK INTRA:                  -0.113
REMARK UNBOUND:                -0.128
REMARK  Name = 123783097
REMARK  2 active torsions:
REMARK  status: ('A' for Active; 'I' for Inactive)
REMARK    1  A    between atoms: C_5  and  C_9
REMARK    2  A    between atoms: C_11  and  C_12
REMARK                            x       y       z     vdW  Elec       q    Type
REMARK                         _______ _______ _______ _____ _____    ______ ____
ROOT
ATOM      1  N   UNL     1     -21.679  40.614  -8.276  0.00  0.00    +0.000 NA
ATOM      2  N   UNL     1     -22.730  41.986  -6.637  0.00  0.00    +0.000 N 
ATOM      3  C   UNL     1     -19.312  40.866  -8.699  0.00  0.00    +0.000 A 
ATOM      4  C   UNL     1     -19.240  41.869  -7.739  0.00  0.00    +0.000 A 
ATOM      5  C   UNL     1     -20.386  42.245  -7.048  0.00  0.00    +0.000 A 
ATOM      6  C   UNL     1     -20.544  40.275  -8.928  0.00  0.00    +0.000 A 
ATOM      7  C   UNL     1     -21.570  41.593  -7.350  0.00  0.00    +0.000 A 
ATOM      8  H   UNL     1     -22.616  42.363  -5.703  0.00  0.00    +0.000 HD
ATOM      9  H   UNL     1     -23.591  41.503  -6.857  0.00  0.00    +0.000 HD
ENDROOT
BRANCH   3  10
ATOM     10  C   UNL     1     -18.134  40.451  -9.438  0.00  0.00    +0.000 C 
ATOM     11  C   UNL     1     -17.646  41.062 -10.543  0.00  0.00    +0.000 C 
BRANCH  11  14
ATOM     12  O   UNL     1     -16.356  39.456 -11.758  0.00  0.00    +0.000 OA
ATOM     13  N   UNL     1     -15.376  41.445 -11.147  0.00  0.00    +0.000 N 
ATOM     14  C   UNL     1     -16.420  40.551 -11.212  0.00  0.00    +0.000 C 
ATOM     15  H   UNL     1     -15.450  42.349 -10.691  0.00  0.00    +0.000 HD
ATOM     16  H   UNL     1     -14.478  41.223 -11.565  0.00  0.00    +0.000 HD
ENDBRANCH  11  14
ENDBRANCH   3  10
TORSDOF 2
ENDMDL
MODEL 5
REMARK VINA RESULT:    -5.277      4.004      5.390
REMARK INTER + INTRA:          -6.022
REMARK INTER:                  -5.897
REMARK INTRA:                  -0.124
REMARK UNBOUND:                -0.128
REMARK  Name = 123783097
REMARK  2 active torsions:
REMARK  status: ('A' for Active; 'I' for Inactive)
REMARK    1  A    between atoms: C_5  and  C_9
REMARK    2  A    between atoms: C_11  and  C_12
REMARK                            x       y       z     vdW  Elec       q    Type
REMARK                         _______ _______ _______ _____ _____    ______ ____
ROOT
ATOM      1  N   UNL     1     -18.937  39.922 -10.775  0.00  0.00    +0.000 NA
ATOM      2  N   UNL     1     -18.042  40.462  -8.634  0.00  0.00    +0.000 N 
ATOM      3  C   UNL     1     -18.836  41.558 -12.553  0.00  0.00    +0.000 A 
ATOM      4  C   UNL     1     -18.203  42.456 -11.701  0.00  0.00    +0.000 A 
ATOM      5  C   UNL     1     -17.938  42.089 -10.387  0.00  0.00    +0.000 A 
ATOM      6  C   UNL     1     -19.178  40.315 -12.046  0.00  0.00    +0.000 A 
ATOM      7  C   UNL     1     -18.321  40.822  -9.976  0.00  0.00    +0.000 A 
ATOM      8  H   UNL     1     -17.251  40.895  -8.174  0.00  0.00    +0.000 HD
ATOM      9  H   UNL     1     -18.319  39.534  -8.341  0.00  0.00    +0.000 HD
ENDROOT
BRANCH   3  10
ATOM     10  C   UNL     1     -19.128  41.911 -13.930  0.00  0.00    +0.000 C 
ATOM     11  C   UNL     1     -19.777  43.029 -14.332  0.00  0.00    +0.000 C 
BRANCH  11  14
ATOM     12  O   UNL     1     -20.073  42.405 -16.622  0.00  0.00    +0.000 OA
ATOM     13  N   UNL     1     -20.148  44.632 -16.052  0.00  0.00    +0.000 N 
ATOM     14  C   UNL     1     -20.011  43.291 -15.777  0.00  0.00    +0.000 C 
ATOM     15  H   UNL     1     -20.095  45.351 -15.336  0.00  0.00    +0.000 HD
ATOM     16  H   UNL     1     -20.312  44.953 -17.000  0.00  0.00    +0.000 HD
ENDBRANCH  11  14
ENDBRANCH   3  10
TORSDOF 2
ENDMDL
