MODEL 1
REMARK VINA RESULT:    -5.863      0.000      0.000
REMARK INTER + INTRA:          -7.928
REMARK INTER:                  -7.406
REMARK INTRA:                  -0.522
REMARK UNBOUND:                -0.522
REMARK  Name = 123909110
REMARK  6 active torsions:
REMARK  status: ('A' for Active; 'I' for Inactive)
REMARK    1  A    between atoms: O_1  and  N_4
REMARK    2  A    between atoms: O_1  and  C_14
REMARK    3  A    between atoms: N_6  and  C_8
REMARK    4  A    between atoms: C_7  and  C_11
REMARK    5  A    between atoms: C_9  and  C_12
REMARK    6  A    between atoms: C_9  and  C_14
REMARK                            x       y       z     vdW  Elec       q    Type
REMARK                         _______ _______ _______ _____ _____    ______ ____
ROOT
ATOM      1  N   UNL     1     -21.146  40.421  -8.676  0.00  0.00    +0.000 NA
ATOM      2  C   UNL     1     -18.902  41.196  -9.134  0.00  0.00    +0.000 A 
ATOM      3  C   UNL     1     -20.018  40.427  -9.422  0.00  0.00    +0.000 A 
ATOM      4  C   UNL     1     -18.947  42.012  -8.009  0.00  0.00    +0.000 A 
ATOM      5  C   UNL     1     -20.089  42.032  -7.216  0.00  0.00    +0.000 A 
ATOM      6  C   UNL     1     -21.152  41.226  -7.590  0.00  0.00    +0.000 A 
ENDROOT
BRANCH   2   9
ATOM      7  O   UNL     1     -17.129  40.115 -10.230  0.00  0.00    +0.000 OA
ATOM      8  N   UNL     1     -17.254  42.408 -10.435  0.00  0.00    +0.000 N 
ATOM      9  C   UNL     1     -17.678  41.184  -9.977  0.00  0.00    +0.000 C 
ATOM     10  H   UNL     1     -17.693  43.305 -10.254  0.00  0.00    +0.000 HD
BRANCH   8  11
ATOM     11  O   UNL     1     -16.093  42.379 -11.230  0.00  0.00    +0.000 OA
BRANCH  11  13
ATOM     12  O   UNL     1     -17.166  42.165 -13.265  0.00  0.00    +0.000 OA
ATOM     13  C   UNL     1     -16.352  42.709 -12.532  0.00  0.00    +0.000 C 
BRANCH  13  14
ATOM     14  C   UNL     1     -15.460  43.864 -12.927  0.00  0.00    +0.000 C 
ATOM     15  C   UNL     1     -14.163  43.880 -12.137  0.00  0.00    +0.000 C 
ENDBRANCH  13  14
ENDBRANCH  11  13
ENDBRANCH   8  11
ENDBRANCH   2   9
BRANCH   3  16
ATOM     16  N   UNL     1     -19.981  39.595 -10.569  0.00  0.00    +0.000 N 
ATOM     17  H   UNL     1     -19.956  38.592 -10.440  0.00  0.00    +0.000 HD
ATOM     18  H   UNL     1     -19.520  39.975 -11.387  0.00  0.00    +0.000 HD
ENDBRANCH   3  16
TORSDOF 5
ENDMDL
MODEL 2
REMARK VINA RESULT:    -5.727      4.307      5.729
REMARK INTER + INTRA:          -7.756
REMARK INTER:                  -7.296
REMARK INTRA:                  -0.460
REMARK UNBOUND:                -0.522
REMARK  Name = 123909110
REMARK  6 active torsions:
REMARK  status: ('A' for Active; 'I' for Inactive)
REMARK    1  A    between atoms: O_1  and  N_4
REMARK    2  A    between atoms: O_1  and  C_14
REMARK    3  A    between atoms: N_6  and  C_8
REMARK    4  A    between atoms: C_7  and  C_11
REMARK    5  A    between atoms: C_9  and  C_12
REMARK    6  A    between atoms: C_9  and  C_14
REMARK                            x       y       z     vdW  Elec       q    Type
REMARK                         _______ _______ _______ _____ _____    ______ ____
ROOT
ATOM      1  N   UNL     1     -16.791  40.569 -11.752  0.00  0.00    +0.000 NA
ATOM      2  C   UNL     1     -18.569  41.725 -12.914  0.00  0.00    +0.000 A 
ATOM      3  C   UNL     1     -17.244  41.570 -12.541  0.00  0.00    +0.000 A 
ATOM      4  C   UNL     1     -19.490  40.792 -12.448  0.00  0.00    +0.000 A 
ATOM      5  C   UNL     1     -19.063  39.749 -11.634  0.00  0.00    +0.000 A 
ATOM      6  C   UNL     1     -17.715  39.682 -11.319  0.00  0.00    +0.000 A 
ENDROOT
BRANCH   2   9
ATOM      7  O   UNL     1     -19.075  43.978 -13.340  0.00  0.00    +0.000 OA
ATOM      8  N   UNL     1     -19.379  42.484 -15.069  0.00  0.00    +0.000 N 
ATOM      9  C   UNL     1     -19.035  42.835 -13.786  0.00  0.00    +0.000 C 
ATOM     10  H   UNL     1     -19.345  41.552 -15.470  0.00  0.00    +0.000 HD
BRANCH   8  11
ATOM     11  O   UNL     1     -19.819  43.546 -15.881  0.00  0.00    +0.000 OA
BRANCH  11  13
ATOM     12  O   UNL     1     -20.566  41.964 -17.389  0.00  0.00    +0.000 OA
ATOM     13  C   UNL     1     -20.540  43.108 -16.957  0.00  0.00    +0.000 C 
BRANCH  13  14
ATOM     14  C   UNL     1     -21.307  44.275 -17.535  0.00  0.00    +0.000 C 
ATOM     15  C   UNL     1     -22.670  44.441 -16.886  0.00  0.00    +0.000 C 
ENDBRANCH  13  14
ENDBRANCH  11  13
ENDBRANCH   8  11
ENDBRANCH   2   9
BRANCH   3  16
ATOM     16  N   UNL     1     -16.299  42.515 -13.015  0.00  0.00    +0.000 N 
ATOM     17  H   UNL     1     -16.352  43.466 -12.672  0.00  0.00    +0.000 HD
ATOM     18  H   UNL     1     -15.952  42.373 -13.956  0.00  0.00    +0.000 HD
ENDBRANCH   3  16
TORSDOF 5
ENDMDL
MODEL 3
REMARK VINA RESULT:    -5.239      2.523      3.600
REMARK INTER + INTRA:          -7.140
REMARK INTER:                  -6.712
REMARK INTRA:                  -0.428
REMARK UNBOUND:                -0.522
REMARK  Name = 123909110
REMARK  6 active torsions:
REMARK  status: ('A' for Active; 'I' for Inactive)
REMARK    1  A    between atoms: O_1  and  N_4
REMARK    2  A    between atoms: O_1  and  C_14
REMARK    3  A    between atoms: N_6  and  C_8
REMARK    4  A    between atoms: C_7  and  C_11
REMARK    5  A    between atoms: C_9  and  C_12
REMARK    6  A    between atoms: C_9  and  C_14
REMARK                            x       y       z     vdW  Elec       q    Type
REMARK                         _______ _______ _______ _____ _____    ______ ____
ROOT
ATOM      1  N   UNL     1     -21.995  42.229  -5.964  0.00  0.00    +0.000 NA
ATOM      2  C   UNL     1     -20.768  41.226  -7.790  0.00  0.00    +0.000 A 
ATOM      3  C   UNL     1     -20.863  42.052  -6.681  0.00  0.00    +0.000 A 
ATOM      4  C   UNL     1     -21.909  40.538  -8.188  0.00  0.00    +0.000 A 
ATOM      5  C   UNL     1     -23.093  40.695  -7.477  0.00  0.00    +0.000 A 
ATOM      6  C   UNL     1     -23.084  41.544  -6.382  0.00  0.00    +0.000 A 
ENDROOT
BRANCH   2   9
ATOM      7  O   UNL     1     -18.444  40.931  -7.951  0.00  0.00    +0.000 OA
ATOM      8  N   UNL     1     -19.635  41.013  -9.923  0.00  0.00    +0.000 N 
ATOM      9  C   UNL     1     -19.506  41.049  -8.556  0.00  0.00    +0.000 C 
ATOM     10  H   UNL     1     -20.499  41.095 -10.450  0.00  0.00    +0.000 HD
BRANCH   8  11
ATOM     11  O   UNL     1     -18.432  40.846 -10.633  0.00  0.00    +0.000 OA
BRANCH  11  13
ATOM     12  O   UNL     1     -19.248  38.784 -11.280  0.00  0.00    +0.000 OA
ATOM     13  C   UNL     1     -18.363  39.628 -11.252  0.00  0.00    +0.000 C 
BRANCH  13  14
ATOM     14  C   UNL     1     -17.005  39.488 -11.900  0.00  0.00    +0.000 C 
ATOM     15  C   UNL     1     -17.003  39.983 -13.336  0.00  0.00    +0.000 C 
ENDBRANCH  13  14
ENDBRANCH  11  13
ENDBRANCH   8  11
ENDBRANCH   2   9
BRANCH   3  16
ATOM     16  N   UNL     1     -19.703  42.754  -6.268  0.00  0.00    +0.000 N 
ATOM     17  H   UNL     1     -18.797  42.401  -6.547  0.00  0.00    +0.000 HD
ATOM     18  H   UNL     1     -19.763  43.244  -5.382  0.00  0.00    +0.000 HD
ENDBRANCH   3  16
TORSDOF 5
ENDMDL
MODEL 4
REMARK VINA RESULT:    -5.208      2.337      5.790
REMARK INTER + INTRA:          -7.100
REMARK INTER:                  -6.493
REMARK INTRA:                  -0.608
REMARK UNBOUND:                -0.522
REMARK  Name = 123909110
REMARK  6 active torsions:
REMARK  status: ('A' for Active; 'I' for Inactive)
REMARK    1  A    between atoms: O_1  and  N_4
REMARK    2  A    between atoms: O_1  and  C_14
REMARK    3  A    between atoms: N_6  and  C_8
REMARK    4  A    between atoms: C_7  and  C_11
REMARK    5  A    between atoms: C_9  and  C_12
REMARK    6  A    between atoms: C_9  and  C_14
REMARK                            x       y       z     vdW  Elec       q    Type
REMARK                         _______ _______ _______ _____ _____    ______ ____
ROOT
ATOM      1  N   UNL     1     -14.944  45.793 -12.513  0.00  0.00    +0.000 NA
ATOM      2  C   UNL     1     -16.505  44.058 -11.878  0.00  0.00    +0.000 A 
ATOM      3  C   UNL     1     -15.281  44.492 -12.362  0.00  0.00    +0.000 A 
ATOM      4  C   UNL     1     -17.444  45.022 -11.527  0.00  0.00    +0.000 A 
ATOM      5  C   UNL     1     -17.136  46.370 -11.670  0.00  0.00    +0.000 A 
ATOM      6  C   UNL     1     -15.883  46.700 -12.162  0.00  0.00    +0.000 A 
ENDROOT
BRANCH   2   9
ATOM      7  O   UNL     1     -16.972  41.915 -12.717  0.00  0.00    +0.000 OA
ATOM      8  N   UNL     1     -16.973  42.175 -10.426  0.00  0.00    +0.000 N 
ATOM      9  C   UNL     1     -16.844  42.620 -11.719  0.00  0.00    +0.000 C 
ATOM     10  H   UNL     1     -16.861  42.728  -9.583  0.00  0.00    +0.000 HD
BRANCH   8  11
ATOM     11  O   UNL     1     -17.294  40.811 -10.293  0.00  0.00    +0.000 OA
BRANCH  11  13
ATOM     12  O   UNL     1     -18.334  40.845  -8.231  0.00  0.00    +0.000 OA
ATOM     13  C   UNL     1     -18.337  40.608  -9.431  0.00  0.00    +0.000 C 
BRANCH  13  14
ATOM     14  C   UNL     1     -19.503  40.037 -10.204  0.00  0.00    +0.000 C 
ATOM     15  C   UNL     1     -19.057  39.334 -11.475  0.00  0.00    +0.000 C 
ENDBRANCH  13  14
ENDBRANCH  11  13
ENDBRANCH   8  11
ENDBRANCH   2   9
BRANCH   3  16
ATOM     16  N   UNL     1     -14.317  43.515 -12.718  0.00  0.00    +0.000 N 
ATOM     17  H   UNL     1     -13.397  43.824 -13.003  0.00  0.00    +0.000 HD
ATOM     18  H   UNL     1     -14.673  42.658 -13.126  0.00  0.00    +0.000 HD
ENDBRANCH   3  16
TORSDOF 5
ENDMDL
MODEL 5
REMARK VINA RESULT:    -4.923      3.185      4.094
REMARK INTER + INTRA:          -6.741
REMARK INTER:                  -6.298
REMARK INTRA:                  -0.442
REMARK UNBOUND:                -0.522
REMARK  Name = 123909110
REMARK  6 active torsions:
REMARK  status: ('A' for Active; 'I' for Inactive)
REMARK    1  A    between atoms: O_1  and  N_4
REMARK    2  A    between atoms: O_1  and  C_14
REMARK    3  A    between atoms: N_6  and  C_8
REMARK    4  A    between atoms: C_7  and  C_11
REMARK    5  A    between atoms: C_9  and  C_12
REMARK    6  A    between atoms: C_9  and  C_14
REMARK                            x       y       z     vdW  Elec       q    Type
REMARK                         _______ _______ _______ _____ _____    ______ ____
ROOT
ATOM      1  N   UNL     1     -19.025  40.843 -13.205  0.00  0.00    +0.000 NA
ATOM      2  C   UNL     1     -17.167  41.527 -11.818  0.00  0.00    +0.000 A 
ATOM      3  C   UNL     1     -18.011  41.685 -12.905  0.00  0.00    +0.000 A 
ATOM      4  C   UNL     1     -17.377  40.434 -10.984  0.00  0.00    +0.000 A 
ATOM      5  C   UNL     1     -18.409  39.545 -11.260  0.00  0.00    +0.000 A 
ATOM      6  C   UNL     1     -19.198  39.792 -12.372  0.00  0.00    +0.000 A 
ENDROOT
BRANCH   2   9
ATOM      7  O   UNL     1     -16.273  43.683 -11.556  0.00  0.00    +0.000 OA
ATOM      8  N   UNL     1     -14.858  41.902 -11.178  0.00  0.00    +0.000 N 
ATOM      9  C   UNL     1     -16.062  42.474 -11.513  0.00  0.00    +0.000 C 
ATOM     10  H   UNL     1     -14.657  40.909 -11.122  0.00  0.00    +0.000 HD
BRANCH   8  11
ATOM     11  O   UNL     1     -13.823  42.812 -10.894  0.00  0.00    +0.000 OA
BRANCH  11  13
ATOM     12  O   UNL     1     -12.272  41.105 -10.766  0.00  0.00    +0.000 OA
ATOM     13  C   UNL     1     -12.586  42.252 -11.054  0.00  0.00    +0.000 C 
BRANCH  13  14
ATOM     14  C   UNL     1     -11.657  43.286 -11.647  0.00  0.00    +0.000 C 
ATOM     15  C   UNL     1     -11.905  44.671 -11.075  0.00  0.00    +0.000 C 
ENDBRANCH  13  14
ENDBRANCH  11  13
ENDBRANCH   8  11
ENDBRANCH   2   9
BRANCH   3  16
ATOM     16  N   UNL     1     -17.804  42.799 -13.758  0.00  0.00    +0.000 N 
ATOM     17  H   UNL     1     -16.962  43.348 -13.642  0.00  0.00    +0.000 HD
ATOM     18  H   UNL     1     -18.636  43.277 -14.086  0.00  0.00    +0.000 HD
ENDBRANCH   3  16
TORSDOF 5
ENDMDL
