MODEL 1
REMARK VINA RESULT:    -5.913      0.000      0.000
REMARK INTER + INTRA:          -7.269
REMARK INTER:                  -6.950
REMARK INTRA:                  -0.319
REMARK UNBOUND:                -0.319
REMARK  Name = 123920016
REMARK  4 active torsions:
REMARK  status: ('A' for Active; 'I' for Inactive)
REMARK    1  A    between atoms: N_2  and  C_7
REMARK    2  A    between atoms: C_5  and  C_6
REMARK    3  A    between atoms: C_7  and  C_12
REMARK    4  A    between atoms: C_13  and  C_14
REMARK                            x       y       z     vdW  Elec       q    Type
REMARK                         _______ _______ _______ _____ _____    ______ ____
ROOT
ATOM      1  N   UNL     1     -19.127  40.756 -11.471  0.00  0.00    +0.000 NA
ATOM      2  N   UNL     1     -17.711  40.606  -9.561  0.00  0.00    +0.000 N 
ATOM      3  C   UNL     1     -18.898  42.634 -12.976  0.00  0.00    +0.000 A 
ATOM      4  C   UNL     1     -17.873  43.149 -12.190  0.00  0.00    +0.000 A 
ATOM      5  C   UNL     1     -19.487  41.446 -12.578  0.00  0.00    +0.000 A 
ATOM      6  C   UNL     1     -17.475  42.468 -11.045  0.00  0.00    +0.000 A 
ATOM      7  C   UNL     1     -18.128  41.287 -10.731  0.00  0.00    +0.000 A 
ATOM      8  H   UNL     1     -16.752  40.719  -9.254  0.00  0.00    +0.000 HD
ATOM      9  H   UNL     1     -18.186  39.740  -9.339  0.00  0.00    +0.000 HD
ENDROOT
BRANCH   3  12
ATOM     10  O   UNL     1     -18.886  44.448 -14.458  0.00  0.00    +0.000 OA
ATOM     11  N   UNL     1     -20.288  42.664 -14.968  0.00  0.00    +0.000 N 
ATOM     12  C   UNL     1     -19.347  43.337 -14.207  0.00  0.00    +0.000 C 
ATOM     13  H   UNL     1     -20.734  41.828 -14.606  0.00  0.00    +0.000 HD
BRANCH  11  14
ATOM     14  C   UNL     1     -20.826  43.173 -16.120  0.00  0.00    +0.000 C 
ATOM     15  C   UNL     1     -19.972  43.011 -17.343  0.00  0.00    +0.000 C 
ATOM     16  C   UNL     1     -22.028  43.778 -16.172  0.00  0.00    +0.000 C 
BRANCH  16  17
ATOM     17  C   UNL     1     -22.669  44.341 -17.341  0.00  0.00    +0.000 C 
ATOM     18  C   UNL     1     -23.622  45.278 -17.271  0.00  0.00    +0.000 C 
ENDBRANCH  16  17
ENDBRANCH  11  14
ENDBRANCH   3  12
TORSDOF 3
ENDMDL
MODEL 2
REMARK VINA RESULT:    -5.852      4.695      6.341
REMARK INTER + INTRA:          -7.197
REMARK INTER:                  -6.905
REMARK INTRA:                  -0.292
REMARK UNBOUND:                -0.319
REMARK  Name = 123920016
REMARK  4 active torsions:
REMARK  status: ('A' for Active; 'I' for Inactive)
REMARK    1  A    between atoms: N_2  and  C_7
REMARK    2  A    between atoms: C_5  and  C_6
REMARK    3  A    between atoms: C_7  and  C_12
REMARK    4  A    between atoms: C_13  and  C_14
REMARK                            x       y       z     vdW  Elec       q    Type
REMARK                         _______ _______ _______ _____ _____    ______ ____
ROOT
ATOM      1  N   UNL     1     -21.483  40.585  -8.441  0.00  0.00    +0.000 NA
ATOM      2  N   UNL     1     -22.561  41.449  -6.500  0.00  0.00    +0.000 N 
ATOM      3  C   UNL     1     -19.239  41.309  -8.976  0.00  0.00    +0.000 A 
ATOM      4  C   UNL     1     -19.227  42.127  -7.851  0.00  0.00    +0.000 A 
ATOM      5  C   UNL     1     -20.381  40.565  -9.225  0.00  0.00    +0.000 A 
ATOM      6  C   UNL     1     -20.341  42.173  -7.021  0.00  0.00    +0.000 A 
ATOM      7  C   UNL     1     -21.434  41.390  -7.356  0.00  0.00    +0.000 A 
ATOM      8  H   UNL     1     -22.413  41.670  -5.523  0.00  0.00    +0.000 HD
ATOM      9  H   UNL     1     -23.355  40.871  -6.745  0.00  0.00    +0.000 HD
ENDROOT
BRANCH   3  12
ATOM     10  O   UNL     1     -17.355  40.235  -9.859  0.00  0.00    +0.000 OA
ATOM     11  N   UNL     1     -17.862  42.348 -10.686  0.00  0.00    +0.000 N 
ATOM     12  C   UNL     1     -18.065  41.237  -9.885  0.00  0.00    +0.000 C 
ATOM     13  H   UNL     1     -18.397  43.196 -10.529  0.00  0.00    +0.000 HD
BRANCH  11  14
ATOM     14  C   UNL     1     -16.818  42.460 -11.565  0.00  0.00    +0.000 C 
ATOM     15  C   UNL     1     -17.009  41.744 -12.870  0.00  0.00    +0.000 C 
ATOM     16  C   UNL     1     -15.696  43.155 -11.298  0.00  0.00    +0.000 C 
BRANCH  16  17
ATOM     17  C   UNL     1     -14.549  43.324 -12.166  0.00  0.00    +0.000 C 
ATOM     18  C   UNL     1     -13.328  43.626 -11.712  0.00  0.00    +0.000 C 
ENDBRANCH  16  17
ENDBRANCH  11  14
ENDBRANCH   3  12
TORSDOF 3
ENDMDL
MODEL 3
REMARK VINA RESULT:    -5.628      1.776      2.660
REMARK INTER + INTRA:          -6.934
REMARK INTER:                  -6.594
REMARK INTRA:                  -0.340
REMARK UNBOUND:                -0.319
REMARK  Name = 123920016
REMARK  4 active torsions:
REMARK  status: ('A' for Active; 'I' for Inactive)
REMARK    1  A    between atoms: N_2  and  C_7
REMARK    2  A    between atoms: C_5  and  C_6
REMARK    3  A    between atoms: C_7  and  C_12
REMARK    4  A    between atoms: C_13  and  C_14
REMARK                            x       y       z     vdW  Elec       q    Type
REMARK                         _______ _______ _______ _____ _____    ______ ____
ROOT
ATOM      1  N   UNL     1     -18.095  41.940  -9.159  0.00  0.00    +0.000 NA
ATOM      2  N   UNL     1     -19.054  40.415  -7.601  0.00  0.00    +0.000 N 
ATOM      3  C   UNL     1     -18.566  41.684 -11.517  0.00  0.00    +0.000 A 
ATOM      4  C   UNL     1     -19.363  40.577 -11.245  0.00  0.00    +0.000 A 
ATOM      5  C   UNL     1     -17.959  42.325 -10.449  0.00  0.00    +0.000 A 
ATOM      6  C   UNL     1     -19.527  40.152  -9.932  0.00  0.00    +0.000 A 
ATOM      7  C   UNL     1     -18.877  40.861  -8.934  0.00  0.00    +0.000 A 
ATOM      8  H   UNL     1     -19.913  39.933  -7.364  0.00  0.00    +0.000 HD
ATOM      9  H   UNL     1     -18.583  40.939  -6.874  0.00  0.00    +0.000 HD
ENDROOT
BRANCH   3  12
ATOM     10  O   UNL     1     -17.347  41.843 -13.510  0.00  0.00    +0.000 OA
ATOM     11  N   UNL     1     -19.379  42.970 -13.411  0.00  0.00    +0.000 N 
ATOM     12  C   UNL     1     -18.370  42.164 -12.910  0.00  0.00    +0.000 C 
ATOM     13  H   UNL     1     -20.106  43.319 -12.795  0.00  0.00    +0.000 HD
BRANCH  11  14
ATOM     14  C   UNL     1     -19.351  43.516 -14.666  0.00  0.00    +0.000 C 
ATOM     15  C   UNL     1     -18.671  44.851 -14.760  0.00  0.00    +0.000 C 
ATOM     16  C   UNL     1     -19.888  42.918 -15.746  0.00  0.00    +0.000 C 
BRANCH  16  17
ATOM     17  C   UNL     1     -19.903  43.423 -17.103  0.00  0.00    +0.000 C 
ATOM     18  C   UNL     1     -21.031  43.627 -17.793  0.00  0.00    +0.000 C 
ENDBRANCH  16  17
ENDBRANCH  11  14
ENDBRANCH   3  12
TORSDOF 3
ENDMDL
MODEL 4
REMARK VINA RESULT:    -5.478      0.821      1.590
REMARK INTER + INTRA:          -6.758
REMARK INTER:                  -6.462
REMARK INTRA:                  -0.295
REMARK UNBOUND:                -0.319
REMARK  Name = 123920016
REMARK  4 active torsions:
REMARK  status: ('A' for Active; 'I' for Inactive)
REMARK    1  A    between atoms: N_2  and  C_7
REMARK    2  A    between atoms: C_5  and  C_6
REMARK    3  A    between atoms: C_7  and  C_12
REMARK    4  A    between atoms: C_13  and  C_14
REMARK                            x       y       z     vdW  Elec       q    Type
REMARK                         _______ _______ _______ _____ _____    ______ ____
ROOT
ATOM      1  N   UNL     1     -19.068  40.818 -11.437  0.00  0.00    +0.000 NA
ATOM      2  N   UNL     1     -17.726  40.680  -9.474  0.00  0.00    +0.000 N 
ATOM      3  C   UNL     1     -18.821  42.716 -12.915  0.00  0.00    +0.000 A 
ATOM      4  C   UNL     1     -17.841  43.245 -12.083  0.00  0.00    +0.000 A 
ATOM      5  C   UNL     1     -19.399  41.510 -12.551  0.00  0.00    +0.000 A 
ATOM      6  C   UNL     1     -17.474  42.562 -10.929  0.00  0.00    +0.000 A 
ATOM      7  C   UNL     1     -18.112  41.364 -10.653  0.00  0.00    +0.000 A 
ATOM      8  H   UNL     1     -16.783  40.811  -9.127  0.00  0.00    +0.000 HD
ATOM      9  H   UNL     1     -18.190  39.801  -9.279  0.00  0.00    +0.000 HD
ENDROOT
BRANCH   3  12
ATOM     10  O   UNL     1     -18.864  44.578 -14.334  0.00  0.00    +0.000 OA
ATOM     11  N   UNL     1     -20.048  42.695 -15.011  0.00  0.00    +0.000 N 
ATOM     12  C   UNL     1     -19.237  43.421 -14.155  0.00  0.00    +0.000 C 
ATOM     13  H   UNL     1     -20.441  41.808 -14.713  0.00  0.00    +0.000 HD
BRANCH  11  14
ATOM     14  C   UNL     1     -20.540  43.196 -16.187  0.00  0.00    +0.000 C 
ATOM     15  C   UNL     1     -22.002  43.533 -16.168  0.00  0.00    +0.000 C 
ATOM     16  C   UNL     1     -19.787  43.379 -17.287  0.00  0.00    +0.000 C 
BRANCH  16  17
ATOM     17  C   UNL     1     -20.224  43.901 -18.565  0.00  0.00    +0.000 C 
ATOM     18  C   UNL     1     -19.812  45.076 -19.053  0.00  0.00    +0.000 C 
ENDBRANCH  16  17
ENDBRANCH  11  14
ENDBRANCH   3  12
TORSDOF 3
ENDMDL
MODEL 5
REMARK VINA RESULT:    -5.346      2.064      6.440
REMARK INTER + INTRA:          -6.603
REMARK INTER:                  -6.262
REMARK INTRA:                  -0.340
REMARK UNBOUND:                -0.319
REMARK  Name = 123920016
REMARK  4 active torsions:
REMARK  status: ('A' for Active; 'I' for Inactive)
REMARK    1  A    between atoms: N_2  and  C_7
REMARK    2  A    between atoms: C_5  and  C_6
REMARK    3  A    between atoms: C_7  and  C_12
REMARK    4  A    between atoms: C_13  and  C_14
REMARK                            x       y       z     vdW  Elec       q    Type
REMARK                         _______ _______ _______ _____ _____    ______ ____
ROOT
ATOM      1  N   UNL     1     -19.812  45.118 -17.344  0.00  0.00    +0.000 NA
ATOM      2  N   UNL     1     -21.468  44.962 -19.049  0.00  0.00    +0.000 N 
ATOM      3  C   UNL     1     -19.946  43.660 -15.419  0.00  0.00    +0.000 A 
ATOM      4  C   UNL     1     -21.101  43.078 -15.931  0.00  0.00    +0.000 A 
ATOM      5  C   UNL     1     -19.345  44.667 -16.157  0.00  0.00    +0.000 A 
ATOM      6  C   UNL     1     -21.611  43.515 -17.149  0.00  0.00    +0.000 A 
ATOM      7  C   UNL     1     -20.935  44.528 -17.810  0.00  0.00    +0.000 A 
ATOM      8  H   UNL     1     -22.000  44.301 -19.602  0.00  0.00    +0.000 HD
ATOM      9  H   UNL     1     -20.968  45.698 -19.532  0.00  0.00    +0.000 HD
ENDROOT
BRANCH   3  12
ATOM     10  O   UNL     1     -18.987  44.065 -13.322  0.00  0.00    +0.000 OA
ATOM     11  N   UNL     1     -19.314  41.846 -13.933  0.00  0.00    +0.000 N 
ATOM     12  C   UNL     1     -19.376  43.217 -14.120  0.00  0.00    +0.000 C 
ATOM     13  H   UNL     1     -19.504  41.216 -14.705  0.00  0.00    +0.000 HD
BRANCH  11  14
ATOM     14  C   UNL     1     -18.798  41.264 -12.806  0.00  0.00    +0.000 C 
ATOM     15  C   UNL     1     -17.321  41.001 -12.848  0.00  0.00    +0.000 C 
ATOM     16  C   UNL     1     -19.543  40.943 -11.731  0.00  0.00    +0.000 C 
BRANCH  16  17
ATOM     17  C   UNL     1     -19.081  40.329 -10.504  0.00  0.00    +0.000 C 
ATOM     18  C   UNL     1     -19.815  40.290  -9.386  0.00  0.00    +0.000 C 
ENDBRANCH  16  17
ENDBRANCH  11  14
ENDBRANCH   3  12
TORSDOF 3
ENDMDL
