MODEL 1
REMARK VINA RESULT:    -6.107      0.000      0.000
REMARK INTER + INTRA:          -6.492
REMARK INTER:                  -6.464
REMARK INTRA:                  -0.027
REMARK UNBOUND:                -0.027
REMARK  Name = 12404026
REMARK  2 active torsions:
REMARK  status: ('A' for Active; 'I' for Inactive)
REMARK    1  A    between atoms: C_5  and  C_8
REMARK    2  A    between atoms: C_6  and  C_11
REMARK                            x       y       z     vdW  Elec       q    Type
REMARK                         _______ _______ _______ _____ _____    ______ ____
ROOT
ATOM      1  N   UNL     1     -18.750  41.587  -8.302  0.00  0.00    +0.000 NA
ATOM      2  N   UNL     1     -18.693  39.987 -10.068  0.00  0.00    +0.000 N 
ATOM      3  C   UNL     1     -21.446  40.983  -7.869  0.00  0.00    +0.000 A 
ATOM      4  C   UNL     1     -20.810  41.940  -7.085  0.00  0.00    +0.000 A 
ATOM      5  C   UNL     1     -20.735  40.328  -8.869  0.00  0.00    +0.000 A 
ATOM      6  C   UNL     1     -22.884  40.643  -7.658  0.00  0.00    +0.000 C 
ATOM      7  C   UNL     1     -19.402  40.664  -9.043  0.00  0.00    +0.000 A 
ATOM      8  C   UNL     1     -19.474  42.202  -7.340  0.00  0.00    +0.000 A 
ATOM      9  H   UNL     1     -17.721  40.240 -10.195  0.00  0.00    +0.000 HD
ATOM     10  H   UNL     1     -19.210  39.649 -10.869  0.00  0.00    +0.000 HD
ENDROOT
BRANCH   4  13
ATOM     11  O   UNL     1     -21.405  42.306  -4.836  0.00  0.00    +0.000 OA
ATOM     12  N   UNL     1     -22.266  43.763  -6.384  0.00  0.00    +0.000 N 
ATOM     13  C   UNL     1     -21.502  42.656  -6.026  0.00  0.00    +0.000 C 
ATOM     14  H   UNL     1     -22.352  44.068  -7.348  0.00  0.00    +0.000 HD
ATOM     15  H   UNL     1     -22.763  44.302  -5.684  0.00  0.00    +0.000 HD
ENDBRANCH   4  13
TORSDOF 1
ENDMDL
MODEL 2
REMARK VINA RESULT:    -5.816      3.025      4.887
REMARK INTER + INTRA:          -6.184
REMARK INTER:                  -6.116
REMARK INTRA:                  -0.067
REMARK UNBOUND:                -0.027
REMARK  Name = 12404026
REMARK  2 active torsions:
REMARK  status: ('A' for Active; 'I' for Inactive)
REMARK    1  A    between atoms: C_5  and  C_8
REMARK    2  A    between atoms: C_6  and  C_11
REMARK                            x       y       z     vdW  Elec       q    Type
REMARK                         _______ _______ _______ _____ _____    ______ ____
ROOT
ATOM      1  N   UNL     1     -20.694  40.729  -7.920  0.00  0.00    +0.000 NA
ATOM      2  N   UNL     1     -20.110  42.361  -6.284  0.00  0.00    +0.000 N 
ATOM      3  C   UNL     1     -18.614  41.644  -9.548  0.00  0.00    +0.000 A 
ATOM      4  C   UNL     1     -19.423  40.595  -9.972  0.00  0.00    +0.000 A 
ATOM      5  C   UNL     1     -18.844  42.236  -8.311  0.00  0.00    +0.000 A 
ATOM      6  C   UNL     1     -17.497  42.151 -10.399  0.00  0.00    +0.000 C 
ATOM      7  C   UNL     1     -19.888  41.746  -7.542  0.00  0.00    +0.000 A 
ATOM      8  C   UNL     1     -20.440  40.179  -9.129  0.00  0.00    +0.000 A 
ATOM      9  H   UNL     1     -20.877  42.003  -5.729  0.00  0.00    +0.000 HD
ATOM     10  H   UNL     1     -19.845  43.331  -6.168  0.00  0.00    +0.000 HD
ENDROOT
BRANCH   4  13
ATOM     11  O   UNL     1     -18.453  38.975 -11.380  0.00  0.00    +0.000 OA
ATOM     12  N   UNL     1     -19.958  40.413 -12.342  0.00  0.00    +0.000 N 
ATOM     13  C   UNL     1     -19.229  39.939 -11.255  0.00  0.00    +0.000 C 
ATOM     14  H   UNL     1     -20.600  41.194 -12.260  0.00  0.00    +0.000 HD
ATOM     15  H   UNL     1     -19.865  39.987 -13.257  0.00  0.00    +0.000 HD
ENDBRANCH   4  13
TORSDOF 1
ENDMDL
MODEL 3
REMARK VINA RESULT:    -5.498      3.803      5.838
REMARK INTER + INTRA:          -5.847
REMARK INTER:                  -5.788
REMARK INTRA:                  -0.059
REMARK UNBOUND:                -0.027
REMARK  Name = 12404026
REMARK  2 active torsions:
REMARK  status: ('A' for Active; 'I' for Inactive)
REMARK    1  A    between atoms: C_5  and  C_8
REMARK    2  A    between atoms: C_6  and  C_11
REMARK                            x       y       z     vdW  Elec       q    Type
REMARK                         _______ _______ _______ _____ _____    ______ ____
ROOT
ATOM      1  N   UNL     1     -19.578  39.730  -9.571  0.00  0.00    +0.000 NA
ATOM      2  N   UNL     1     -19.593  40.790  -7.436  0.00  0.00    +0.000 N 
ATOM      3  C   UNL     1     -17.979  41.797 -10.565  0.00  0.00    +0.000 A 
ATOM      4  C   UNL     1     -18.367  40.752 -11.397  0.00  0.00    +0.000 A 
ATOM      5  C   UNL     1     -18.390  41.809  -9.236  0.00  0.00    +0.000 A 
ATOM      6  C   UNL     1     -17.125  42.912 -11.071  0.00  0.00    +0.000 C 
ATOM      7  C   UNL     1     -19.182  40.762  -8.793  0.00  0.00    +0.000 A 
ATOM      8  C   UNL     1     -19.159  39.753 -10.856  0.00  0.00    +0.000 A 
ATOM      9  H   UNL     1     -20.176  40.026  -7.119  0.00  0.00    +0.000 HD
ATOM     10  H   UNL     1     -19.689  41.688  -6.980  0.00  0.00    +0.000 HD
ENDROOT
BRANCH   4  13
ATOM     11  O   UNL     1     -18.650  41.214 -13.689  0.00  0.00    +0.000 OA
ATOM     12  N   UNL     1     -16.779  40.027 -13.097  0.00  0.00    +0.000 N 
ATOM     13  C   UNL     1     -17.967  40.686 -12.793  0.00  0.00    +0.000 C 
ATOM     14  H   UNL     1     -16.205  39.595 -12.381  0.00  0.00    +0.000 HD
ATOM     15  H   UNL     1     -16.452  39.958 -14.054  0.00  0.00    +0.000 HD
ENDBRANCH   4  13
TORSDOF 1
ENDMDL
MODEL 4
REMARK VINA RESULT:    -5.256      3.491      5.245
REMARK INTER + INTRA:          -5.590
REMARK INTER:                  -5.523
REMARK INTRA:                  -0.067
REMARK UNBOUND:                -0.027
REMARK  Name = 12404026
REMARK  2 active torsions:
REMARK  status: ('A' for Active; 'I' for Inactive)
REMARK    1  A    between atoms: C_5  and  C_8
REMARK    2  A    between atoms: C_6  and  C_11
REMARK                            x       y       z     vdW  Elec       q    Type
REMARK                         _______ _______ _______ _____ _____    ______ ____
ROOT
ATOM      1  N   UNL     1     -18.480  42.307  -8.483  0.00  0.00    +0.000 NA
ATOM      2  N   UNL     1     -20.265  41.410  -7.184  0.00  0.00    +0.000 N 
ATOM      3  C   UNL     1     -18.901  40.317 -10.401  0.00  0.00    +0.000 A 
ATOM      4  C   UNL     1     -17.895  41.260 -10.583  0.00  0.00    +0.000 A 
ATOM      5  C   UNL     1     -19.696  40.367  -9.261  0.00  0.00    +0.000 A 
ATOM      6  C   UNL     1     -19.147  39.245 -11.410  0.00  0.00    +0.000 C 
ATOM      7  C   UNL     1     -19.446  41.373  -8.341  0.00  0.00    +0.000 A 
ATOM      8  C   UNL     1     -17.727  42.225  -9.604  0.00  0.00    +0.000 A 
ATOM      9  H   UNL     1     -20.075  42.143  -6.512  0.00  0.00    +0.000 HD
ATOM     10  H   UNL     1     -20.664  40.543  -6.848  0.00  0.00    +0.000 HD
ENDROOT
BRANCH   4  13
ATOM     11  O   UNL     1     -17.356  41.853 -12.798  0.00  0.00    +0.000 OA
ATOM     12  N   UNL     1     -15.823  40.577 -11.666  0.00  0.00    +0.000 N 
ATOM     13  C   UNL     1     -17.035  41.257 -11.755  0.00  0.00    +0.000 C 
ATOM     14  H   UNL     1     -15.540  40.089 -10.823  0.00  0.00    +0.000 HD
ATOM     15  H   UNL     1     -15.183  40.548 -12.452  0.00  0.00    +0.000 HD
ENDBRANCH   4  13
TORSDOF 1
ENDMDL
MODEL 5
REMARK VINA RESULT:    -5.088      5.021      6.110
REMARK INTER + INTRA:          -5.413
REMARK INTER:                  -5.356
REMARK INTRA:                  -0.057
REMARK UNBOUND:                -0.027
REMARK  Name = 12404026
REMARK  2 active torsions:
REMARK  status: ('A' for Active; 'I' for Inactive)
REMARK    1  A    between atoms: C_5  and  C_8
REMARK    2  A    between atoms: C_6  and  C_11
REMARK                            x       y       z     vdW  Elec       q    Type
REMARK                         _______ _______ _______ _____ _____    ______ ____
ROOT
ATOM      1  N   UNL     1     -19.937  41.327 -13.176  0.00  0.00    +0.000 NA
ATOM      2  N   UNL     1     -20.327  43.259 -14.515  0.00  0.00    +0.000 N 
ATOM      3  C   UNL     1     -17.743  42.604 -12.005  0.00  0.00    +0.000 A 
ATOM      4  C   UNL     1     -18.088  41.312 -11.619  0.00  0.00    +0.000 A 
ATOM      5  C   UNL     1     -18.494  43.257 -12.977  0.00  0.00    +0.000 A 
ATOM      6  C   UNL     1     -16.576  43.307 -11.395  0.00  0.00    +0.000 C 
ATOM      7  C   UNL     1     -19.572  42.580 -13.526  0.00  0.00    +0.000 A 
ATOM      8  C   UNL     1     -19.183  40.724 -12.229  0.00  0.00    +0.000 A 
ATOM      9  H   UNL     1     -21.109  42.759 -14.918  0.00  0.00    +0.000 HD
ATOM     10  H   UNL     1     -19.862  43.958 -15.081  0.00  0.00    +0.000 HD
ENDROOT
BRANCH   4  13
ATOM     11  O   UNL     1     -16.314  39.940 -10.899  0.00  0.00    +0.000 OA
ATOM     12  N   UNL     1     -17.798  40.638  -9.296  0.00  0.00    +0.000 N 
ATOM     13  C   UNL     1     -17.340  40.582 -10.609  0.00  0.00    +0.000 C 
ATOM     14  H   UNL     1     -18.628  41.160  -9.037  0.00  0.00    +0.000 HD
ATOM     15  H   UNL     1     -17.309  40.152  -8.552  0.00  0.00    +0.000 HD
ENDBRANCH   4  13
TORSDOF 1
ENDMDL
