MODEL 1
REMARK VINA RESULT:    -5.992      0.000      0.000
REMARK INTER + INTRA:          -8.113
REMARK INTER:                  -7.394
REMARK INTRA:                  -0.720
REMARK UNBOUND:                -0.720
REMARK  Name = 12563417
REMARK  4 active torsions:
REMARK  status: ('A' for Active; 'I' for Inactive)
REMARK    1  A    between atoms: N_3  and  C_6
REMARK    2  A    between atoms: N_3  and  C_8
REMARK    3  A    between atoms: C_7  and  C_11
REMARK    4  A    between atoms: C_8  and  C_13
REMARK                            x       y       z     vdW  Elec       q    Type
REMARK                         _______ _______ _______ _____ _____    ______ ____
ROOT
ATOM      1  N   UNL     1     -18.499  42.252  -8.288  0.00  0.00    +0.000 NA
ATOM      2  C   UNL     1     -18.402  41.588  -9.463  0.00  0.00    +0.000 A 
ATOM      3  C   UNL     1     -19.340  40.674  -9.916  0.00  0.00    +0.000 A 
ATOM      4  C   UNL     1     -20.447  40.426  -9.114  0.00  0.00    +0.000 A 
ATOM      5  C   UNL     1     -20.582  41.089  -7.900  0.00  0.00    +0.000 A 
ATOM      6  C   UNL     1     -19.590  41.984  -7.536  0.00  0.00    +0.000 A 
ENDROOT
BRANCH   3   9
ATOM      7  O   UNL     1     -18.448  38.998 -11.311  0.00  0.00    +0.000 OA
ATOM      8  N   UNL     1     -19.975  40.425 -12.254  0.00  0.00    +0.000 N 
ATOM      9  C   UNL     1     -19.207  39.974 -11.187  0.00  0.00    +0.000 C 
ATOM     10  H   UNL     1     -20.606  41.214 -12.170  0.00  0.00    +0.000 HD
ATOM     11  H   UNL     1     -19.927  39.970 -13.160  0.00  0.00    +0.000 HD
ENDBRANCH   3   9
BRANCH   2  12
ATOM     12  N   UNL     1     -17.270  41.847 -10.275  0.00  0.00    +0.000 N 
ATOM     13  H   UNL     1     -16.398  41.425  -9.972  0.00  0.00    +0.000 HD
BRANCH  12  14
ATOM     14  C   UNL     1     -17.191  42.970 -11.150  0.00  0.00    +0.000 C 
BRANCH  14  16
ATOM     15  O   UNL     1     -17.665  42.224 -13.409  0.00  0.00    +0.000 OA
ATOM     16  C   UNL     1     -16.847  42.516 -12.543  0.00  0.00    +0.000 C 
ENDBRANCH  14  16
ENDBRANCH  12  14
ENDBRANCH   2  12
TORSDOF 4
ENDMDL
MODEL 2
REMARK VINA RESULT:    -5.299      1.628      3.096
REMARK INTER + INTRA:          -7.258
REMARK INTER:                  -6.553
REMARK INTRA:                  -0.706
REMARK UNBOUND:                -0.720
REMARK  Name = 12563417
REMARK  4 active torsions:
REMARK  status: ('A' for Active; 'I' for Inactive)
REMARK    1  A    between atoms: N_3  and  C_6
REMARK    2  A    between atoms: N_3  and  C_8
REMARK    3  A    between atoms: C_7  and  C_11
REMARK    4  A    between atoms: C_8  and  C_13
REMARK                            x       y       z     vdW  Elec       q    Type
REMARK                         _______ _______ _______ _____ _____    ______ ____
ROOT
ATOM      1  N   UNL     1     -19.985  40.004 -10.061  0.00  0.00    +0.000 NA
ATOM      2  C   UNL     1     -19.147  40.855 -10.696  0.00  0.00    +0.000 A 
ATOM      3  C   UNL     1     -18.337  41.773 -10.048  0.00  0.00    +0.000 A 
ATOM      4  C   UNL     1     -18.389  41.821  -8.660  0.00  0.00    +0.000 A 
ATOM      5  C   UNL     1     -19.238  40.962  -7.972  0.00  0.00    +0.000 A 
ATOM      6  C   UNL     1     -20.008  40.080  -8.712  0.00  0.00    +0.000 A 
ENDROOT
BRANCH   3   9
ATOM      7  O   UNL     1     -17.884  43.641 -11.410  0.00  0.00    +0.000 OA
ATOM      8  N   UNL     1     -16.078  42.434 -10.675  0.00  0.00    +0.000 N 
ATOM      9  C   UNL     1     -17.444  42.677 -10.761  0.00  0.00    +0.000 C 
ATOM     10  H   UNL     1     -15.700  41.657 -10.144  0.00  0.00    +0.000 HD
ATOM     11  H   UNL     1     -15.411  43.037 -11.147  0.00  0.00    +0.000 HD
ENDBRANCH   3   9
BRANCH   2  12
ATOM     12  N   UNL     1     -19.100  40.800 -12.112  0.00  0.00    +0.000 N 
ATOM     13  H   UNL     1     -19.765  41.389 -12.604  0.00  0.00    +0.000 HD
BRANCH  12  14
ATOM     14  C   UNL     1     -18.548  39.692 -12.821  0.00  0.00    +0.000 C 
BRANCH  14  16
ATOM     15  O   UNL     1     -16.265  39.516 -12.023  0.00  0.00    +0.000 OA
ATOM     16  C   UNL     1     -17.053  39.830 -12.909  0.00  0.00    +0.000 C 
ENDBRANCH  14  16
ENDBRANCH  12  14
ENDBRANCH   2  12
TORSDOF 4
ENDMDL
MODEL 3
REMARK VINA RESULT:    -5.034      1.788      3.807
REMARK INTER + INTRA:          -6.931
REMARK INTER:                  -6.518
REMARK INTRA:                  -0.413
REMARK UNBOUND:                -0.720
REMARK  Name = 12563417
REMARK  4 active torsions:
REMARK  status: ('A' for Active; 'I' for Inactive)
REMARK    1  A    between atoms: N_3  and  C_6
REMARK    2  A    between atoms: N_3  and  C_8
REMARK    3  A    between atoms: C_7  and  C_11
REMARK    4  A    between atoms: C_8  and  C_13
REMARK                            x       y       z     vdW  Elec       q    Type
REMARK                         _______ _______ _______ _____ _____    ______ ____
ROOT
ATOM      1  N   UNL     1     -17.542  43.074 -10.602  0.00  0.00    +0.000 NA
ATOM      2  C   UNL     1     -17.716  41.808 -11.046  0.00  0.00    +0.000 A 
ATOM      3  C   UNL     1     -18.049  41.483 -12.351  0.00  0.00    +0.000 A 
ATOM      4  C   UNL     1     -18.213  42.523 -13.259  0.00  0.00    +0.000 A 
ATOM      5  C   UNL     1     -18.043  43.837 -12.840  0.00  0.00    +0.000 A 
ATOM      6  C   UNL     1     -17.710  44.057 -11.514  0.00  0.00    +0.000 A 
ENDROOT
BRANCH   3   9
ATOM      7  O   UNL     1     -17.269  39.423 -13.186  0.00  0.00    +0.000 OA
ATOM      8  N   UNL     1     -19.517  39.583 -12.763  0.00  0.00    +0.000 N 
ATOM      9  C   UNL     1     -18.230  40.109 -12.799  0.00  0.00    +0.000 C 
ATOM     10  H   UNL     1     -20.313  40.125 -12.443  0.00  0.00    +0.000 HD
ATOM     11  H   UNL     1     -19.699  38.629 -13.058  0.00  0.00    +0.000 HD
ENDBRANCH   3   9
BRANCH   2  12
ATOM     12  N   UNL     1     -17.547  40.753 -10.115  0.00  0.00    +0.000 N 
ATOM     13  H   UNL     1     -17.097  39.914 -10.468  0.00  0.00    +0.000 HD
BRANCH  12  14
ATOM     14  C   UNL     1     -18.344  40.629  -8.939  0.00  0.00    +0.000 C 
BRANCH  14  16
ATOM     15  O   UNL     1     -20.738  40.670  -8.552  0.00  0.00    +0.000 OA
ATOM     16  C   UNL     1     -19.794  40.480  -9.312  0.00  0.00    +0.000 C 
ENDBRANCH  14  16
ENDBRANCH  12  14
ENDBRANCH   2  12
TORSDOF 4
ENDMDL
MODEL 4
REMARK VINA RESULT:    -4.991      2.994      4.388
REMARK INTER + INTRA:          -6.878
REMARK INTER:                  -6.466
REMARK INTRA:                  -0.412
REMARK UNBOUND:                -0.720
REMARK  Name = 12563417
REMARK  4 active torsions:
REMARK  status: ('A' for Active; 'I' for Inactive)
REMARK    1  A    between atoms: N_3  and  C_6
REMARK    2  A    between atoms: N_3  and  C_8
REMARK    3  A    between atoms: C_7  and  C_11
REMARK    4  A    between atoms: C_8  and  C_13
REMARK                            x       y       z     vdW  Elec       q    Type
REMARK                         _______ _______ _______ _____ _____    ______ ____
ROOT
ATOM      1  N   UNL     1     -18.087  43.869 -13.620  0.00  0.00    +0.000 NA
ATOM      2  C   UNL     1     -18.728  42.688 -13.466  0.00  0.00    +0.000 A 
ATOM      3  C   UNL     1     -18.571  41.858 -12.367  0.00  0.00    +0.000 A 
ATOM      4  C   UNL     1     -17.701  42.266 -11.363  0.00  0.00    +0.000 A 
ATOM      5  C   UNL     1     -17.024  43.475 -11.485  0.00  0.00    +0.000 A 
ATOM      6  C   UNL     1     -17.250  44.232 -12.623  0.00  0.00    +0.000 A 
ENDROOT
BRANCH   3   9
ATOM      7  O   UNL     1     -19.239  39.730 -13.125  0.00  0.00    +0.000 OA
ATOM      8  N   UNL     1     -19.979  40.368 -11.052  0.00  0.00    +0.000 N 
ATOM      9  C   UNL     1     -19.275  40.590 -12.230  0.00  0.00    +0.000 C 
ATOM     10  H   UNL     1     -20.014  41.055 -10.306  0.00  0.00    +0.000 HD
ATOM     11  H   UNL     1     -20.482  39.500 -10.900  0.00  0.00    +0.000 HD
ENDBRANCH   3   9
BRANCH   2  12
ATOM     12  N   UNL     1     -19.613  42.278 -14.494  0.00  0.00    +0.000 N 
ATOM     13  H   UNL     1     -19.442  41.359 -14.890  0.00  0.00    +0.000 HD
BRANCH  12  14
ATOM     14  C   UNL     1     -20.367  43.204 -15.275  0.00  0.00    +0.000 C 
BRANCH  14  16
ATOM     15  O   UNL     1     -20.487  41.955 -17.351  0.00  0.00    +0.000 OA
ATOM     16  C   UNL     1     -20.128  42.957 -16.740  0.00  0.00    +0.000 C 
ENDBRANCH  14  16
ENDBRANCH  12  14
ENDBRANCH   2  12
TORSDOF 4
ENDMDL
MODEL 5
REMARK VINA RESULT:    -4.870      3.336      4.601
REMARK INTER + INTRA:          -6.729
REMARK INTER:                  -6.289
REMARK INTRA:                  -0.440
REMARK UNBOUND:                -0.720
REMARK  Name = 12563417
REMARK  4 active torsions:
REMARK  status: ('A' for Active; 'I' for Inactive)
REMARK    1  A    between atoms: N_3  and  C_6
REMARK    2  A    between atoms: N_3  and  C_8
REMARK    3  A    between atoms: C_7  and  C_11
REMARK    4  A    between atoms: C_8  and  C_13
REMARK                            x       y       z     vdW  Elec       q    Type
REMARK                         _______ _______ _______ _____ _____    ______ ____
ROOT
ATOM      1  N   UNL     1     -19.176  40.619 -13.222  0.00  0.00    +0.000 NA
ATOM      2  C   UNL     1     -18.361  41.698 -13.205  0.00  0.00    +0.000 A 
ATOM      3  C   UNL     1     -17.324  41.874 -12.302  0.00  0.00    +0.000 A 
ATOM      4  C   UNL     1     -17.111  40.878 -11.356  0.00  0.00    +0.000 A 
ATOM      5  C   UNL     1     -17.928  39.754 -11.341  0.00  0.00    +0.000 A 
ATOM      6  C   UNL     1     -18.937  39.673 -12.287  0.00  0.00    +0.000 A 
ENDROOT
BRANCH   3   9
ATOM      7  O   UNL     1     -16.916  44.184 -12.090  0.00  0.00    +0.000 OA
ATOM      8  N   UNL     1     -15.109  42.853 -12.555  0.00  0.00    +0.000 N 
ATOM      9  C   UNL     1     -16.463  43.048 -12.310  0.00  0.00    +0.000 C 
ATOM     10  H   UNL     1     -14.719  41.933 -12.729  0.00  0.00    +0.000 HD
ATOM     11  H   UNL     1     -14.462  43.636 -12.566  0.00  0.00    +0.000 HD
ENDBRANCH   3   9
BRANCH   2  12
ATOM     12  N   UNL     1     -18.585  42.709 -14.174  0.00  0.00    +0.000 N 
ATOM     13  H   UNL     1     -17.866  43.422 -14.249  0.00  0.00    +0.000 HD
BRANCH  12  14
ATOM     14  C   UNL     1     -19.884  43.027 -14.668  0.00  0.00    +0.000 C 
BRANCH  14  16
ATOM     15  O   UNL     1     -20.348  42.228 -16.910  0.00  0.00    +0.000 OA
ATOM     16  C   UNL     1     -19.866  43.080 -16.171  0.00  0.00    +0.000 C 
ENDBRANCH  14  16
ENDBRANCH  12  14
ENDBRANCH   2  12
TORSDOF 4
ENDMDL
