MODEL 1
REMARK VINA RESULT:    -5.630      0.000      0.000
REMARK INTER + INTRA:          -7.071
REMARK INTER:                  -6.618
REMARK INTRA:                  -0.453
REMARK UNBOUND:                -0.453
REMARK  Name = 126568298
REMARK  3 active torsions:
REMARK  status: ('A' for Active; 'I' for Inactive)
REMARK    1  A    between atoms: C_8  and  C_9
REMARK    2  A    between atoms: C_9  and  C_12
REMARK    3  A    between atoms: C_10  and  C_15
REMARK                            x       y       z     vdW  Elec       q    Type
REMARK                         _______ _______ _______ _____ _____    ______ ____
ROOT
ATOM      1  N   UNL     1     -19.971  41.168 -13.193  0.00  0.00    +0.000 NA
ATOM      2  N   UNL     1     -19.504  39.300 -11.811  0.00  0.00    +0.000 N 
ATOM      3  C   UNL     1     -17.850  42.570 -12.031  0.00  0.00    +0.000 A 
ATOM      4  C   UNL     1     -18.140  41.275 -11.618  0.00  0.00    +0.000 A 
ATOM      5  C   UNL     1     -18.620  43.166 -13.025  0.00  0.00    +0.000 A 
ATOM      6  C   UNL     1     -19.201  40.622 -12.225  0.00  0.00    +0.000 A 
ATOM      7  C   UNL     1     -19.661  42.429 -13.569  0.00  0.00    +0.000 A 
ATOM      8  H   UNL     1     -18.749  38.707 -11.492  0.00  0.00    +0.000 HD
ATOM      9  H   UNL     1     -20.289  38.853 -12.270  0.00  0.00    +0.000 HD
ENDROOT
BRANCH   4  12
ATOM     10  O   UNL     1     -16.355  39.940 -10.857  0.00  0.00    +0.000 OA
ATOM     11  N   UNL     1     -17.722  40.848  -9.256  0.00  0.00    +0.000 N 
ATOM     12  C   UNL     1     -17.344  40.636 -10.576  0.00  0.00    +0.000 C 
ATOM     13  H   UNL     1     -18.524  41.420  -9.010  0.00  0.00    +0.000 HD
ATOM     14  H   UNL     1     -17.201  40.434  -8.490  0.00  0.00    +0.000 HD
ENDBRANCH   4  12
BRANCH   3  16
ATOM     15  F   UNL     1     -15.489  42.896 -11.824  0.00  0.00    +0.000 F 
ATOM     16  C   UNL     1     -16.725  43.345 -11.429  0.00  0.00    +0.000 C 
BRANCH  16  19
ATOM     17  F   UNL     1     -17.615  45.463 -10.911  0.00  0.00    +0.000 F 
ATOM     18  F   UNL     1     -15.562  45.385 -11.633  0.00  0.00    +0.000 F 
ATOM     19  C   UNL     1     -16.789  44.825 -11.778  0.00  0.00    +0.000 C 
ENDBRANCH  16  19
ENDBRANCH   3  16
TORSDOF 3
ENDMDL
MODEL 2
REMARK VINA RESULT:    -5.580      3.162      4.121
REMARK INTER + INTRA:          -7.012
REMARK INTER:                  -7.274
REMARK INTRA:                   0.263
REMARK UNBOUND:                -0.453
REMARK  Name = 126568298
REMARK  3 active torsions:
REMARK  status: ('A' for Active; 'I' for Inactive)
REMARK    1  A    between atoms: C_8  and  C_9
REMARK    2  A    between atoms: C_9  and  C_12
REMARK    3  A    between atoms: C_10  and  C_15
REMARK                            x       y       z     vdW  Elec       q    Type
REMARK                         _______ _______ _______ _____ _____    ______ ____
ROOT
ATOM      1  N   UNL     1     -18.645  40.189 -13.140  0.00  0.00    +0.000 NA
ATOM      2  N   UNL     1     -17.350  42.102 -13.667  0.00  0.00    +0.000 N 
ATOM      3  C   UNL     1     -18.532  40.848 -10.426  0.00  0.00    +0.000 A 
ATOM      4  C   UNL     1     -17.903  41.655 -11.367  0.00  0.00    +0.000 A 
ATOM      5  C   UNL     1     -19.218  39.711 -10.840  0.00  0.00    +0.000 A 
ATOM      6  C   UNL     1     -17.988  41.285 -12.700  0.00  0.00    +0.000 A 
ATOM      7  C   UNL     1     -19.244  39.428 -12.196  0.00  0.00    +0.000 A 
ATOM      8  H   UNL     1     -17.280  43.096 -13.491  0.00  0.00    +0.000 HD
ATOM      9  H   UNL     1     -17.426  41.802 -14.632  0.00  0.00    +0.000 HD
ENDROOT
BRANCH   4  12
ATOM     10  O   UNL     1     -17.724  43.964 -10.943  0.00  0.00    +0.000 OA
ATOM     11  N   UNL     1     -15.858  42.693 -10.543  0.00  0.00    +0.000 N 
ATOM     12  C   UNL     1     -17.177  42.850 -10.949  0.00  0.00    +0.000 C 
ATOM     13  H   UNL     1     -15.400  41.787 -10.537  0.00  0.00    +0.000 HD
ATOM     14  H   UNL     1     -15.308  43.488 -10.236  0.00  0.00    +0.000 HD
ENDBRANCH   4  12
BRANCH   3  16
ATOM     15  F   UNL     1     -18.506  42.523  -8.717  0.00  0.00    +0.000 F 
ATOM     16  C   UNL     1     -18.489  41.174  -8.969  0.00  0.00    +0.000 C 
BRANCH  16  19
ATOM     17  F   UNL     1     -19.535  40.849  -6.884  0.00  0.00    +0.000 F 
ATOM     18  F   UNL     1     -20.819  41.131  -8.619  0.00  0.00    +0.000 F 
ATOM     19  C   UNL     1     -19.658  40.567  -8.205  0.00  0.00    +0.000 C 
ENDBRANCH  16  19
ENDBRANCH   3  16
TORSDOF 3
ENDMDL
MODEL 3
REMARK VINA RESULT:    -5.295      2.189      3.201
REMARK INTER + INTRA:          -6.677
REMARK INTER:                  -6.286
REMARK INTRA:                  -0.391
REMARK UNBOUND:                -0.453
REMARK  Name = 126568298
REMARK  3 active torsions:
REMARK  status: ('A' for Active; 'I' for Inactive)
REMARK    1  A    between atoms: C_8  and  C_9
REMARK    2  A    between atoms: C_9  and  C_12
REMARK    3  A    between atoms: C_10  and  C_15
REMARK                            x       y       z     vdW  Elec       q    Type
REMARK                         _______ _______ _______ _____ _____    ______ ____
ROOT
ATOM      1  N   UNL     1     -19.034  44.362 -13.794  0.00  0.00    +0.000 NA
ATOM      2  N   UNL     1     -20.002  42.509 -14.909  0.00  0.00    +0.000 N 
ATOM      3  C   UNL     1     -17.942  42.650 -11.873  0.00  0.00    +0.000 A 
ATOM      4  C   UNL     1     -18.705  42.134 -12.915  0.00  0.00    +0.000 A 
ATOM      5  C   UNL     1     -17.726  44.021 -11.789  0.00  0.00    +0.000 A 
ATOM      6  C   UNL     1     -19.224  43.025 -13.842  0.00  0.00    +0.000 A 
ATOM      7  C   UNL     1     -18.289  44.828 -12.766  0.00  0.00    +0.000 A 
ATOM      8  H   UNL     1     -19.789  41.584 -15.260  0.00  0.00    +0.000 HD
ATOM      9  H   UNL     1     -20.371  43.186 -15.566  0.00  0.00    +0.000 HD
ENDROOT
BRANCH   4  12
ATOM     10  O   UNL     1     -18.160  39.958 -13.632  0.00  0.00    +0.000 OA
ATOM     11  N   UNL     1     -20.071  40.188 -12.385  0.00  0.00    +0.000 N 
ATOM     12  C   UNL     1     -18.944  40.699 -13.017  0.00  0.00    +0.000 C 
ATOM     13  H   UNL     1     -20.717  40.780 -11.873  0.00  0.00    +0.000 HD
ATOM     14  H   UNL     1     -20.283  39.196 -12.417  0.00  0.00    +0.000 HD
ENDBRANCH   4  12
BRANCH   3  16
ATOM     15  F   UNL     1     -16.040  42.064 -10.546  0.00  0.00    +0.000 F 
ATOM     16  C   UNL     1     -17.347  41.760 -10.832  0.00  0.00    +0.000 C 
BRANCH  16  19
ATOM     17  F   UNL     1     -18.012  43.060  -8.983  0.00  0.00    +0.000 F 
ATOM     18  F   UNL     1     -19.430  41.593  -9.741  0.00  0.00    +0.000 F 
ATOM     19  C   UNL     1     -18.112  41.817  -9.516  0.00  0.00    +0.000 C 
ENDBRANCH  16  19
ENDBRANCH   3  16
TORSDOF 3
ENDMDL
MODEL 4
REMARK VINA RESULT:    -5.089      6.288      7.467
REMARK INTER + INTRA:          -6.435
REMARK INTER:                  -5.847
REMARK INTRA:                  -0.588
REMARK UNBOUND:                -0.453
REMARK  Name = 126568298
REMARK  3 active torsions:
REMARK  status: ('A' for Active; 'I' for Inactive)
REMARK    1  A    between atoms: C_8  and  C_9
REMARK    2  A    between atoms: C_9  and  C_12
REMARK    3  A    between atoms: C_10  and  C_15
REMARK                            x       y       z     vdW  Elec       q    Type
REMARK                         _______ _______ _______ _____ _____    ______ ____
ROOT
ATOM      1  N   UNL     1     -23.056  45.692 -17.266  0.00  0.00    +0.000 NA
ATOM      2  N   UNL     1     -22.891  43.844 -15.793  0.00  0.00    +0.000 N 
ATOM      3  C   UNL     1     -20.651  44.950 -18.483  0.00  0.00    +0.000 A 
ATOM      4  C   UNL     1     -21.164  44.197 -17.433  0.00  0.00    +0.000 A 
ATOM      5  C   UNL     1     -21.339  46.075 -18.925  0.00  0.00    +0.000 A 
ATOM      6  C   UNL     1     -22.359  44.606 -16.864  0.00  0.00    +0.000 A 
ATOM      7  C   UNL     1     -22.526  46.401 -18.289  0.00  0.00    +0.000 A 
ATOM      8  H   UNL     1     -22.713  42.848 -15.772  0.00  0.00    +0.000 HD
ATOM      9  H   UNL     1     -23.762  44.173 -15.395  0.00  0.00    +0.000 HD
ENDROOT
BRANCH   4  12
ATOM     10  O   UNL     1     -20.725  41.884 -17.386  0.00  0.00    +0.000 OA
ATOM     11  N   UNL     1     -19.451  43.205 -16.012  0.00  0.00    +0.000 N 
ATOM     12  C   UNL     1     -20.454  43.016 -16.955  0.00  0.00    +0.000 C 
ATOM     13  H   UNL     1     -19.213  44.125 -15.655  0.00  0.00    +0.000 HD
ATOM     14  H   UNL     1     -18.920  42.420 -15.649  0.00  0.00    +0.000 HD
ENDBRANCH   4  12
BRANCH   3  16
ATOM     15  F   UNL     1     -19.463  44.549 -20.521  0.00  0.00    +0.000 F 
ATOM     16  C   UNL     1     -19.368  44.579 -19.152  0.00  0.00    +0.000 C 
BRANCH  16  19
ATOM     17  F   UNL     1     -18.294  45.860 -17.491  0.00  0.00    +0.000 F 
ATOM     18  F   UNL     1     -17.042  44.933 -19.012  0.00  0.00    +0.000 F 
ATOM     19  C   UNL     1     -18.238  45.540 -18.808  0.00  0.00    +0.000 C 
ENDBRANCH  16  19
ENDBRANCH   3  16
TORSDOF 3
ENDMDL
MODEL 5
REMARK VINA RESULT:    -5.024      3.051      4.164
REMARK INTER + INTRA:          -6.358
REMARK INTER:                  -5.842
REMARK INTRA:                  -0.516
REMARK UNBOUND:                -0.453
REMARK  Name = 126568298
REMARK  3 active torsions:
REMARK  status: ('A' for Active; 'I' for Inactive)
REMARK    1  A    between atoms: C_8  and  C_9
REMARK    2  A    between atoms: C_9  and  C_12
REMARK    3  A    between atoms: C_10  and  C_15
REMARK                            x       y       z     vdW  Elec       q    Type
REMARK                         _______ _______ _______ _____ _____    ______ ____
ROOT
ATOM      1  N   UNL     1     -19.055  43.737 -14.442  0.00  0.00    +0.000 NA
ATOM      2  N   UNL     1     -17.253  45.249 -14.729  0.00  0.00    +0.000 N 
ATOM      3  C   UNL     1     -17.766  42.606 -12.234  0.00  0.00    +0.000 A 
ATOM      4  C   UNL     1     -17.172  43.653 -12.928  0.00  0.00    +0.000 A 
ATOM      5  C   UNL     1     -19.005  42.122 -12.643  0.00  0.00    +0.000 A 
ATOM      6  C   UNL     1     -17.851  44.180 -14.015  0.00  0.00    +0.000 A 
ATOM      7  C   UNL     1     -19.602  42.717 -13.743  0.00  0.00    +0.000 A 
ATOM      8  H   UNL     1     -16.662  45.898 -14.225  0.00  0.00    +0.000 HD
ATOM      9  H   UNL     1     -17.772  45.608 -15.522  0.00  0.00    +0.000 HD
ENDROOT
BRANCH   4  12
ATOM     10  O   UNL     1     -15.780  45.185 -11.804  0.00  0.00    +0.000 OA
ATOM     11  N   UNL     1     -14.742  43.478 -12.929  0.00  0.00    +0.000 N 
ATOM     12  C   UNL     1     -15.872  44.171 -12.514  0.00  0.00    +0.000 C 
ATOM     13  H   UNL     1     -14.801  42.644 -13.504  0.00  0.00    +0.000 HD
ATOM     14  H   UNL     1     -13.813  43.789 -12.665  0.00  0.00    +0.000 HD
ENDBRANCH   4  12
BRANCH   3  16
ATOM     15  F   UNL     1     -17.305  42.679  -9.887  0.00  0.00    +0.000 F 
ATOM     16  C   UNL     1     -17.102  41.981 -11.052  0.00  0.00    +0.000 C 
BRANCH  16  19
ATOM     17  F   UNL     1     -16.713  39.678 -11.359  0.00  0.00    +0.000 F 
ATOM     18  F   UNL     1     -17.598  40.304  -9.471  0.00  0.00    +0.000 F 
ATOM     19  C   UNL     1     -17.584  40.558 -10.803  0.00  0.00    +0.000 C 
ENDBRANCH  16  19
ENDBRANCH   3  16
TORSDOF 3
ENDMDL
