MODEL 1
REMARK VINA RESULT:    -6.507      0.000      0.000
REMARK INTER + INTRA:          -7.777
REMARK INTER:                  -7.458
REMARK INTRA:                  -0.319
REMARK UNBOUND:                -0.319
REMARK  Name = 126674974
REMARK  3 active torsions:
REMARK  status: ('A' for Active; 'I' for Inactive)
REMARK    1  A    between atoms: N_3  and  C_8
REMARK    2  A    between atoms: C_5  and  C_10
REMARK    3  A    between atoms: C_7  and  C_11
REMARK                            x       y       z     vdW  Elec       q    Type
REMARK                         _______ _______ _______ _____ _____    ______ ____
ROOT
ATOM      1  N   UNL     1     -18.423  42.086  -8.209  0.00  0.00    +0.000 NA
ATOM      2  C   UNL     1     -19.379  40.669  -9.919  0.00  0.00    +0.000 A 
ATOM      3  C   UNL     1     -20.579  40.620  -9.218  0.00  0.00    +0.000 A 
ATOM      4  C   UNL     1     -20.702  41.304  -8.014  0.00  0.00    +0.000 A 
ATOM      5  C   UNL     1     -18.341  41.409  -9.377  0.00  0.00    +0.000 A 
ATOM      6  C   UNL     1     -19.605  42.015  -7.556  0.00  0.00    +0.000 A 
ENDROOT
BRANCH   2   9
ATOM      7  O   UNL     1     -18.566  38.923 -11.275  0.00  0.00    +0.000 OA
ATOM      8  N   UNL     1     -19.962  40.444 -12.274  0.00  0.00    +0.000 N 
ATOM      9  C   UNL     1     -19.259  39.951 -11.180  0.00  0.00    +0.000 C 
ATOM     10  H   UNL     1     -20.538  41.277 -12.213  0.00  0.00    +0.000 HD
ATOM     11  H   UNL     1     -19.919  39.979 -13.175  0.00  0.00    +0.000 HD
ENDBRANCH   2   9
BRANCH   5  12
ATOM     12  N   UNL     1     -17.113  41.462 -10.083  0.00  0.00    +0.000 N 
ATOM     13  H   UNL     1     -16.643  40.593 -10.303  0.00  0.00    +0.000 HD
ATOM     14  H   UNL     1     -16.538  42.280  -9.928  0.00  0.00    +0.000 HD
ENDBRANCH   5  12
BRANCH   4  15
ATOM     15  C   UNL     1     -21.941  41.271  -7.258  0.00  0.00    +0.000 C 
ATOM     16  C   UNL     1     -22.559  42.327  -6.683  0.00  0.00    +0.000 C 
ENDBRANCH   4  15
TORSDOF 3
ENDMDL
MODEL 2
REMARK VINA RESULT:    -5.966      1.804      2.693
REMARK INTER + INTRA:          -7.157
REMARK INTER:                  -6.838
REMARK INTRA:                  -0.318
REMARK UNBOUND:                -0.319
REMARK  Name = 126674974
REMARK  3 active torsions:
REMARK  status: ('A' for Active; 'I' for Inactive)
REMARK    1  A    between atoms: N_3  and  C_8
REMARK    2  A    between atoms: C_5  and  C_10
REMARK    3  A    between atoms: C_7  and  C_11
REMARK                            x       y       z     vdW  Elec       q    Type
REMARK                         _______ _______ _______ _____ _____    ______ ____
ROOT
ATOM      1  N   UNL     1     -20.107  39.489  -9.708  0.00  0.00    +0.000 NA
ATOM      2  C   UNL     1     -18.230  40.885 -10.318  0.00  0.00    +0.000 A 
ATOM      3  C   UNL     1     -18.417  41.650  -9.172  0.00  0.00    +0.000 A 
ATOM      4  C   UNL     1     -19.448  41.335  -8.293  0.00  0.00    +0.000 A 
ATOM      5  C   UNL     1     -19.094  39.825 -10.539  0.00  0.00    +0.000 A 
ATOM      6  C   UNL     1     -20.258  40.255  -8.604  0.00  0.00    +0.000 A 
ENDROOT
BRANCH   2   9
ATOM      7  O   UNL     1     -17.374  41.732 -12.342  0.00  0.00    +0.000 OA
ATOM      8  N   UNL     1     -15.846  40.969 -10.812  0.00  0.00    +0.000 N 
ATOM      9  C   UNL     1     -17.148  41.221 -11.232  0.00  0.00    +0.000 C 
ATOM     10  H   UNL     1     -15.641  40.560  -9.906  0.00  0.00    +0.000 HD
ATOM     11  H   UNL     1     -15.053  41.190 -11.406  0.00  0.00    +0.000 HD
ENDBRANCH   2   9
BRANCH   5  12
ATOM     12  N   UNL     1     -18.912  39.042 -11.707  0.00  0.00    +0.000 N 
ATOM     13  H   UNL     1     -17.976  38.937 -12.078  0.00  0.00    +0.000 HD
ATOM     14  H   UNL     1     -19.682  39.026 -12.364  0.00  0.00    +0.000 HD
ENDBRANCH   5  12
BRANCH   4  15
ATOM     15  C   UNL     1     -19.670  42.114  -7.089  0.00  0.00    +0.000 C 
ATOM     16  C   UNL     1     -20.714  41.999  -6.239  0.00  0.00    +0.000 C 
ENDBRANCH   4  15
TORSDOF 3
ENDMDL
MODEL 3
REMARK VINA RESULT:    -5.772      3.314      5.123
REMARK INTER + INTRA:          -6.935
REMARK INTER:                  -6.751
REMARK INTRA:                  -0.184
REMARK UNBOUND:                -0.319
REMARK  Name = 126674974
REMARK  3 active torsions:
REMARK  status: ('A' for Active; 'I' for Inactive)
REMARK    1  A    between atoms: N_3  and  C_8
REMARK    2  A    between atoms: C_5  and  C_10
REMARK    3  A    between atoms: C_7  and  C_11
REMARK                            x       y       z     vdW  Elec       q    Type
REMARK                         _______ _______ _______ _____ _____    ______ ____
ROOT
ATOM      1  N   UNL     1     -21.603  39.991  -8.658  0.00  0.00    +0.000 NA
ATOM      2  C   UNL     1     -21.184  41.808  -7.118  0.00  0.00    +0.000 A 
ATOM      3  C   UNL     1     -19.862  41.872  -7.542  0.00  0.00    +0.000 A 
ATOM      4  C   UNL     1     -19.409  40.997  -8.524  0.00  0.00    +0.000 A 
ATOM      5  C   UNL     1     -22.007  40.858  -7.702  0.00  0.00    +0.000 A 
ATOM      6  C   UNL     1     -20.311  40.084  -9.045  0.00  0.00    +0.000 A 
ENDROOT
BRANCH   2   9
ATOM      7  O   UNL     1     -21.559  42.448  -4.883  0.00  0.00    +0.000 OA
ATOM      8  N   UNL     1     -22.185  43.942  -6.505  0.00  0.00    +0.000 N 
ATOM      9  C   UNL     1     -21.650  42.728  -6.090  0.00  0.00    +0.000 C 
ATOM     10  H   UNL     1     -22.261  44.192  -7.486  0.00  0.00    +0.000 HD
ATOM     11  H   UNL     1     -22.519  44.624  -5.831  0.00  0.00    +0.000 HD
ENDBRANCH   2   9
BRANCH   5  12
ATOM     12  N   UNL     1     -23.356  40.784  -7.273  0.00  0.00    +0.000 N 
ATOM     13  H   UNL     1     -24.050  40.426  -7.917  0.00  0.00    +0.000 HD
ATOM     14  H   UNL     1     -23.655  41.479  -6.601  0.00  0.00    +0.000 HD
ENDBRANCH   5  12
BRANCH   4  15
ATOM     15  C   UNL     1     -18.034  41.038  -8.988  0.00  0.00    +0.000 C 
ATOM     16  C   UNL     1     -17.559  40.516 -10.140  0.00  0.00    +0.000 C 
ENDBRANCH   4  15
TORSDOF 3
ENDMDL
MODEL 4
REMARK VINA RESULT:    -5.391      2.398      3.619
REMARK INTER + INTRA:          -6.498
REMARK INTER:                  -6.164
REMARK INTRA:                  -0.334
REMARK UNBOUND:                -0.319
REMARK  Name = 126674974
REMARK  3 active torsions:
REMARK  status: ('A' for Active; 'I' for Inactive)
REMARK    1  A    between atoms: N_3  and  C_8
REMARK    2  A    between atoms: C_5  and  C_10
REMARK    3  A    between atoms: C_7  and  C_11
REMARK                            x       y       z     vdW  Elec       q    Type
REMARK                         _______ _______ _______ _____ _____    ______ ____
ROOT
ATOM      1  N   UNL     1     -18.553  39.406 -11.628  0.00  0.00    +0.000 NA
ATOM      2  C   UNL     1     -17.321  41.446 -11.219  0.00  0.00    +0.000 A 
ATOM      3  C   UNL     1     -18.099  41.700 -10.095  0.00  0.00    +0.000 A 
ATOM      4  C   UNL     1     -19.104  40.807  -9.736  0.00  0.00    +0.000 A 
ATOM      5  C   UNL     1     -17.586  40.297 -11.946  0.00  0.00    +0.000 A 
ATOM      6  C   UNL     1     -19.289  39.686 -10.529  0.00  0.00    +0.000 A 
ENDROOT
BRANCH   2   9
ATOM      7  O   UNL     1     -16.387  43.131 -12.574  0.00  0.00    +0.000 OA
ATOM      8  N   UNL     1     -15.137  42.434 -10.783  0.00  0.00    +0.000 N 
ATOM      9  C   UNL     1     -16.271  42.385 -11.587  0.00  0.00    +0.000 C 
ATOM     10  H   UNL     1     -15.027  41.838  -9.969  0.00  0.00    +0.000 HD
ATOM     11  H   UNL     1     -14.378  43.075 -10.990  0.00  0.00    +0.000 HD
ENDBRANCH   2   9
BRANCH   5  12
ATOM     12  N   UNL     1     -16.799  40.032 -13.095  0.00  0.00    +0.000 N 
ATOM     13  H   UNL     1     -16.719  39.076 -13.418  0.00  0.00    +0.000 HD
ATOM     14  H   UNL     1     -16.012  40.648 -13.254  0.00  0.00    +0.000 HD
ENDBRANCH   5  12
BRANCH   4  15
ATOM     15  C   UNL     1     -19.933  41.044  -8.569  0.00  0.00    +0.000 C 
ATOM     16  C   UNL     1     -19.634  41.838  -7.518  0.00  0.00    +0.000 C 
ENDBRANCH   4  15
TORSDOF 3
ENDMDL
MODEL 5
REMARK VINA RESULT:    -5.208      2.002      2.621
REMARK INTER + INTRA:          -6.288
REMARK INTER:                  -6.303
REMARK INTRA:                   0.015
REMARK UNBOUND:                -0.319
REMARK  Name = 126674974
REMARK  3 active torsions:
REMARK  status: ('A' for Active; 'I' for Inactive)
REMARK    1  A    between atoms: N_3  and  C_8
REMARK    2  A    between atoms: C_5  and  C_10
REMARK    3  A    between atoms: C_7  and  C_11
REMARK                            x       y       z     vdW  Elec       q    Type
REMARK                         _______ _______ _______ _____ _____    ______ ____
ROOT
ATOM      1  N   UNL     1     -17.535  43.077 -10.385  0.00  0.00    +0.000 NA
ATOM      2  C   UNL     1     -17.927  40.980 -11.523  0.00  0.00    +0.000 A 
ATOM      3  C   UNL     1     -18.481  40.446 -10.365  0.00  0.00    +0.000 A 
ATOM      4  C   UNL     1     -18.564  41.227  -9.217  0.00  0.00    +0.000 A 
ATOM      5  C   UNL     1     -17.472  42.288 -11.481  0.00  0.00    +0.000 A 
ATOM      6  C   UNL     1     -18.081  42.523  -9.278  0.00  0.00    +0.000 A 
ENDROOT
BRANCH   2   9
ATOM      7  O   UNL     1     -18.856  39.885 -13.390  0.00  0.00    +0.000 OA
ATOM      8  N   UNL     1     -16.589  39.696 -13.103  0.00  0.00    +0.000 N 
ATOM      9  C   UNL     1     -17.844  40.157 -12.721  0.00  0.00    +0.000 C 
ATOM     10  H   UNL     1     -15.751  39.914 -12.574  0.00  0.00    +0.000 HD
ATOM     11  H   UNL     1     -16.473  39.124 -13.933  0.00  0.00    +0.000 HD
ENDBRANCH   2   9
BRANCH   5  12
ATOM     12  N   UNL     1     -16.902  42.839 -12.657  0.00  0.00    +0.000 N 
ATOM     13  H   UNL     1     -17.007  43.832 -12.826  0.00  0.00    +0.000 HD
ATOM     14  H   UNL     1     -16.851  42.229 -13.463  0.00  0.00    +0.000 HD
ENDBRANCH   5  12
BRANCH   4  15
ATOM     15  C   UNL     1     -19.137  40.699  -7.993  0.00  0.00    +0.000 C 
ATOM     16  C   UNL     1     -19.924  41.366  -7.121  0.00  0.00    +0.000 C 
ENDBRANCH   4  15
TORSDOF 3
ENDMDL
