MODEL 1
REMARK VINA RESULT:    -6.054      0.000      0.000
REMARK INTER + INTRA:          -8.193
REMARK INTER:                  -7.470
REMARK INTRA:                  -0.723
REMARK UNBOUND:                -0.723
REMARK  Name = 126674544
REMARK  6 active torsions:
REMARK  status: ('A' for Active; 'I' for Inactive)
REMARK    1  A    between atoms: N_3  and  C_11
REMARK    2  A    between atoms: N_5  and  C_15
REMARK    3  A    between atoms: N_6  and  C_16
REMARK    4  A    between atoms: C_7  and  C_10
REMARK    5  A    between atoms: C_8  and  C_13
REMARK    6  A    between atoms: C_10  and  C_14
REMARK                            x       y       z     vdW  Elec       q    Type
REMARK                         _______ _______ _______ _____ _____    ______ ____
ROOT
ATOM      1  N   UNL     1     -18.664  40.443 -13.176  0.00  0.00    +0.000 NA
ATOM      2  C   UNL     1     -17.763  42.522 -12.333  0.00  0.00    +0.000 A 
ATOM      3  C   UNL     1     -18.773  40.953 -10.816  0.00  0.00    +0.000 A 
ATOM      4  C   UNL     1     -18.136  42.168 -11.041  0.00  0.00    +0.000 A 
ATOM      5  C   UNL     1     -19.012  40.134 -11.907  0.00  0.00    +0.000 A 
ATOM      6  C   UNL     1     -18.047  41.632 -13.356  0.00  0.00    +0.000 A 
ENDROOT
BRANCH   3   9
ATOM      7  O   UNL     1     -20.350  40.387  -9.159  0.00  0.00    +0.000 OA
ATOM      8  N   UNL     1     -18.152  40.464  -8.511  0.00  0.00    +0.000 N 
ATOM      9  C   UNL     1     -19.162  40.592  -9.459  0.00  0.00    +0.000 C 
ATOM     10  H   UNL     1     -17.175  40.620  -8.740  0.00  0.00    +0.000 HD
ATOM     11  H   UNL     1     -18.365  40.209  -7.553  0.00  0.00    +0.000 HD
ENDBRANCH   3   9
BRANCH   5  12
ATOM     12  N   UNL     1     -19.658  38.891 -11.684  0.00  0.00    +0.000 N 
ATOM     13  H   UNL     1     -20.057  38.403 -12.476  0.00  0.00    +0.000 HD
ATOM     14  H   UNL     1     -20.107  38.772 -10.784  0.00  0.00    +0.000 HD
ENDBRANCH   5  12
BRANCH   2  15
ATOM     15  C   UNL     1     -17.088  43.800 -12.605  0.00  0.00    +0.000 C 
ATOM     16  C   UNL     1     -15.852  43.868 -13.126  0.00  0.00    +0.000 C 
BRANCH  16  17
ATOM     17  N   UNL     1     -15.101  44.960 -13.432  0.00  0.00    +0.000 N 
ATOM     18  H   UNL     1     -15.382  45.862 -13.065  0.00  0.00    +0.000 HD
ATOM     19  H   UNL     1     -14.278  44.906 -14.014  0.00  0.00    +0.000 HD
ENDBRANCH  16  17
BRANCH  15  21
ATOM     20  N   UNL     1     -17.342  45.938 -11.442  0.00  0.00    +0.000 NA
ATOM     21  C   UNL     1     -17.760  45.099 -12.326  0.00  0.00    +0.000 C 
ATOM     22  C   UNL     1     -18.167  47.141 -11.357  0.00  0.00    +0.000 C 
ENDBRANCH  15  21
ENDBRANCH   2  15
TORSDOF 5
ENDMDL
MODEL 2
REMARK VINA RESULT:    -5.841      2.662      3.747
REMARK INTER + INTRA:          -7.929
REMARK INTER:                  -7.236
REMARK INTRA:                  -0.693
REMARK UNBOUND:                -0.723
REMARK  Name = 126674544
REMARK  6 active torsions:
REMARK  status: ('A' for Active; 'I' for Inactive)
REMARK    1  A    between atoms: N_3  and  C_11
REMARK    2  A    between atoms: N_5  and  C_15
REMARK    3  A    between atoms: N_6  and  C_16
REMARK    4  A    between atoms: C_7  and  C_10
REMARK    5  A    between atoms: C_8  and  C_13
REMARK    6  A    between atoms: C_10  and  C_14
REMARK                            x       y       z     vdW  Elec       q    Type
REMARK                         _______ _______ _______ _____ _____    ______ ____
ROOT
ATOM      1  N   UNL     1     -16.411  42.315 -12.016  0.00  0.00    +0.000 NA
ATOM      2  C   UNL     1     -18.333  42.864 -13.378  0.00  0.00    +0.000 A 
ATOM      3  C   UNL     1     -18.415  40.967 -11.900  0.00  0.00    +0.000 A 
ATOM      4  C   UNL     1     -19.027  41.782 -12.845  0.00  0.00    +0.000 A 
ATOM      5  C   UNL     1     -17.117  41.274 -11.522  0.00  0.00    +0.000 A 
ATOM      6  C   UNL     1     -17.039  43.085 -12.933  0.00  0.00    +0.000 A 
ENDROOT
BRANCH   3   9
ATOM      7  O   UNL     1     -19.224  39.647 -10.124  0.00  0.00    +0.000 OA
ATOM      8  N   UNL     1     -19.782  38.981 -12.247  0.00  0.00    +0.000 N 
ATOM      9  C   UNL     1     -19.149  39.836 -11.350  0.00  0.00    +0.000 C 
ATOM     10  H   UNL     1     -19.738  39.125 -13.250  0.00  0.00    +0.000 HD
ATOM     11  H   UNL     1     -20.312  38.181 -11.918  0.00  0.00    +0.000 HD
ENDBRANCH   3   9
BRANCH   5  12
ATOM     12  N   UNL     1     -16.488  40.449 -10.555  0.00  0.00    +0.000 N 
ATOM     13  H   UNL     1     -16.963  40.281  -9.677  0.00  0.00    +0.000 HD
ATOM     14  H   UNL     1     -15.475  40.456 -10.547  0.00  0.00    +0.000 HD
ENDBRANCH   5  12
BRANCH   2  15
ATOM     15  C   UNL     1     -18.952  43.744 -14.379  0.00  0.00    +0.000 C 
ATOM     16  C   UNL     1     -18.648  45.048 -14.481  0.00  0.00    +0.000 C 
BRANCH  16  17
ATOM     17  N   UNL     1     -19.129  45.984 -15.345  0.00  0.00    +0.000 N 
ATOM     18  H   UNL     1     -18.474  46.610 -15.798  0.00  0.00    +0.000 HD
ATOM     19  H   UNL     1     -20.114  46.081 -15.544  0.00  0.00    +0.000 HD
ENDBRANCH  16  17
BRANCH  15  21
ATOM     20  N   UNL     1     -19.766  43.234 -16.629  0.00  0.00    +0.000 NA
ATOM     21  C   UNL     1     -19.948  43.219 -15.354  0.00  0.00    +0.000 C 
ATOM     22  C   UNL     1     -20.884  42.661 -17.375  0.00  0.00    +0.000 C 
ENDBRANCH  15  21
ENDBRANCH   2  15
TORSDOF 5
ENDMDL
MODEL 3
REMARK VINA RESULT:    -5.755      1.276      1.650
REMARK INTER + INTRA:          -7.823
REMARK INTER:                  -7.109
REMARK INTRA:                  -0.714
REMARK UNBOUND:                -0.723
REMARK  Name = 126674544
REMARK  6 active torsions:
REMARK  status: ('A' for Active; 'I' for Inactive)
REMARK    1  A    between atoms: N_3  and  C_11
REMARK    2  A    between atoms: N_5  and  C_15
REMARK    3  A    between atoms: N_6  and  C_16
REMARK    4  A    between atoms: C_7  and  C_10
REMARK    5  A    between atoms: C_8  and  C_13
REMARK    6  A    between atoms: C_10  and  C_14
REMARK                            x       y       z     vdW  Elec       q    Type
REMARK                         _______ _______ _______ _____ _____    ______ ____
ROOT
ATOM      1  N   UNL     1     -18.924  40.461 -13.172  0.00  0.00    +0.000 NA
ATOM      2  C   UNL     1     -18.269  42.615 -12.288  0.00  0.00    +0.000 A 
ATOM      3  C   UNL     1     -18.943  40.859 -10.787  0.00  0.00    +0.000 A 
ATOM      4  C   UNL     1     -18.500  42.161 -10.993  0.00  0.00    +0.000 A 
ATOM      5  C   UNL     1     -19.137  40.057 -11.900  0.00  0.00    +0.000 A 
ATOM      6  C   UNL     1     -18.494  41.733 -13.333  0.00  0.00    +0.000 A 
ENDROOT
BRANCH   3   9
ATOM      7  O   UNL     1     -20.302  39.989  -9.071  0.00  0.00    +0.000 OA
ATOM      8  N   UNL     1     -18.108  40.402  -8.544  0.00  0.00    +0.000 N 
ATOM      9  C   UNL     1     -19.183  40.394  -9.428  0.00  0.00    +0.000 C 
ATOM     10  H   UNL     1     -17.186  40.722  -8.821  0.00  0.00    +0.000 HD
ATOM     11  H   UNL     1     -18.218  40.083  -7.587  0.00  0.00    +0.000 HD
ENDBRANCH   3   9
BRANCH   5  12
ATOM     12  N   UNL     1     -19.586  38.727 -11.696  0.00  0.00    +0.000 N 
ATOM     13  H   UNL     1     -20.546  38.499 -11.921  0.00  0.00    +0.000 HD
ATOM     14  H   UNL     1     -19.146  38.213 -10.943  0.00  0.00    +0.000 HD
ENDBRANCH   5  12
BRANCH   2  15
ATOM     15  C   UNL     1     -17.801  43.985 -12.539  0.00  0.00    +0.000 C 
ATOM     16  C   UNL     1     -17.238  44.743 -11.584  0.00  0.00    +0.000 C 
BRANCH  16  17
ATOM     17  N   UNL     1     -16.759  46.015 -11.659  0.00  0.00    +0.000 N 
ATOM     18  H   UNL     1     -15.833  46.164 -12.042  0.00  0.00    +0.000 HD
ATOM     19  H   UNL     1     -17.289  46.812 -11.340  0.00  0.00    +0.000 HD
ENDBRANCH  16  17
BRANCH  15  21
ATOM     20  N   UNL     1     -18.548  45.700 -14.117  0.00  0.00    +0.000 NA
ATOM     21  C   UNL     1     -17.914  44.601 -13.891  0.00  0.00    +0.000 C 
ATOM     22  C   UNL     1     -18.515  46.102 -15.521  0.00  0.00    +0.000 C 
ENDBRANCH  15  21
ENDBRANCH   2  15
TORSDOF 5
ENDMDL
MODEL 4
REMARK VINA RESULT:    -5.588      3.283      5.658
REMARK INTER + INTRA:          -7.617
REMARK INTER:                  -7.217
REMARK INTRA:                  -0.400
REMARK UNBOUND:                -0.723
REMARK  Name = 126674544
REMARK  6 active torsions:
REMARK  status: ('A' for Active; 'I' for Inactive)
REMARK    1  A    between atoms: N_3  and  C_11
REMARK    2  A    between atoms: N_5  and  C_15
REMARK    3  A    between atoms: N_6  and  C_16
REMARK    4  A    between atoms: C_7  and  C_10
REMARK    5  A    between atoms: C_8  and  C_13
REMARK    6  A    between atoms: C_10  and  C_14
REMARK                            x       y       z     vdW  Elec       q    Type
REMARK                         _______ _______ _______ _____ _____    ______ ____
ROOT
ATOM      1  N   UNL     1     -18.054  44.697 -13.740  0.00  0.00    +0.000 NA
ATOM      2  C   UNL     1     -18.387  42.405 -13.047  0.00  0.00    +0.000 A 
ATOM      3  C   UNL     1     -19.610  43.276 -14.927  0.00  0.00    +0.000 A 
ATOM      4  C   UNL     1     -19.313  42.223 -14.070  0.00  0.00    +0.000 A 
ATOM      5  C   UNL     1     -18.959  44.482 -14.722  0.00  0.00    +0.000 A 
ATOM      6  C   UNL     1     -17.791  43.649 -12.927  0.00  0.00    +0.000 A 
ENDROOT
BRANCH   3   9
ATOM      7  O   UNL     1     -20.296  42.438 -17.019  0.00  0.00    +0.000 OA
ATOM      8  N   UNL     1     -21.853  43.613 -15.814  0.00  0.00    +0.000 N 
ATOM      9  C   UNL     1     -20.582  43.077 -15.993  0.00  0.00    +0.000 C 
ATOM     10  H   UNL     1     -22.107  44.131 -14.979  0.00  0.00    +0.000 HD
ATOM     11  H   UNL     1     -22.571  43.500 -16.522  0.00  0.00    +0.000 HD
ENDBRANCH   3   9
BRANCH   5  12
ATOM     12  N   UNL     1     -19.255  45.561 -15.594  0.00  0.00    +0.000 N 
ATOM     13  H   UNL     1     -19.397  46.481 -15.197  0.00  0.00    +0.000 HD
ATOM     14  H   UNL     1     -19.763  45.330 -16.439  0.00  0.00    +0.000 HD
ENDBRANCH   5  12
BRANCH   2  15
ATOM     15  C   UNL     1     -18.052  41.311 -12.125  0.00  0.00    +0.000 C 
ATOM     16  C   UNL     1     -17.075  40.424 -12.380  0.00  0.00    +0.000 C 
BRANCH  16  17
ATOM     17  N   UNL     1     -16.649  39.368 -11.635  0.00  0.00    +0.000 N 
ATOM     18  H   UNL     1     -17.295  38.943 -10.981  0.00  0.00    +0.000 HD
ATOM     19  H   UNL     1     -15.712  38.998 -11.706  0.00  0.00    +0.000 HD
ENDBRANCH  16  17
BRANCH  15  21
ATOM     20  N   UNL     1     -19.366  40.047 -10.493  0.00  0.00    +0.000 NA
ATOM     21  C   UNL     1     -18.778  41.141 -10.836  0.00  0.00    +0.000 C 
ATOM     22  C   UNL     1     -20.006  40.127  -9.182  0.00  0.00    +0.000 C 
ENDBRANCH  15  21
ENDBRANCH   2  15
TORSDOF 5
ENDMDL
MODEL 5
REMARK VINA RESULT:    -5.509      2.157      2.394
REMARK INTER + INTRA:          -7.520
REMARK INTER:                  -6.806
REMARK INTRA:                  -0.714
REMARK UNBOUND:                -0.723
REMARK  Name = 126674544
REMARK  6 active torsions:
REMARK  status: ('A' for Active; 'I' for Inactive)
REMARK    1  A    between atoms: N_3  and  C_11
REMARK    2  A    between atoms: N_5  and  C_15
REMARK    3  A    between atoms: N_6  and  C_16
REMARK    4  A    between atoms: C_7  and  C_10
REMARK    5  A    between atoms: C_8  and  C_13
REMARK    6  A    between atoms: C_10  and  C_14
REMARK                            x       y       z     vdW  Elec       q    Type
REMARK                         _______ _______ _______ _____ _____    ______ ____
ROOT
ATOM      1  N   UNL     1     -19.609  41.740 -13.500  0.00  0.00    +0.000 NA
ATOM      2  C   UNL     1     -17.792  43.324 -13.311  0.00  0.00    +0.000 A 
ATOM      3  C   UNL     1     -17.680  41.228 -12.136  0.00  0.00    +0.000 A 
ATOM      4  C   UNL     1     -17.112  42.453 -12.465  0.00  0.00    +0.000 A 
ATOM      5  C   UNL     1     -18.919  40.921 -12.675  0.00  0.00    +0.000 A 
ATOM      6  C   UNL     1     -19.025  42.922 -13.798  0.00  0.00    +0.000 A 
ENDROOT
BRANCH   3   9
ATOM      7  O   UNL     1     -17.345  40.122 -10.083  0.00  0.00    +0.000 OA
ATOM      8  N   UNL     1     -15.840  39.678 -11.755  0.00  0.00    +0.000 N 
ATOM      9  C   UNL     1     -16.962  40.324 -11.247  0.00  0.00    +0.000 C 
ATOM     10  H   UNL     1     -15.517  39.825 -12.707  0.00  0.00    +0.000 HD
ATOM     11  H   UNL     1     -15.305  39.033 -11.182  0.00  0.00    +0.000 HD
ENDBRANCH   3   9
BRANCH   5  12
ATOM     12  N   UNL     1     -19.503  39.671 -12.346  0.00  0.00    +0.000 N 
ATOM     13  H   UNL     1     -20.510  39.581 -12.386  0.00  0.00    +0.000 HD
ATOM     14  H   UNL     1     -19.007  39.107 -11.667  0.00  0.00    +0.000 HD
ENDBRANCH   5  12
BRANCH   2  15
ATOM     15  C   UNL     1     -17.219  44.626 -13.678  0.00  0.00    +0.000 C 
ATOM     16  C   UNL     1     -15.897  44.865 -13.662  0.00  0.00    +0.000 C 
BRANCH  16  17
ATOM     17  N   UNL     1     -15.219  46.004 -13.970  0.00  0.00    +0.000 N 
ATOM     18  H   UNL     1     -15.693  46.894 -13.869  0.00  0.00    +0.000 HD
ATOM     19  H   UNL     1     -14.266  45.994 -14.302  0.00  0.00    +0.000 HD
ENDBRANCH  16  17
BRANCH  15  21
ATOM     20  N   UNL     1     -18.089  46.234 -15.305  0.00  0.00    +0.000 NA
ATOM     21  C   UNL     1     -18.089  45.756 -14.108  0.00  0.00    +0.000 C 
ATOM     22  C   UNL     1     -19.030  47.337 -15.482  0.00  0.00    +0.000 C 
ENDBRANCH  15  21
ENDBRANCH   2  15
TORSDOF 5
ENDMDL
