MODEL 1
REMARK VINA RESULT:    -5.449      0.000      0.000
REMARK INTER + INTRA:          -6.169
REMARK INTER:                  -5.926
REMARK INTRA:                  -0.243
REMARK UNBOUND:                -0.243
REMARK  Name = 12711131
REMARK  3 active torsions:
REMARK  status: ('A' for Active; 'I' for Inactive)
REMARK    1  A    between atoms: N_3  and  C_5
REMARK    2  A    between atoms: C_4  and  C_7
REMARK    3  A    between atoms: C_7  and  C_9
REMARK                            x       y       z     vdW  Elec       q    Type
REMARK                         _______ _______ _______ _____ _____    ______ ____
ROOT
ATOM      1  N   UNL     1     -18.822  42.344  -7.910  0.00  0.00    +0.000 NA
ATOM      2  C   UNL     1     -19.308  40.829  -9.730  0.00  0.00    +0.000 A 
ATOM      3  C   UNL     1     -18.525  41.785  -9.105  0.00  0.00    +0.000 A 
ATOM      4  C   UNL     1     -20.471  40.418  -9.088  0.00  0.00    +0.000 A 
ATOM      5  C   UNL     1     -20.811  40.970  -7.858  0.00  0.00    +0.000 A 
ATOM      6  C   UNL     1     -19.960  41.920  -7.316  0.00  0.00    +0.000 A 
ENDROOT
BRANCH   2   8
ATOM      7  O   UNL     1     -18.146  39.308 -11.108  0.00  0.00    +0.000 OA
ATOM      8  C   UNL     1     -18.962  40.245 -11.019  0.00  0.00    +0.000 C 
ATOM      9  C   UNL     1     -19.599  40.777 -12.297  0.00  0.00    +0.000 C 
ENDBRANCH   2   8
BRANCH   3  10
ATOM     10  N   UNL     1     -17.338  42.209  -9.754  0.00  0.00    +0.000 N 
ATOM     11  H   UNL     1     -17.279  43.167 -10.077  0.00  0.00    +0.000 HD
ATOM     12  H   UNL     1     -16.837  41.505 -10.282  0.00  0.00    +0.000 HD
ENDBRANCH   3  10
TORSDOF 2
ENDMDL
MODEL 2
REMARK VINA RESULT:    -5.399      2.574      3.094
REMARK INTER + INTRA:          -6.115
REMARK INTER:                  -5.819
REMARK INTRA:                  -0.297
REMARK UNBOUND:                -0.243
REMARK  Name = 12711131
REMARK  3 active torsions:
REMARK  status: ('A' for Active; 'I' for Inactive)
REMARK    1  A    between atoms: N_3  and  C_5
REMARK    2  A    between atoms: C_4  and  C_7
REMARK    3  A    between atoms: C_7  and  C_9
REMARK                            x       y       z     vdW  Elec       q    Type
REMARK                         _______ _______ _______ _____ _____    ______ ____
ROOT
ATOM      1  N   UNL     1     -22.302  40.626  -7.930  0.00  0.00    +0.000 NA
ATOM      2  C   UNL     1     -20.032  41.452  -8.009  0.00  0.00    +0.000 A 
ATOM      3  C   UNL     1     -21.046  40.607  -8.429  0.00  0.00    +0.000 A 
ATOM      4  C   UNL     1     -20.326  42.378  -7.015  0.00  0.00    +0.000 A 
ATOM      5  C   UNL     1     -21.607  42.429  -6.477  0.00  0.00    +0.000 A 
ATOM      6  C   UNL     1     -22.551  41.539  -6.965  0.00  0.00    +0.000 A 
ENDROOT
BRANCH   2   8
ATOM      7  O   UNL     1     -18.003  40.366  -8.526  0.00  0.00    +0.000 OA
ATOM      8  C   UNL     1     -18.687  41.407  -8.566  0.00  0.00    +0.000 C 
ATOM      9  C   UNL     1     -18.084  42.647  -9.215  0.00  0.00    +0.000 C 
ENDBRANCH   2   8
BRANCH   3  10
ATOM     10  N   UNL     1     -20.753  39.659  -9.442  0.00  0.00    +0.000 N 
ATOM     11  H   UNL     1     -21.503  39.071  -9.785  0.00  0.00    +0.000 HD
ATOM     12  H   UNL     1     -19.818  39.272  -9.441  0.00  0.00    +0.000 HD
ENDBRANCH   3  10
TORSDOF 2
ENDMDL
MODEL 3
REMARK VINA RESULT:    -5.068      1.985      2.356
REMARK INTER + INTRA:          -5.755
REMARK INTER:                  -5.460
REMARK INTRA:                  -0.295
REMARK UNBOUND:                -0.243
REMARK  Name = 12711131
REMARK  3 active torsions:
REMARK  status: ('A' for Active; 'I' for Inactive)
REMARK    1  A    between atoms: N_3  and  C_5
REMARK    2  A    between atoms: C_4  and  C_7
REMARK    3  A    between atoms: C_7  and  C_9
REMARK                            x       y       z     vdW  Elec       q    Type
REMARK                         _______ _______ _______ _____ _____    ______ ____
ROOT
ATOM      1  N   UNL     1     -21.032  40.359  -8.665  0.00  0.00    +0.000 NA
ATOM      2  C   UNL     1     -18.875  41.273  -9.263  0.00  0.00    +0.000 A 
ATOM      3  C   UNL     1     -19.963  40.446  -9.489  0.00  0.00    +0.000 A 
ATOM      4  C   UNL     1     -18.883  42.063  -8.119  0.00  0.00    +0.000 A 
ATOM      5  C   UNL     1     -19.965  42.002  -7.247  0.00  0.00    +0.000 A 
ATOM      6  C   UNL     1     -21.005  41.142  -7.562  0.00  0.00    +0.000 A 
ENDROOT
BRANCH   2   8
ATOM      7  O   UNL     1     -17.082  40.327 -10.469  0.00  0.00    +0.000 OA
ATOM      8  C   UNL     1     -17.737  41.344 -10.170  0.00  0.00    +0.000 C 
ATOM      9  C   UNL     1     -17.323  42.679 -10.776  0.00  0.00    +0.000 C 
ENDBRANCH   2   8
BRANCH   3  10
ATOM     10  N   UNL     1     -19.962  39.637 -10.653  0.00  0.00    +0.000 N 
ATOM     11  H   UNL     1     -19.429  38.775 -10.642  0.00  0.00    +0.000 HD
ATOM     12  H   UNL     1     -20.052  40.120 -11.538  0.00  0.00    +0.000 HD
ENDBRANCH   3  10
TORSDOF 2
ENDMDL
MODEL 4
REMARK VINA RESULT:    -5.028      2.215      2.796
REMARK INTER + INTRA:          -5.712
REMARK INTER:                  -5.412
REMARK INTRA:                  -0.299
REMARK UNBOUND:                -0.243
REMARK  Name = 12711131
REMARK  3 active torsions:
REMARK  status: ('A' for Active; 'I' for Inactive)
REMARK    1  A    between atoms: N_3  and  C_5
REMARK    2  A    between atoms: C_4  and  C_7
REMARK    3  A    between atoms: C_7  and  C_9
REMARK                            x       y       z     vdW  Elec       q    Type
REMARK                         _______ _______ _______ _____ _____    ______ ____
ROOT
ATOM      1  N   UNL     1     -19.634  39.772  -9.580  0.00  0.00    +0.000 NA
ATOM      2  C   UNL     1     -18.260  40.849 -11.252  0.00  0.00    +0.000 A 
ATOM      3  C   UNL     1     -19.125  39.853 -10.830  0.00  0.00    +0.000 A 
ATOM      4  C   UNL     1     -17.895  41.827 -10.333  0.00  0.00    +0.000 A 
ATOM      5  C   UNL     1     -18.398  41.778  -9.038  0.00  0.00    +0.000 A 
ATOM      6  C   UNL     1     -19.256  40.739  -8.714  0.00  0.00    +0.000 A 
ENDROOT
BRANCH   2   8
ATOM      7  O   UNL     1     -17.033  39.985 -13.071  0.00  0.00    +0.000 OA
ATOM      8  C   UNL     1     -17.727  40.910 -12.606  0.00  0.00    +0.000 C 
ATOM      9  C   UNL     1     -18.013  42.118 -13.490  0.00  0.00    +0.000 C 
ENDBRANCH   2   8
BRANCH   3  10
ATOM     10  N   UNL     1     -19.501  38.852 -11.761  0.00  0.00    +0.000 N 
ATOM     11  H   UNL     1     -20.466  38.816 -12.068  0.00  0.00    +0.000 HD
ATOM     12  H   UNL     1     -18.991  37.979 -11.715  0.00  0.00    +0.000 HD
ENDBRANCH   3  10
TORSDOF 2
ENDMDL
MODEL 5
REMARK VINA RESULT:    -4.756      1.715      3.565
REMARK INTER + INTRA:          -5.416
REMARK INTER:                  -5.160
REMARK INTRA:                  -0.256
REMARK UNBOUND:                -0.243
REMARK  Name = 12711131
REMARK  3 active torsions:
REMARK  status: ('A' for Active; 'I' for Inactive)
REMARK    1  A    between atoms: N_3  and  C_5
REMARK    2  A    between atoms: C_4  and  C_7
REMARK    3  A    between atoms: C_7  and  C_9
REMARK                            x       y       z     vdW  Elec       q    Type
REMARK                         _______ _______ _______ _____ _____    ______ ____
ROOT
ATOM      1  N   UNL     1     -17.389  41.629 -12.060  0.00  0.00    +0.000 NA
ATOM      2  C   UNL     1     -18.738  40.598 -10.338  0.00  0.00    +0.000 A 
ATOM      3  C   UNL     1     -17.851  41.562 -10.791  0.00  0.00    +0.000 A 
ATOM      4  C   UNL     1     -19.180  39.642 -11.245  0.00  0.00    +0.000 A 
ATOM      5  C   UNL     1     -18.727  39.678 -12.560  0.00  0.00    +0.000 A 
ATOM      6  C   UNL     1     -17.841  40.682 -12.914  0.00  0.00    +0.000 A 
ENDROOT
BRANCH   2   8
ATOM      7  O   UNL     1     -18.445  40.727  -8.001  0.00  0.00    +0.000 OA
ATOM      8  C   UNL     1     -19.217  40.552  -8.964  0.00  0.00    +0.000 C 
ATOM      9  C   UNL     1     -20.689  40.287  -8.674  0.00  0.00    +0.000 C 
ENDBRANCH   2   8
BRANCH   3  10
ATOM     10  N   UNL     1     -17.396  42.540  -9.872  0.00  0.00    +0.000 N 
ATOM     11  H   UNL     1     -17.206  43.474 -10.214  0.00  0.00    +0.000 HD
ATOM     12  H   UNL     1     -16.840  42.204  -9.095  0.00  0.00    +0.000 HD
ENDBRANCH   3  10
TORSDOF 2
ENDMDL
