MODEL 1
REMARK VINA RESULT:    -4.647      0.000      0.000
REMARK INTER + INTRA:          -6.741
REMARK INTER:                  -6.006
REMARK INTRA:                  -0.735
REMARK UNBOUND:                -0.735
REMARK  Name = 12793687
REMARK  8 active torsions:
REMARK  status: ('A' for Active; 'I' for Inactive)
REMARK    1  A    between atoms: N_2  and  C_5
REMARK    2  A    between atoms: N_2  and  C_6
REMARK    3  A    between atoms: N_3  and  C_9
REMARK    4  A    between atoms: N_3  and  C_13
REMARK    5  A    between atoms: C_5  and  C_10
REMARK    6  A    between atoms: C_6  and  C_11
REMARK    7  A    between atoms: C_7  and  C_8
REMARK    8  A    between atoms: C_13  and  C_16
REMARK                            x       y       z     vdW  Elec       q    Type
REMARK                         _______ _______ _______ _____ _____    ______ ____
ROOT
ATOM      1  N   UNL     1     -19.176  41.184 -13.524  0.00  0.00    +0.000 NA
ATOM      2  C   UNL     1     -18.225  43.165 -12.549  0.00  0.00    +0.000 A 
ATOM      3  C   UNL     1     -18.772  42.471 -13.606  0.00  0.00    +0.000 A 
ATOM      4  C   UNL     1     -18.074  42.525 -11.333  0.00  0.00    +0.000 A 
ATOM      5  C   UNL     1     -18.477  41.199 -11.209  0.00  0.00    +0.000 A 
ATOM      6  C   UNL     1     -19.018  40.580 -12.325  0.00  0.00    +0.000 A 
ENDROOT
BRANCH   2   9
ATOM      7  O   UNL     1     -18.675  45.419 -12.564  0.00  0.00    +0.000 OA
ATOM      8  N   UNL     1     -16.440  44.827 -12.907  0.00  0.00    +0.000 N 
ATOM      9  C   UNL     1     -17.794  44.567 -12.669  0.00  0.00    +0.000 C 
BRANCH   8  10
ATOM     10  C   UNL     1     -15.992  46.206 -13.047  0.00  0.00    +0.000 C 
ATOM     11  C   UNL     1     -15.733  46.526 -14.506  0.00  0.00    +0.000 C 
ENDBRANCH   8  10
BRANCH   8  12
ATOM     12  C   UNL     1     -15.400  43.809 -13.031  0.00  0.00    +0.000 C 
ATOM     13  C   UNL     1     -14.485  43.846 -11.821  0.00  0.00    +0.000 C 
ENDBRANCH   8  12
ENDBRANCH   2   9
BRANCH   3  14
ATOM     14  N   UNL     1     -18.925  43.133 -14.851  0.00  0.00    +0.000 N 
ATOM     15  H   UNL     1     -18.092  43.194 -15.427  0.00  0.00    +0.000 HD
BRANCH  14  16
ATOM     16  C   UNL     1     -20.188  43.276 -15.496  0.00  0.00    +0.000 C 
ATOM     17  C   UNL     1     -20.064  42.938 -16.969  0.00  0.00    +0.000 C 
ENDBRANCH  14  16
ENDBRANCH   3  14
TORSDOF 5
ENDMDL
MODEL 2
REMARK VINA RESULT:    -4.269      1.501      2.068
REMARK INTER + INTRA:          -6.251
REMARK INTER:                  -5.786
REMARK INTRA:                  -0.465
REMARK UNBOUND:                -0.735
REMARK  Name = 12793687
REMARK  8 active torsions:
REMARK  status: ('A' for Active; 'I' for Inactive)
REMARK    1  A    between atoms: N_2  and  C_5
REMARK    2  A    between atoms: N_2  and  C_6
REMARK    3  A    between atoms: N_3  and  C_9
REMARK    4  A    between atoms: N_3  and  C_13
REMARK    5  A    between atoms: C_5  and  C_10
REMARK    6  A    between atoms: C_6  and  C_11
REMARK    7  A    between atoms: C_7  and  C_8
REMARK    8  A    between atoms: C_13  and  C_16
REMARK                            x       y       z     vdW  Elec       q    Type
REMARK                         _______ _______ _______ _____ _____    ______ ____
ROOT
ATOM      1  N   UNL     1     -19.310  41.388 -12.363  0.00  0.00    +0.000 NA
ATOM      2  C   UNL     1     -17.519  42.980 -12.170  0.00  0.00    +0.000 A 
ATOM      3  C   UNL     1     -18.471  42.302 -12.899  0.00  0.00    +0.000 A 
ATOM      4  C   UNL     1     -17.404  42.724 -10.816  0.00  0.00    +0.000 A 
ATOM      5  C   UNL     1     -18.249  41.789 -10.228  0.00  0.00    +0.000 A 
ATOM      6  C   UNL     1     -19.177  41.155 -11.038  0.00  0.00    +0.000 A 
ENDROOT
BRANCH   2   9
ATOM      7  O   UNL     1     -15.532  43.551 -13.173  0.00  0.00    +0.000 OA
ATOM      8  N   UNL     1     -17.050  45.300 -12.861  0.00  0.00    +0.000 N 
ATOM      9  C   UNL     1     -16.620  43.971 -12.782  0.00  0.00    +0.000 C 
BRANCH   8  10
ATOM     10  C   UNL     1     -16.171  46.302 -13.448  0.00  0.00    +0.000 C 
ATOM     11  C   UNL     1     -15.015  46.595 -12.511  0.00  0.00    +0.000 C 
ENDBRANCH   8  10
BRANCH   8  12
ATOM     12  C   UNL     1     -18.345  45.790 -12.394  0.00  0.00    +0.000 C 
ATOM     13  C   UNL     1     -18.152  46.801 -11.280  0.00  0.00    +0.000 C 
ENDBRANCH   8  12
ENDBRANCH   2   9
BRANCH   3  14
ATOM     14  N   UNL     1     -18.586  42.569 -14.287  0.00  0.00    +0.000 N 
ATOM     15  H   UNL     1     -17.961  42.048 -14.893  0.00  0.00    +0.000 HD
BRANCH  14  16
ATOM     16  C   UNL     1     -19.763  43.124 -14.869  0.00  0.00    +0.000 C 
ATOM     17  C   UNL     1     -19.410  44.337 -15.707  0.00  0.00    +0.000 C 
ENDBRANCH  14  16
ENDBRANCH   3  14
TORSDOF 5
ENDMDL
MODEL 3
REMARK VINA RESULT:    -4.174      3.191      5.666
REMARK INTER + INTRA:          -6.129
REMARK INTER:                  -5.477
REMARK INTRA:                  -0.653
REMARK UNBOUND:                -0.735
REMARK  Name = 12793687
REMARK  8 active torsions:
REMARK  status: ('A' for Active; 'I' for Inactive)
REMARK    1  A    between atoms: N_2  and  C_5
REMARK    2  A    between atoms: N_2  and  C_6
REMARK    3  A    between atoms: N_3  and  C_9
REMARK    4  A    between atoms: N_3  and  C_13
REMARK    5  A    between atoms: C_5  and  C_10
REMARK    6  A    between atoms: C_6  and  C_11
REMARK    7  A    between atoms: C_7  and  C_8
REMARK    8  A    between atoms: C_13  and  C_16
REMARK                            x       y       z     vdW  Elec       q    Type
REMARK                         _______ _______ _______ _____ _____    ______ ____
ROOT
ATOM      1  N   UNL     1     -21.122  45.482 -19.054  0.00  0.00    +0.000 NA
ATOM      2  C   UNL     1     -20.034  44.140 -17.382  0.00  0.00    +0.000 A 
ATOM      3  C   UNL     1     -21.051  44.967 -17.807  0.00  0.00    +0.000 A 
ATOM      4  C   UNL     1     -19.024  43.811 -18.267  0.00  0.00    +0.000 A 
ATOM      5  C   UNL     1     -19.061  44.322 -19.560  0.00  0.00    +0.000 A 
ATOM      6  C   UNL     1     -20.122  45.145 -19.901  0.00  0.00    +0.000 A 
ENDROOT
BRANCH   2   9
ATOM      7  O   UNL     1     -20.673  42.598 -15.802  0.00  0.00    +0.000 OA
ATOM      8  N   UNL     1     -19.185  44.246 -15.070  0.00  0.00    +0.000 N 
ATOM      9  C   UNL     1     -19.984  43.595 -16.016  0.00  0.00    +0.000 C 
BRANCH   8  10
ATOM     10  C   UNL     1     -19.133  43.735 -13.707  0.00  0.00    +0.000 C 
ATOM     11  C   UNL     1     -18.069  42.661 -13.593  0.00  0.00    +0.000 C 
ENDBRANCH   8  10
BRANCH   8  12
ATOM     12  C   UNL     1     -18.370  45.429 -15.334  0.00  0.00    +0.000 C 
ATOM     13  C   UNL     1     -18.393  46.358 -14.134  0.00  0.00    +0.000 C 
ENDBRANCH   8  12
ENDBRANCH   2   9
BRANCH   3  14
ATOM     14  N   UNL     1     -22.084  45.302 -16.895  0.00  0.00    +0.000 N 
ATOM     15  H   UNL     1     -21.965  46.172 -16.387  0.00  0.00    +0.000 HD
BRANCH  14  16
ATOM     16  C   UNL     1     -23.404  44.772 -17.000  0.00  0.00    +0.000 C 
ATOM     17  C   UNL     1     -24.370  45.858 -17.433  0.00  0.00    +0.000 C 
ENDBRANCH  14  16
ENDBRANCH   3  14
TORSDOF 5
ENDMDL
MODEL 4
REMARK VINA RESULT:    -3.848     16.729     19.273
REMARK INTER + INTRA:          -5.708
REMARK INTER:                  -4.880
REMARK INTRA:                  -0.828
REMARK UNBOUND:                -0.735
REMARK  Name = 12793687
REMARK  8 active torsions:
REMARK  status: ('A' for Active; 'I' for Inactive)
REMARK    1  A    between atoms: N_2  and  C_5
REMARK    2  A    between atoms: N_2  and  C_6
REMARK    3  A    between atoms: N_3  and  C_9
REMARK    4  A    between atoms: N_3  and  C_13
REMARK    5  A    between atoms: C_5  and  C_10
REMARK    6  A    between atoms: C_6  and  C_11
REMARK    7  A    between atoms: C_7  and  C_8
REMARK    8  A    between atoms: C_13  and  C_16
REMARK                            x       y       z     vdW  Elec       q    Type
REMARK                         _______ _______ _______ _____ _____    ______ ____
ROOT
ATOM      1  N   UNL     1     -23.057  36.095   3.670  0.00  0.00    +0.000 NA
ATOM      2  C   UNL     1     -22.791  34.118   2.328  0.00  0.00    +0.000 A 
ATOM      3  C   UNL     1     -22.304  35.265   2.914  0.00  0.00    +0.000 A 
ATOM      4  C   UNL     1     -24.121  33.784   2.513  0.00  0.00    +0.000 A 
ATOM      5  C   UNL     1     -24.928  34.614   3.283  0.00  0.00    +0.000 A 
ATOM      6  C   UNL     1     -24.353  35.747   3.835  0.00  0.00    +0.000 A 
ENDROOT
BRANCH   2   9
ATOM      7  O   UNL     1     -21.814  33.546   0.328  0.00  0.00    +0.000 OA
ATOM      8  N   UNL     1     -21.375  32.111   2.120  0.00  0.00    +0.000 N 
ATOM      9  C   UNL     1     -21.946  33.233   1.510  0.00  0.00    +0.000 C 
BRANCH   8  10
ATOM     10  C   UNL     1     -20.548  31.211   1.328  0.00  0.00    +0.000 C 
ATOM     11  C   UNL     1     -19.087  31.594   1.459  0.00  0.00    +0.000 C 
ENDBRANCH   8  10
BRANCH   8  12
ATOM     12  C   UNL     1     -21.537  31.748   3.526  0.00  0.00    +0.000 C 
ATOM     13  C   UNL     1     -22.515  30.596   3.660  0.00  0.00    +0.000 C 
ENDBRANCH   8  12
ENDBRANCH   2   9
BRANCH   3  14
ATOM     14  N   UNL     1     -20.940  35.603   2.722  0.00  0.00    +0.000 N 
ATOM     15  H   UNL     1     -20.270  34.859   2.885  0.00  0.00    +0.000 HD
BRANCH  14  16
ATOM     16  C   UNL     1     -20.527  36.700   1.910  0.00  0.00    +0.000 C 
ATOM     17  C   UNL     1     -19.541  36.229   0.858  0.00  0.00    +0.000 C 
ENDBRANCH  14  16
ENDBRANCH   3  14
TORSDOF 5
ENDMDL
MODEL 5
REMARK VINA RESULT:    -3.829      1.854      2.392
REMARK INTER + INTRA:          -5.684
REMARK INTER:                  -5.375
REMARK INTRA:                  -0.308
REMARK UNBOUND:                -0.735
REMARK  Name = 12793687
REMARK  8 active torsions:
REMARK  status: ('A' for Active; 'I' for Inactive)
REMARK    1  A    between atoms: N_2  and  C_5
REMARK    2  A    between atoms: N_2  and  C_6
REMARK    3  A    between atoms: N_3  and  C_9
REMARK    4  A    between atoms: N_3  and  C_13
REMARK    5  A    between atoms: C_5  and  C_10
REMARK    6  A    between atoms: C_6  and  C_11
REMARK    7  A    between atoms: C_7  and  C_8
REMARK    8  A    between atoms: C_13  and  C_16
REMARK                            x       y       z     vdW  Elec       q    Type
REMARK                         _______ _______ _______ _____ _____    ______ ____
ROOT
ATOM      1  N   UNL     1     -19.296  42.055 -13.985  0.00  0.00    +0.000 NA
ATOM      2  C   UNL     1     -18.049  44.110 -13.946  0.00  0.00    +0.000 A 
ATOM      3  C   UNL     1     -19.131  43.350 -14.333  0.00  0.00    +0.000 A 
ATOM      4  C   UNL     1     -17.070  43.530 -13.160  0.00  0.00    +0.000 A 
ATOM      5  C   UNL     1     -17.204  42.199 -12.782  0.00  0.00    +0.000 A 
ATOM      6  C   UNL     1     -18.325  41.511 -13.217  0.00  0.00    +0.000 A 
ENDROOT
BRANCH   2   9
ATOM      7  O   UNL     1     -17.801  45.740 -15.548  0.00  0.00    +0.000 OA
ATOM      8  N   UNL     1     -17.860  46.490 -13.334  0.00  0.00    +0.000 N 
ATOM      9  C   UNL     1     -17.898  45.520 -14.341  0.00  0.00    +0.000 C 
BRANCH   8  10
ATOM     10  C   UNL     1     -17.694  47.891 -13.699  0.00  0.00    +0.000 C 
ATOM     11  C   UNL     1     -16.226  48.205 -13.912  0.00  0.00    +0.000 C 
ENDBRANCH   8  10
BRANCH   8  12
ATOM     12  C   UNL     1     -17.976  46.219 -11.904  0.00  0.00    +0.000 C 
ATOM     13  C   UNL     1     -18.315  47.494 -11.155  0.00  0.00    +0.000 C 
ENDBRANCH   8  12
ENDBRANCH   2   9
BRANCH   3  14
ATOM     14  N   UNL     1     -20.133  43.949 -15.139  0.00  0.00    +0.000 N 
ATOM     15  H   UNL     1     -19.960  44.907 -15.425  0.00  0.00    +0.000 HD
BRANCH  14  16
ATOM     16  C   UNL     1     -21.060  43.186 -15.907  0.00  0.00    +0.000 C 
ATOM     17  C   UNL     1     -20.563  43.041 -17.333  0.00  0.00    +0.000 C 
ENDBRANCH  14  16
ENDBRANCH   3  14
TORSDOF 5
ENDMDL
