MODEL 1
REMARK VINA RESULT:    -6.414      0.000      0.000
REMARK INTER + INTRA:          -8.200
REMARK INTER:                  -7.539
REMARK INTRA:                  -0.661
REMARK UNBOUND:                -0.661
REMARK  Name = 12812773
REMARK  3 active torsions:
REMARK  status: ('A' for Active; 'I' for Inactive)
REMARK    1  A    between atoms: N_2  and  C_5
REMARK    2  A    between atoms: N_2  and  C_11
REMARK    3  A    between atoms: C_12  and  C_14
REMARK                            x       y       z     vdW  Elec       q    Type
REMARK                         _______ _______ _______ _____ _____    ______ ____
ROOT
ATOM      1  N   UNL     1     -18.508  42.176  -8.265  0.00  0.00    +0.000 NA
ATOM      2  C   UNL     1     -18.410  41.528  -9.467  0.00  0.00    +0.000 A 
ATOM      3  C   UNL     1     -19.398  40.629  -9.896  0.00  0.00    +0.000 A 
ATOM      4  C   UNL     1     -20.499  40.392  -9.082  0.00  0.00    +0.000 A 
ATOM      5  C   UNL     1     -19.592  41.919  -7.501  0.00  0.00    +0.000 A 
ATOM      6  C   UNL     1     -20.605  41.045  -7.859  0.00  0.00    +0.000 A 
ENDROOT
BRANCH   3   9
ATOM      7  O   UNL     1     -18.569  38.940 -11.313  0.00  0.00    +0.000 OA
ATOM      8  N   UNL     1     -20.049  40.428 -12.235  0.00  0.00    +0.000 N 
ATOM      9  C   UNL     1     -19.294  39.939 -11.176  0.00  0.00    +0.000 C 
ATOM     10  H   UNL     1     -20.653  41.238 -12.139  0.00  0.00    +0.000 HD
ATOM     11  H   UNL     1     -20.020  39.982 -13.146  0.00  0.00    +0.000 HD
ENDBRANCH   3   9
BRANCH   2  12
ATOM     12  N   UNL     1     -17.312  41.769 -10.272  0.00  0.00    +0.000 N 
ATOM     13  H   UNL     1     -16.690  40.986 -10.440  0.00  0.00    +0.000 HD
BRANCH  12  14
ATOM     14  C   UNL     1     -16.773  43.089 -10.513  0.00  0.00    +0.000 C 
ATOM     15  C   UNL     1     -15.576  43.029 -11.468  0.00  0.00    +0.000 C 
ATOM     16  C   UNL     1     -17.855  44.038 -11.038  0.00  0.00    +0.000 C 
ATOM     17  C   UNL     1     -15.990  42.713 -12.906  0.00  0.00    +0.000 C 
ATOM     18  C   UNL     1     -18.266  43.721 -12.477  0.00  0.00    +0.000 C 
ATOM     19  C   UNL     1     -17.059  43.678 -13.410  0.00  0.00    +0.000 C 
ENDBRANCH  12  14
ENDBRANCH   2  12
TORSDOF 3
ENDMDL
MODEL 2
REMARK VINA RESULT:    -5.991      0.988      0.994
REMARK INTER + INTRA:          -7.703
REMARK INTER:                  -7.101
REMARK INTRA:                  -0.602
REMARK UNBOUND:                -0.661
REMARK  Name = 12812773
REMARK  3 active torsions:
REMARK  status: ('A' for Active; 'I' for Inactive)
REMARK    1  A    between atoms: N_2  and  C_5
REMARK    2  A    between atoms: N_2  and  C_11
REMARK    3  A    between atoms: C_12  and  C_14
REMARK                            x       y       z     vdW  Elec       q    Type
REMARK                         _______ _______ _______ _____ _____    ______ ____
ROOT
ATOM      1  N   UNL     1     -18.285  42.309  -8.918  0.00  0.00    +0.000 NA
ATOM      2  C   UNL     1     -18.199  41.746 -10.163  0.00  0.00    +0.000 A 
ATOM      3  C   UNL     1     -18.880  40.562 -10.480  0.00  0.00    +0.000 A 
ATOM      4  C   UNL     1     -19.658  39.946  -9.507  0.00  0.00    +0.000 A 
ATOM      5  C   UNL     1     -19.051  41.681  -7.998  0.00  0.00    +0.000 A 
ATOM      6  C   UNL     1     -19.751  40.510  -8.239  0.00  0.00    +0.000 A 
ENDROOT
BRANCH   3   9
ATOM      7  O   UNL     1     -17.692  39.643 -12.294  0.00  0.00    +0.000 OA
ATOM      8  N   UNL     1     -19.973  39.747 -12.499  0.00  0.00    +0.000 N 
ATOM      9  C   UNL     1     -18.788  39.963 -11.806  0.00  0.00    +0.000 C 
ATOM     10  H   UNL     1     -20.878  39.995 -12.111  0.00  0.00    +0.000 HD
ATOM     11  H   UNL     1     -19.968  39.327 -13.423  0.00  0.00    +0.000 HD
ENDBRANCH   3   9
BRANCH   2  12
ATOM     12  N   UNL     1     -17.423  42.365 -11.126  0.00  0.00    +0.000 N 
ATOM     13  H   UNL     1     -16.952  41.758 -11.788  0.00  0.00    +0.000 HD
BRANCH  12  14
ATOM     14  C   UNL     1     -16.904  43.708 -10.992  0.00  0.00    +0.000 C 
ATOM     15  C   UNL     1     -15.483  43.808 -11.558  0.00  0.00    +0.000 C 
ATOM     16  C   UNL     1     -17.838  44.727 -11.654  0.00  0.00    +0.000 C 
ATOM     17  C   UNL     1     -15.454  43.729 -13.084  0.00  0.00    +0.000 C 
ATOM     18  C   UNL     1     -17.805  44.647 -13.181  0.00  0.00    +0.000 C 
ATOM     19  C   UNL     1     -16.382  44.761 -13.719  0.00  0.00    +0.000 C 
ENDBRANCH  12  14
ENDBRANCH   2  12
TORSDOF 3
ENDMDL
MODEL 3
REMARK VINA RESULT:    -5.616      3.108      5.800
REMARK INTER + INTRA:          -7.261
REMARK INTER:                  -6.489
REMARK INTRA:                  -0.772
REMARK UNBOUND:                -0.661
REMARK  Name = 12812773
REMARK  3 active torsions:
REMARK  status: ('A' for Active; 'I' for Inactive)
REMARK    1  A    between atoms: N_2  and  C_5
REMARK    2  A    between atoms: N_2  and  C_11
REMARK    3  A    between atoms: C_12  and  C_14
REMARK                            x       y       z     vdW  Elec       q    Type
REMARK                         _______ _______ _______ _____ _____    ______ ____
ROOT
ATOM      1  N   UNL     1     -20.447  42.653 -15.115  0.00  0.00    +0.000 NA
ATOM      2  C   UNL     1     -19.490  43.062 -14.226  0.00  0.00    +0.000 A 
ATOM      3  C   UNL     1     -18.758  44.241 -14.429  0.00  0.00    +0.000 A 
ATOM      4  C   UNL     1     -19.010  45.010 -15.559  0.00  0.00    +0.000 A 
ATOM      5  C   UNL     1     -20.664  43.427 -16.202  0.00  0.00    +0.000 A 
ATOM      6  C   UNL     1     -19.981  44.602 -16.467  0.00  0.00    +0.000 A 
ENDROOT
BRANCH   3   9
ATOM      7  O   UNL     1     -18.033  44.995 -12.318  0.00  0.00    +0.000 OA
ATOM      8  N   UNL     1     -16.420  44.705 -13.923  0.00  0.00    +0.000 N 
ATOM      9  C   UNL     1     -17.739  44.676 -13.483  0.00  0.00    +0.000 C 
ATOM     10  H   UNL     1     -16.161  44.440 -14.867  0.00  0.00    +0.000 HD
ATOM     11  H   UNL     1     -15.670  44.994 -13.303  0.00  0.00    +0.000 HD
ENDBRANCH   3   9
BRANCH   2  12
ATOM     12  N   UNL     1     -19.244  42.292 -13.104  0.00  0.00    +0.000 N 
ATOM     13  H   UNL     1     -19.296  42.764 -12.208  0.00  0.00    +0.000 HD
BRANCH  12  14
ATOM     14  C   UNL     1     -18.519  41.041 -13.137  0.00  0.00    +0.000 C 
ATOM     15  C   UNL     1     -17.054  41.242 -12.735  0.00  0.00    +0.000 C 
ATOM     16  C   UNL     1     -19.198  39.989 -12.253  0.00  0.00    +0.000 C 
ATOM     17  C   UNL     1     -16.891  41.532 -11.243  0.00  0.00    +0.000 C 
ATOM     18  C   UNL     1     -19.031  40.281 -10.762  0.00  0.00    +0.000 C 
ATOM     19  C   UNL     1     -17.564  40.466 -10.385  0.00  0.00    +0.000 C 
ENDBRANCH  12  14
ENDBRANCH   2  12
TORSDOF 3
ENDMDL
MODEL 4
REMARK VINA RESULT:    -5.463      4.679      6.614
REMARK INTER + INTRA:          -7.082
REMARK INTER:                  -6.438
REMARK INTRA:                  -0.644
REMARK UNBOUND:                -0.661
REMARK  Name = 12812773
REMARK  3 active torsions:
REMARK  status: ('A' for Active; 'I' for Inactive)
REMARK    1  A    between atoms: N_2  and  C_5
REMARK    2  A    between atoms: N_2  and  C_11
REMARK    3  A    between atoms: C_12  and  C_14
REMARK                            x       y       z     vdW  Elec       q    Type
REMARK                         _______ _______ _______ _____ _____    ______ ____
ROOT
ATOM      1  N   UNL     1     -19.535  41.977 -13.946  0.00  0.00    +0.000 NA
ATOM      2  C   UNL     1     -19.368  43.272 -14.356  0.00  0.00    +0.000 A 
ATOM      3  C   UNL     1     -18.240  44.019 -13.985  0.00  0.00    +0.000 A 
ATOM      4  C   UNL     1     -17.271  43.428 -13.181  0.00  0.00    +0.000 A 
ATOM      5  C   UNL     1     -18.572  41.438 -13.166  0.00  0.00    +0.000 A 
ATOM      6  C   UNL     1     -17.433  42.113 -12.760  0.00  0.00    +0.000 A 
ENDROOT
BRANCH   3   9
ATOM      7  O   UNL     1     -18.787  46.310 -13.988  0.00  0.00    +0.000 OA
ATOM      8  N   UNL     1     -17.042  45.661 -15.328  0.00  0.00    +0.000 N 
ATOM      9  C   UNL     1     -18.063  45.397 -14.421  0.00  0.00    +0.000 C 
ATOM     10  H   UNL     1     -16.436  44.929 -15.685  0.00  0.00    +0.000 HD
ATOM     11  H   UNL     1     -16.871  46.604 -15.660  0.00  0.00    +0.000 HD
ENDBRANCH   3   9
BRANCH   2  12
ATOM     12  N   UNL     1     -20.336  43.853 -15.155  0.00  0.00    +0.000 N 
ATOM     13  H   UNL     1     -20.724  44.732 -14.832  0.00  0.00    +0.000 HD
BRANCH  12  14
ATOM     14  C   UNL     1     -21.112  43.119 -16.130  0.00  0.00    +0.000 C 
ATOM     15  C   UNL     1     -22.432  43.835 -16.435  0.00  0.00    +0.000 C 
ATOM     16  C   UNL     1     -20.303  42.879 -17.409  0.00  0.00    +0.000 C 
ATOM     17  C   UNL     1     -22.231  45.111 -17.252  0.00  0.00    +0.000 C 
ATOM     18  C   UNL     1     -20.105  44.157 -18.226  0.00  0.00    +0.000 C 
ATOM     19  C   UNL     1     -21.434  44.844 -18.526  0.00  0.00    +0.000 C 
ENDBRANCH  12  14
ENDBRANCH   2  12
TORSDOF 3
ENDMDL
MODEL 5
REMARK VINA RESULT:    -5.268      4.362      6.607
REMARK INTER + INTRA:          -6.852
REMARK INTER:                  -6.170
REMARK INTRA:                  -0.682
REMARK UNBOUND:                -0.661
REMARK  Name = 12812773
REMARK  3 active torsions:
REMARK  status: ('A' for Active; 'I' for Inactive)
REMARK    1  A    between atoms: N_2  and  C_5
REMARK    2  A    between atoms: N_2  and  C_11
REMARK    3  A    between atoms: C_12  and  C_14
REMARK                            x       y       z     vdW  Elec       q    Type
REMARK                         _______ _______ _______ _____ _____    ______ ____
ROOT
ATOM      1  N   UNL     1     -20.887  42.915 -15.815  0.00  0.00    +0.000 NA
ATOM      2  C   UNL     1     -19.771  43.656 -15.535  0.00  0.00    +0.000 A 
ATOM      3  C   UNL     1     -19.573  44.925 -16.099  0.00  0.00    +0.000 A 
ATOM      4  C   UNL     1     -20.533  45.440 -16.962  0.00  0.00    +0.000 A 
ATOM      5  C   UNL     1     -21.798  43.449 -16.659  0.00  0.00    +0.000 A 
ATOM      6  C   UNL     1     -21.670  44.694 -17.253  0.00  0.00    +0.000 A 
ENDROOT
BRANCH   3   9
ATOM      7  O   UNL     1     -18.255  46.298 -14.711  0.00  0.00    +0.000 OA
ATOM      8  N   UNL     1     -17.392  45.776 -16.771  0.00  0.00    +0.000 N 
ATOM      9  C   UNL     1     -18.385  45.714 -15.800  0.00  0.00    +0.000 C 
ATOM     10  H   UNL     1     -17.478  45.299 -17.663  0.00  0.00    +0.000 HD
ATOM     11  H   UNL     1     -16.541  46.306 -16.613  0.00  0.00    +0.000 HD
ENDBRANCH   3   9
BRANCH   2  12
ATOM     12  N   UNL     1     -18.820  43.138 -14.674  0.00  0.00    +0.000 N 
ATOM     13  H   UNL     1     -18.115  42.536 -15.086  0.00  0.00    +0.000 HD
BRANCH  12  14
ATOM     14  C   UNL     1     -19.009  43.033 -13.245  0.00  0.00    +0.000 C 
ATOM     15  C   UNL     1     -19.312  41.589 -12.833  0.00  0.00    +0.000 C 
ATOM     16  C   UNL     1     -17.795  43.582 -12.488  0.00  0.00    +0.000 C 
ATOM     17  C   UNL     1     -18.088  40.679 -12.944  0.00  0.00    +0.000 C 
ATOM     18  C   UNL     1     -16.573  42.670 -12.599  0.00  0.00    +0.000 C 
ATOM     19  C   UNL     1     -16.897  41.241 -12.173  0.00  0.00    +0.000 C 
ENDBRANCH  12  14
ENDBRANCH   2  12
TORSDOF 3
ENDMDL
