MODEL 1
REMARK VINA RESULT:    -6.433      0.000      0.000
REMARK INTER + INTRA:          -8.005
REMARK INTER:                  -7.373
REMARK INTRA:                  -0.632
REMARK UNBOUND:                -0.632
REMARK  Name = 129933479
REMARK  3 active torsions:
REMARK  status: ('A' for Active; 'I' for Inactive)
REMARK    1  A    between atoms: N_3  and  C_8
REMARK    2  A    between atoms: N_4  and  C_10
REMARK    3  A    between atoms: C_7  and  C_10
REMARK                            x       y       z     vdW  Elec       q    Type
REMARK                         _______ _______ _______ _____ _____    ______ ____
ROOT
ATOM      1  O   UNL     1     -18.171  39.332 -11.178  0.00  0.00    +0.000 OA
ATOM      2  C   UNL     1     -18.930  40.311 -11.056  0.00  0.00    +0.000 C 
ENDROOT
BRANCH   2   3
ATOM      3  N   UNL     1     -19.532  40.932 -12.146  0.00  0.00    +0.000 NA
ATOM      4  N   UNL     1     -19.228  42.099 -14.231  0.00  0.00    +0.000 N 
ATOM      5  N   UNL     1     -17.425  41.380 -13.032  0.00  0.00    +0.000 N 
ATOM      6  C   UNL     1     -18.796  41.454 -13.093  0.00  0.00    +0.000 C 
ATOM      7  H   UNL     1     -20.216  42.226 -14.417  0.00  0.00    +0.000 HD
ATOM      8  H   UNL     1     -18.573  42.469 -14.911  0.00  0.00    +0.000 HD
ATOM      9  H   UNL     1     -16.934  40.934 -12.264  0.00  0.00    +0.000 HD
ATOM     10  H   UNL     1     -16.849  41.781 -13.765  0.00  0.00    +0.000 HD
ENDBRANCH   2   3
BRANCH   2  12
ATOM     11  N   UNL     1     -18.770  42.278  -7.864  0.00  0.00    +0.000 NA
ATOM     12  C   UNL     1     -19.261  40.830  -9.737  0.00  0.00    +0.000 A 
ATOM     13  C   UNL     1     -18.488  41.780  -9.088  0.00  0.00    +0.000 A 
ATOM     14  C   UNL     1     -20.398  40.362  -9.086  0.00  0.00    +0.000 A 
ATOM     15  C   UNL     1     -20.721  40.850  -7.826  0.00  0.00    +0.000 A 
ATOM     16  C   UNL     1     -19.882  41.799  -7.263  0.00  0.00    +0.000 A 
BRANCH  13  17
ATOM     17  N   UNL     1     -17.326  42.259  -9.745  0.00  0.00    +0.000 N 
ATOM     18  H   UNL     1     -16.624  41.594 -10.042  0.00  0.00    +0.000 HD
ATOM     19  H   UNL     1     -17.007  43.182  -9.474  0.00  0.00    +0.000 HD
ENDBRANCH  13  17
ENDBRANCH   2  12
TORSDOF 3
ENDMDL
MODEL 2
REMARK VINA RESULT:    -6.158      2.070      2.909
REMARK INTER + INTRA:          -7.690
REMARK INTER:                  -7.098
REMARK INTRA:                  -0.593
REMARK UNBOUND:                -0.632
REMARK  Name = 129933479
REMARK  3 active torsions:
REMARK  status: ('A' for Active; 'I' for Inactive)
REMARK    1  A    between atoms: N_3  and  C_8
REMARK    2  A    between atoms: N_4  and  C_10
REMARK    3  A    between atoms: C_7  and  C_10
REMARK                            x       y       z     vdW  Elec       q    Type
REMARK                         _______ _______ _______ _____ _____    ______ ____
ROOT
ATOM      1  O   UNL     1     -16.986  41.965 -13.222  0.00  0.00    +0.000 OA
ATOM      2  C   UNL     1     -18.163  41.703 -12.914  0.00  0.00    +0.000 C 
ENDROOT
BRANCH   2   3
ATOM      3  N   UNL     1     -19.208  41.760 -13.830  0.00  0.00    +0.000 NA
ATOM      4  N   UNL     1     -20.755  43.146 -15.050  0.00  0.00    +0.000 N 
ATOM      5  N   UNL     1     -19.234  44.080 -13.631  0.00  0.00    +0.000 N 
ATOM      6  C   UNL     1     -19.725  42.913 -14.165  0.00  0.00    +0.000 C 
ATOM      7  H   UNL     1     -21.216  42.380 -15.528  0.00  0.00    +0.000 HD
ATOM      8  H   UNL     1     -21.085  44.085 -15.246  0.00  0.00    +0.000 HD
ATOM      9  H   UNL     1     -18.470  44.098 -12.963  0.00  0.00    +0.000 HD
ATOM     10  H   UNL     1     -19.629  44.978 -13.889  0.00  0.00    +0.000 HD
ENDBRANCH   2   3
BRANCH   2  12
ATOM     11  N   UNL     1     -19.520  39.685 -10.055  0.00  0.00    +0.000 NA
ATOM     12  C   UNL     1     -18.495  41.274 -11.563  0.00  0.00    +0.000 A 
ATOM     13  C   UNL     1     -19.196  40.107 -11.297  0.00  0.00    +0.000 A 
ATOM     14  C   UNL     1     -18.102  42.056 -10.483  0.00  0.00    +0.000 A 
ATOM     15  C   UNL     1     -18.416  41.655  -9.190  0.00  0.00    +0.000 A 
ATOM     16  C   UNL     1     -19.121  40.472  -9.031  0.00  0.00    +0.000 A 
BRANCH  13  17
ATOM     17  N   UNL     1     -19.602  39.306 -12.394  0.00  0.00    +0.000 N 
ATOM     18  H   UNL     1     -19.829  38.334 -12.230  0.00  0.00    +0.000 HD
ATOM     19  H   UNL     1     -19.206  39.546 -13.295  0.00  0.00    +0.000 HD
ENDBRANCH  13  17
ENDBRANCH   2  12
TORSDOF 3
ENDMDL
MODEL 3
REMARK VINA RESULT:    -6.034      2.171      3.071
REMARK INTER + INTRA:          -7.548
REMARK INTER:                  -6.947
REMARK INTRA:                  -0.601
REMARK UNBOUND:                -0.632
REMARK  Name = 129933479
REMARK  3 active torsions:
REMARK  status: ('A' for Active; 'I' for Inactive)
REMARK    1  A    between atoms: N_3  and  C_8
REMARK    2  A    between atoms: N_4  and  C_10
REMARK    3  A    between atoms: C_7  and  C_10
REMARK                            x       y       z     vdW  Elec       q    Type
REMARK                         _______ _______ _______ _____ _____    ______ ____
ROOT
ATOM      1  O   UNL     1     -18.283  41.543 -12.518  0.00  0.00    +0.000 OA
ATOM      2  C   UNL     1     -17.783  41.504 -11.379  0.00  0.00    +0.000 C 
ENDROOT
BRANCH   2   3
ATOM      3  N   UNL     1     -16.448  41.815 -11.136  0.00  0.00    +0.000 NA
ATOM      4  N   UNL     1     -14.166  41.046 -11.099  0.00  0.00    +0.000 N 
ATOM      5  N   UNL     1     -15.853  39.640 -11.717  0.00  0.00    +0.000 N 
ATOM      6  C   UNL     1     -15.523  40.906 -11.294  0.00  0.00    +0.000 C 
ATOM      7  H   UNL     1     -13.771  41.927 -10.790  0.00  0.00    +0.000 HD
ATOM      8  H   UNL     1     -13.526  40.274 -11.252  0.00  0.00    +0.000 HD
ATOM      9  H   UNL     1     -16.808  39.360 -11.915  0.00  0.00    +0.000 HD
ATOM     10  H   UNL     1     -15.139  38.931 -11.845  0.00  0.00    +0.000 HD
ENDBRANCH   2   3
BRANCH   2  12
ATOM     11  N   UNL     1     -20.277  39.782  -9.165  0.00  0.00    +0.000 NA
ATOM     12  C   UNL     1     -18.601  41.168 -10.223  0.00  0.00    +0.000 A 
ATOM     13  C   UNL     1     -19.503  40.115 -10.222  0.00  0.00    +0.000 A 
ATOM     14  C   UNL     1     -18.486  41.927  -9.063  0.00  0.00    +0.000 A 
ATOM     15  C   UNL     1     -19.265  41.615  -7.955  0.00  0.00    +0.000 A 
ATOM     16  C   UNL     1     -20.138  40.543  -8.056  0.00  0.00    +0.000 A 
BRANCH  13  17
ATOM     17  N   UNL     1     -19.628  39.340 -11.402  0.00  0.00    +0.000 N 
ATOM     18  H   UNL     1     -19.946  39.790 -12.251  0.00  0.00    +0.000 HD
ATOM     19  H   UNL     1     -19.871  38.364 -11.274  0.00  0.00    +0.000 HD
ENDBRANCH  13  17
ENDBRANCH   2  12
TORSDOF 3
ENDMDL
MODEL 4
REMARK VINA RESULT:    -5.974      1.843      4.742
REMARK INTER + INTRA:          -7.480
REMARK INTER:                  -6.869
REMARK INTRA:                  -0.611
REMARK UNBOUND:                -0.632
REMARK  Name = 129933479
REMARK  3 active torsions:
REMARK  status: ('A' for Active; 'I' for Inactive)
REMARK    1  A    between atoms: N_3  and  C_8
REMARK    2  A    between atoms: N_4  and  C_10
REMARK    3  A    between atoms: C_7  and  C_10
REMARK                            x       y       z     vdW  Elec       q    Type
REMARK                         _______ _______ _______ _____ _____    ______ ____
ROOT
ATOM      1  O   UNL     1     -18.126  40.447  -8.665  0.00  0.00    +0.000 OA
ATOM      2  C   UNL     1     -19.069  40.615  -9.460  0.00  0.00    +0.000 C 
ENDROOT
BRANCH   2   3
ATOM      3  N   UNL     1     -20.401  40.492  -9.078  0.00  0.00    +0.000 NA
ATOM      4  N   UNL     1     -22.142  41.180  -7.562  0.00  0.00    +0.000 N 
ATOM      5  N   UNL     1     -20.040  42.047  -7.382  0.00  0.00    +0.000 N 
ATOM      6  C   UNL     1     -20.861  41.183  -8.067  0.00  0.00    +0.000 C 
ATOM      7  H   UNL     1     -22.863  40.593  -7.968  0.00  0.00    +0.000 HD
ATOM      8  H   UNL     1     -22.402  41.757  -6.770  0.00  0.00    +0.000 HD
ATOM      9  H   UNL     1     -19.063  42.181  -7.621  0.00  0.00    +0.000 HD
ATOM     10  H   UNL     1     -20.392  42.588  -6.599  0.00  0.00    +0.000 HD
ENDBRANCH   2   3
BRANCH   2  12
ATOM     11  N   UNL     1     -18.907  40.513 -13.208  0.00  0.00    +0.000 NA
ATOM     12  C   UNL     1     -18.813  40.998 -10.841  0.00  0.00    +0.000 A 
ATOM     13  C   UNL     1     -19.135  40.185 -11.917  0.00  0.00    +0.000 A 
ATOM     14  C   UNL     1     -18.219  42.227 -11.109  0.00  0.00    +0.000 A 
ATOM     15  C   UNL     1     -17.969  42.599 -12.424  0.00  0.00    +0.000 A 
ATOM     16  C   UNL     1     -18.328  41.715 -13.429  0.00  0.00    +0.000 A 
BRANCH  13  17
ATOM     17  N   UNL     1     -19.738  38.929 -11.651  0.00  0.00    +0.000 N 
ATOM     18  H   UNL     1     -20.084  38.381 -12.427  0.00  0.00    +0.000 HD
ATOM     19  H   UNL     1     -20.226  38.845 -10.767  0.00  0.00    +0.000 HD
ENDBRANCH  13  17
ENDBRANCH   2  12
TORSDOF 3
ENDMDL
MODEL 5
REMARK VINA RESULT:    -5.785      1.757      4.447
REMARK INTER + INTRA:          -7.263
REMARK INTER:                  -6.588
REMARK INTRA:                  -0.675
REMARK UNBOUND:                -0.632
REMARK  Name = 129933479
REMARK  3 active torsions:
REMARK  status: ('A' for Active; 'I' for Inactive)
REMARK    1  A    between atoms: N_3  and  C_8
REMARK    2  A    between atoms: N_4  and  C_10
REMARK    3  A    between atoms: C_7  and  C_10
REMARK                            x       y       z     vdW  Elec       q    Type
REMARK                         _______ _______ _______ _____ _____    ______ ____
ROOT
ATOM      1  O   UNL     1     -18.868  38.952 -11.234  0.00  0.00    +0.000 OA
ATOM      2  C   UNL     1     -18.550  40.091 -10.847  0.00  0.00    +0.000 C 
ENDROOT
BRANCH   2   3
ATOM      3  N   UNL     1     -18.382  40.405  -9.502  0.00  0.00    +0.000 NA
ATOM      4  N   UNL     1     -19.422  40.713  -7.352  0.00  0.00    +0.000 N 
ATOM      5  N   UNL     1     -20.669  40.120  -9.168  0.00  0.00    +0.000 N 
ATOM      6  C   UNL     1     -19.413  40.425  -8.699  0.00  0.00    +0.000 C 
ATOM      7  H   UNL     1     -18.566  40.953  -6.863  0.00  0.00    +0.000 HD
ATOM      8  H   UNL     1     -20.280  40.699  -6.812  0.00  0.00    +0.000 HD
ATOM      9  H   UNL     1     -20.848  39.879 -10.137  0.00  0.00    +0.000 HD
ATOM     10  H   UNL     1     -21.472  40.131  -8.548  0.00  0.00    +0.000 HD
ENDBRANCH   2   3
BRANCH   2  12
ATOM     11  N   UNL     1     -16.750  42.639 -12.934  0.00  0.00    +0.000 NA
ATOM     12  C   UNL     1     -18.290  41.153 -11.808  0.00  0.00    +0.000 A 
ATOM     13  C   UNL     1     -17.020  41.653 -12.050  0.00  0.00    +0.000 A 
ATOM     14  C   UNL     1     -19.351  41.702 -12.521  0.00  0.00    +0.000 A 
ATOM     15  C   UNL     1     -19.113  42.718 -13.438  0.00  0.00    +0.000 A 
ATOM     16  C   UNL     1     -17.807  43.148 -13.606  0.00  0.00    +0.000 A 
BRANCH  13  17
ATOM     17  N   UNL     1     -15.934  41.100 -11.325  0.00  0.00    +0.000 N 
ATOM     18  H   UNL     1     -15.038  41.004 -11.786  0.00  0.00    +0.000 HD
ATOM     19  H   UNL     1     -16.170  40.413 -10.619  0.00  0.00    +0.000 HD
ENDBRANCH  13  17
ENDBRANCH   2  12
TORSDOF 3
ENDMDL
