MODEL 1
REMARK VINA RESULT:    -6.867      0.000      0.000
REMARK INTER + INTRA:          -7.288
REMARK INTER:                  -7.268
REMARK INTRA:                  -0.020
REMARK UNBOUND:                -0.020
REMARK  Name = 129969386
REMARK  1 active torsions:
REMARK  status: ('A' for Active; 'I' for Inactive)
REMARK    1  A    between atoms: C_6  and  C_11
REMARK                            x       y       z     vdW  Elec       q    Type
REMARK                         _______ _______ _______ _____ _____    ______ ____
ROOT
ATOM      1  F   UNL     1     -22.203  40.077  -8.230  0.00  0.00    +0.000 F 
ATOM      2  N   UNL     1     -18.526  41.967  -8.107  0.00  0.00    +0.000 NA
ATOM      3  N   UNL     1     -17.729  40.477  -9.785  0.00  0.00    +0.000 N 
ATOM      4  C   UNL     1     -20.802  41.760  -7.317  0.00  0.00    +0.000 A 
ATOM      5  C   UNL     1     -21.014  40.694  -8.184  0.00  0.00    +0.000 A 
ATOM      6  C   UNL     1     -19.983  40.263  -9.012  0.00  0.00    +0.000 A 
ATOM      7  C   UNL     1     -18.769  40.927  -8.936  0.00  0.00    +0.000 A 
ATOM      8  C   UNL     1     -19.552  42.358  -7.317  0.00  0.00    +0.000 A 
ATOM      9  H   UNL     1     -17.725  39.505 -10.070  0.00  0.00    +0.000 HD
ATOM     10  H   UNL     1     -16.842  40.961  -9.722  0.00  0.00    +0.000 HD
ENDROOT
BRANCH   4  13
ATOM     11  F   UNL     1     -21.574  42.433  -5.135  0.00  0.00    +0.000 F 
ATOM     12  O   UNL     1     -23.010  42.485  -6.784  0.00  0.00    +0.000 OA
ATOM     13  C   UNL     1     -21.856  42.237  -6.439  0.00  0.00    +0.000 C 
ENDBRANCH   4  13
TORSDOF 1
ENDMDL
MODEL 2
REMARK VINA RESULT:    -6.296      1.198      2.233
REMARK INTER + INTRA:          -6.683
REMARK INTER:                  -6.885
REMARK INTRA:                   0.201
REMARK UNBOUND:                -0.020
REMARK  Name = 129969386
REMARK  1 active torsions:
REMARK  status: ('A' for Active; 'I' for Inactive)
REMARK    1  A    between atoms: C_6  and  C_11
REMARK                            x       y       z     vdW  Elec       q    Type
REMARK                         _______ _______ _______ _____ _____    ______ ____
ROOT
ATOM      1  F   UNL     1     -20.455  42.960  -6.461  0.00  0.00    +0.000 F 
ATOM      2  N   UNL     1     -19.866  39.970  -9.257  0.00  0.00    +0.000 NA
ATOM      3  N   UNL     1     -17.564  40.570  -9.381  0.00  0.00    +0.000 N 
ATOM      4  C   UNL     1     -21.334  41.188  -7.772  0.00  0.00    +0.000 A 
ATOM      5  C   UNL     1     -20.272  41.989  -7.367  0.00  0.00    +0.000 A 
ATOM      6  C   UNL     1     -19.007  41.782  -7.907  0.00  0.00    +0.000 A 
ATOM      7  C   UNL     1     -18.858  40.768  -8.841  0.00  0.00    +0.000 A 
ATOM      8  C   UNL     1     -21.081  40.201  -8.710  0.00  0.00    +0.000 A 
ATOM      9  H   UNL     1     -16.936  41.363  -9.431  0.00  0.00    +0.000 HD
ATOM     10  H   UNL     1     -17.461  39.833 -10.067  0.00  0.00    +0.000 HD
ENDROOT
BRANCH   4  13
ATOM     11  F   UNL     1     -23.621  40.468  -7.524  0.00  0.00    +0.000 F 
ATOM     12  O   UNL     1     -23.016  42.308  -6.506  0.00  0.00    +0.000 OA
ATOM     13  C   UNL     1     -22.668  41.376  -7.228  0.00  0.00    +0.000 C 
ENDBRANCH   4  13
TORSDOF 1
ENDMDL
MODEL 3
REMARK VINA RESULT:    -5.685      2.279      3.020
REMARK INTER + INTRA:          -6.037
REMARK INTER:                  -5.943
REMARK INTRA:                  -0.094
REMARK UNBOUND:                -0.020
REMARK  Name = 129969386
REMARK  1 active torsions:
REMARK  status: ('A' for Active; 'I' for Inactive)
REMARK    1  A    between atoms: C_6  and  C_11
REMARK                            x       y       z     vdW  Elec       q    Type
REMARK                         _______ _______ _______ _____ _____    ______ ____
ROOT
ATOM      1  F   UNL     1     -18.142  42.705  -8.677  0.00  0.00    +0.000 F 
ATOM      2  N   UNL     1     -19.215  39.311 -10.782  0.00  0.00    +0.000 NA
ATOM      3  N   UNL     1     -17.325  39.618 -12.198  0.00  0.00    +0.000 N 
ATOM      4  C   UNL     1     -19.629  40.883  -8.993  0.00  0.00    +0.000 A 
ATOM      5  C   UNL     1     -18.496  41.604  -9.355  0.00  0.00    +0.000 A 
ATOM      6  C   UNL     1     -17.723  41.180 -10.430  0.00  0.00    +0.000 A 
ATOM      7  C   UNL     1     -18.123  40.037 -11.105  0.00  0.00    +0.000 A 
ATOM      8  C   UNL     1     -19.942  39.754  -9.731  0.00  0.00    +0.000 A 
ATOM      9  H   UNL     1     -16.802  40.318 -12.710  0.00  0.00    +0.000 HD
ATOM     10  H   UNL     1     -17.623  38.786 -12.692  0.00  0.00    +0.000 HD
ENDROOT
BRANCH   4  13
ATOM     11  F   UNL     1     -19.860  41.646  -6.718  0.00  0.00    +0.000 F 
ATOM     12  O   UNL     1     -21.687  41.359  -7.886  0.00  0.00    +0.000 OA
ATOM     13  C   UNL     1     -20.459  41.297  -7.875  0.00  0.00    +0.000 C 
ENDBRANCH   4  13
TORSDOF 1
ENDMDL
MODEL 4
REMARK VINA RESULT:    -5.625      3.001      4.127
REMARK INTER + INTRA:          -5.973
REMARK INTER:                  -5.941
REMARK INTRA:                  -0.032
REMARK UNBOUND:                -0.020
REMARK  Name = 129969386
REMARK  1 active torsions:
REMARK  status: ('A' for Active; 'I' for Inactive)
REMARK    1  A    between atoms: C_6  and  C_11
REMARK                            x       y       z     vdW  Elec       q    Type
REMARK                         _______ _______ _______ _____ _____    ______ ____
ROOT
ATOM      1  F   UNL     1     -21.008  39.224  -9.167  0.00  0.00    +0.000 F 
ATOM      2  N   UNL     1     -19.066  42.477  -7.508  0.00  0.00    +0.000 NA
ATOM      3  N   UNL     1     -20.750  42.598  -5.828  0.00  0.00    +0.000 N 
ATOM      4  C   UNL     1     -19.201  40.761  -9.205  0.00  0.00    +0.000 A 
ATOM      5  C   UNL     1     -20.374  40.279  -8.635  0.00  0.00    +0.000 A 
ATOM      6  C   UNL     1     -20.894  40.895  -7.502  0.00  0.00    +0.000 A 
ATOM      7  C   UNL     1     -20.208  41.981  -6.982  0.00  0.00    +0.000 A 
ATOM      8  C   UNL     1     -18.591  41.852  -8.609  0.00  0.00    +0.000 A 
ATOM      9  H   UNL     1     -21.751  42.549  -5.680  0.00  0.00    +0.000 HD
ATOM     10  H   UNL     1     -20.250  43.395  -5.455  0.00  0.00    +0.000 HD
ENDROOT
BRANCH   4  13
ATOM     11  F   UNL     1     -19.461  39.633 -11.320  0.00  0.00    +0.000 F 
ATOM     12  O   UNL     1     -17.427  40.034 -10.623  0.00  0.00    +0.000 OA
ATOM     13  C   UNL     1     -18.629  40.141 -10.388  0.00  0.00    +0.000 C 
ENDBRANCH   4  13
TORSDOF 1
ENDMDL
MODEL 5
REMARK VINA RESULT:    -5.517      3.951      5.023
REMARK INTER + INTRA:          -5.860
REMARK INTER:                  -5.742
REMARK INTRA:                  -0.118
REMARK UNBOUND:                -0.020
REMARK  Name = 129969386
REMARK  1 active torsions:
REMARK  status: ('A' for Active; 'I' for Inactive)
REMARK    1  A    between atoms: C_6  and  C_11
REMARK                            x       y       z     vdW  Elec       q    Type
REMARK                         _______ _______ _______ _____ _____    ______ ____
ROOT
ATOM      1  F   UNL     1     -17.153  41.979 -10.798  0.00  0.00    +0.000 F 
ATOM      2  N   UNL     1     -20.225  40.527  -8.439  0.00  0.00    +0.000 NA
ATOM      3  N   UNL     1     -19.790  42.250  -6.852  0.00  0.00    +0.000 N 
ATOM      4  C   UNL     1     -18.881  40.392 -10.444  0.00  0.00    +0.000 A 
ATOM      5  C   UNL     1     -18.150  41.503 -10.038  0.00  0.00    +0.000 A 
ATOM      6  C   UNL     1     -18.454  42.126  -8.833  0.00  0.00    +0.000 A 
ATOM      7  C   UNL     1     -19.492  41.604  -8.077  0.00  0.00    +0.000 A 
ATOM      8  C   UNL     1     -19.899  39.948  -9.617  0.00  0.00    +0.000 A 
ATOM      9  H   UNL     1     -19.045  42.737  -6.370  0.00  0.00    +0.000 HD
ATOM     10  H   UNL     1     -20.545  41.862  -6.300  0.00  0.00    +0.000 HD
ENDROOT
BRANCH   4  13
ATOM     11  F   UNL     1     -17.325  39.319 -11.941  0.00  0.00    +0.000 F 
ATOM     12  O   UNL     1     -19.412  39.468 -12.577  0.00  0.00    +0.000 OA
ATOM     13  C   UNL     1     -18.591  39.716 -11.697  0.00  0.00    +0.000 C 
ENDBRANCH   4  13
TORSDOF 1
ENDMDL
