MODEL 1
REMARK VINA RESULT:    -5.538      0.000      0.000
REMARK INTER + INTRA:          -6.753
REMARK INTER:                  -6.347
REMARK INTRA:                  -0.405
REMARK UNBOUND:                -0.405
REMARK  Name = 129916453
REMARK  5 active torsions:
REMARK  status: ('A' for Active; 'I' for Inactive)
REMARK    1  A    between atoms: O_1  and  N_3
REMARK    2  A    between atoms: O_1  and  C_13
REMARK    3  A    between atoms: N_3  and  C_10
REMARK    4  A    between atoms: N_5  and  C_8
REMARK    5  A    between atoms: C_6  and  C_7
REMARK                            x       y       z     vdW  Elec       q    Type
REMARK                         _______ _______ _______ _____ _____    ______ ____
ROOT
ATOM      1  N   UNL     1     -20.717  40.239  -8.938  0.00  0.00    +0.000 NA
ATOM      2  C   UNL     1     -18.594  41.052  -9.762  0.00  0.00    +0.000 A 
ATOM      3  C   UNL     1     -19.710  40.235  -9.841  0.00  0.00    +0.000 A 
ATOM      4  C   UNL     1     -18.505  41.930  -8.688  0.00  0.00    +0.000 A 
ATOM      5  C   UNL     1     -19.521  41.965  -7.739  0.00  0.00    +0.000 A 
ATOM      6  C   UNL     1     -20.596  41.106  -7.909  0.00  0.00    +0.000 A 
ENDROOT
BRANCH   2   9
ATOM      7  O   UNL     1     -16.606  40.214 -10.588  0.00  0.00    +0.000 OA
ATOM      8  N   UNL     1     -17.596  41.893 -11.829  0.00  0.00    +0.000 N 
ATOM      9  C   UNL     1     -17.513  41.026 -10.764  0.00  0.00    +0.000 C 
ATOM     10  C   UNL     1     -16.610  41.959 -12.892  0.00  0.00    +0.000 C 
BRANCH   8  11
ATOM     11  O   UNL     1     -18.646  42.812 -12.006  0.00  0.00    +0.000 OA
ATOM     12  C   UNL     1     -19.390  42.448 -13.165  0.00  0.00    +0.000 C 
ENDBRANCH   8  11
ENDBRANCH   2   9
BRANCH   3  13
ATOM     13  N   UNL     1     -19.808  39.337 -10.934  0.00  0.00    +0.000 N 
ATOM     14  H   UNL     1     -19.036  38.706 -11.114  0.00  0.00    +0.000 HD
ATOM     15  H   UNL     1     -20.355  39.650 -11.727  0.00  0.00    +0.000 HD
ENDBRANCH   3  13
TORSDOF 3
ENDMDL
MODEL 2
REMARK VINA RESULT:    -5.361      1.591      2.101
REMARK INTER + INTRA:          -6.550
REMARK INTER:                  -6.473
REMARK INTRA:                  -0.077
REMARK UNBOUND:                -0.405
REMARK  Name = 129916453
REMARK  5 active torsions:
REMARK  status: ('A' for Active; 'I' for Inactive)
REMARK    1  A    between atoms: O_1  and  N_3
REMARK    2  A    between atoms: O_1  and  C_13
REMARK    3  A    between atoms: N_3  and  C_10
REMARK    4  A    between atoms: N_5  and  C_8
REMARK    5  A    between atoms: C_6  and  C_7
REMARK                            x       y       z     vdW  Elec       q    Type
REMARK                         _______ _______ _______ _____ _____    ______ ____
ROOT
ATOM      1  N   UNL     1     -18.845  42.382  -7.907  0.00  0.00    +0.000 NA
ATOM      2  C   UNL     1     -19.258  40.851  -9.732  0.00  0.00    +0.000 A 
ATOM      3  C   UNL     1     -18.499  41.811  -9.082  0.00  0.00    +0.000 A 
ATOM      4  C   UNL     1     -20.449  40.451  -9.136  0.00  0.00    +0.000 A 
ATOM      5  C   UNL     1     -20.839  41.015  -7.926  0.00  0.00    +0.000 A 
ATOM      6  C   UNL     1     -20.008  41.968  -7.358  0.00  0.00    +0.000 A 
ENDROOT
BRANCH   2   9
ATOM      7  O   UNL     1     -18.578  39.046 -11.002  0.00  0.00    +0.000 OA
ATOM      8  N   UNL     1     -18.823  41.048 -12.129  0.00  0.00    +0.000 N 
ATOM      9  C   UNL     1     -18.853  40.244 -11.013  0.00  0.00    +0.000 C 
ATOM     10  C   UNL     1     -18.458  40.574 -13.451  0.00  0.00    +0.000 C 
BRANCH   8  11
ATOM     11  O   UNL     1     -19.143  42.418 -12.113  0.00  0.00    +0.000 OA
ATOM     12  C   UNL     1     -18.990  42.945 -13.427  0.00  0.00    +0.000 C 
ENDBRANCH   8  11
ENDBRANCH   2   9
BRANCH   3  13
ATOM     13  N   UNL     1     -17.282  42.223  -9.683  0.00  0.00    +0.000 N 
ATOM     14  H   UNL     1     -17.279  42.440 -10.672  0.00  0.00    +0.000 HD
ATOM     15  H   UNL     1     -16.431  41.848  -9.281  0.00  0.00    +0.000 HD
ENDBRANCH   3  13
TORSDOF 3
ENDMDL
MODEL 3
REMARK VINA RESULT:    -5.055      1.350      1.700
REMARK INTER + INTRA:          -6.199
REMARK INTER:                  -5.789
REMARK INTRA:                  -0.410
REMARK UNBOUND:                -0.405
REMARK  Name = 129916453
REMARK  5 active torsions:
REMARK  status: ('A' for Active; 'I' for Inactive)
REMARK    1  A    between atoms: O_1  and  N_3
REMARK    2  A    between atoms: O_1  and  C_13
REMARK    3  A    between atoms: N_3  and  C_10
REMARK    4  A    between atoms: N_5  and  C_8
REMARK    5  A    between atoms: C_6  and  C_7
REMARK                            x       y       z     vdW  Elec       q    Type
REMARK                         _______ _______ _______ _____ _____    ______ ____
ROOT
ATOM      1  N   UNL     1     -19.217  39.528 -10.450  0.00  0.00    +0.000 NA
ATOM      2  C   UNL     1     -17.678  41.375 -10.705  0.00  0.00    +0.000 A 
ATOM      3  C   UNL     1     -18.236  40.176 -11.118  0.00  0.00    +0.000 A 
ATOM      4  C   UNL     1     -18.157  41.945  -9.530  0.00  0.00    +0.000 A 
ATOM      5  C   UNL     1     -19.165  41.308  -8.815  0.00  0.00    +0.000 A 
ATOM      6  C   UNL     1     -19.656  40.112  -9.313  0.00  0.00    +0.000 A 
ENDROOT
BRANCH   2   9
ATOM      7  O   UNL     1     -15.456  41.696 -11.248  0.00  0.00    +0.000 OA
ATOM      8  N   UNL     1     -16.976  43.045 -12.346  0.00  0.00    +0.000 N 
ATOM      9  C   UNL     1     -16.611  42.060 -11.457  0.00  0.00    +0.000 C 
ATOM     10  C   UNL     1     -16.029  43.785 -13.160  0.00  0.00    +0.000 C 
BRANCH   8  11
ATOM     11  O   UNL     1     -18.308  43.443 -12.566  0.00  0.00    +0.000 OA
ATOM     12  C   UNL     1     -18.684  43.088 -13.893  0.00  0.00    +0.000 C 
ENDBRANCH   8  11
ENDBRANCH   2   9
BRANCH   3  13
ATOM     13  N   UNL     1     -17.754  39.590 -12.316  0.00  0.00    +0.000 N 
ATOM     14  H   UNL     1     -16.842  39.866 -12.658  0.00  0.00    +0.000 HD
ATOM     15  H   UNL     1     -18.452  39.322 -13.000  0.00  0.00    +0.000 HD
ENDBRANCH   3  13
TORSDOF 3
ENDMDL
MODEL 4
REMARK VINA RESULT:    -4.693      2.498      4.395
REMARK INTER + INTRA:          -5.785
REMARK INTER:                  -5.469
REMARK INTRA:                  -0.315
REMARK UNBOUND:                -0.405
REMARK  Name = 129916453
REMARK  5 active torsions:
REMARK  status: ('A' for Active; 'I' for Inactive)
REMARK    1  A    between atoms: O_1  and  N_3
REMARK    2  A    between atoms: O_1  and  C_13
REMARK    3  A    between atoms: N_3  and  C_10
REMARK    4  A    between atoms: N_5  and  C_8
REMARK    5  A    between atoms: C_6  and  C_7
REMARK                            x       y       z     vdW  Elec       q    Type
REMARK                         _______ _______ _______ _____ _____    ______ ____
ROOT
ATOM      1  N   UNL     1     -18.817  44.859 -13.781  0.00  0.00    +0.000 NA
ATOM      2  C   UNL     1     -18.055  42.855 -12.665  0.00  0.00    +0.000 A 
ATOM      3  C   UNL     1     -18.673  43.517 -13.714  0.00  0.00    +0.000 A 
ATOM      4  C   UNL     1     -17.554  43.620 -11.618  0.00  0.00    +0.000 A 
ATOM      5  C   UNL     1     -17.682  45.004 -11.651  0.00  0.00    +0.000 A 
ATOM      6  C   UNL     1     -18.317  45.570 -12.746  0.00  0.00    +0.000 A 
ENDROOT
BRANCH   2   9
ATOM      7  O   UNL     1     -17.055  40.888 -13.348  0.00  0.00    +0.000 OA
ATOM      8  N   UNL     1     -18.726  40.682 -11.766  0.00  0.00    +0.000 N 
ATOM      9  C   UNL     1     -17.911  41.388 -12.621  0.00  0.00    +0.000 C 
ATOM     10  C   UNL     1     -18.675  39.240 -11.614  0.00  0.00    +0.000 C 
BRANCH   8  11
ATOM     11  O   UNL     1     -19.697  41.281 -10.943  0.00  0.00    +0.000 OA
ATOM     12  C   UNL     1     -19.843  40.504  -9.758  0.00  0.00    +0.000 C 
ENDBRANCH   8  11
ENDBRANCH   2   9
BRANCH   3  13
ATOM     13  N   UNL     1     -19.186  42.743 -14.786  0.00  0.00    +0.000 N 
ATOM     14  H   UNL     1     -18.732  41.867 -15.012  0.00  0.00    +0.000 HD
ATOM     15  H   UNL     1     -19.622  43.256 -15.543  0.00  0.00    +0.000 HD
ENDBRANCH   3  13
TORSDOF 3
ENDMDL
MODEL 5
REMARK VINA RESULT:    -4.491      2.549      3.832
REMARK INTER + INTRA:          -5.553
REMARK INTER:                  -5.219
REMARK INTRA:                  -0.334
REMARK UNBOUND:                -0.405
REMARK  Name = 129916453
REMARK  5 active torsions:
REMARK  status: ('A' for Active; 'I' for Inactive)
REMARK    1  A    between atoms: O_1  and  N_3
REMARK    2  A    between atoms: O_1  and  C_13
REMARK    3  A    between atoms: N_3  and  C_10
REMARK    4  A    between atoms: N_5  and  C_8
REMARK    5  A    between atoms: C_6  and  C_7
REMARK                            x       y       z     vdW  Elec       q    Type
REMARK                         _______ _______ _______ _____ _____    ______ ____
ROOT
ATOM      1  N   UNL     1     -19.576  40.584 -12.732  0.00  0.00    +0.000 NA
ATOM      2  C   UNL     1     -18.426  42.663 -12.285  0.00  0.00    +0.000 A 
ATOM      3  C   UNL     1     -19.188  41.829 -13.088  0.00  0.00    +0.000 A 
ATOM      4  C   UNL     1     -18.038  42.188 -11.037  0.00  0.00    +0.000 A 
ATOM      5  C   UNL     1     -18.419  40.912 -10.635  0.00  0.00    +0.000 A 
ATOM      6  C   UNL     1     -19.181  40.157 -11.513  0.00  0.00    +0.000 A 
ENDROOT
BRANCH   2   9
ATOM      7  O   UNL     1     -18.889  44.888 -12.700  0.00  0.00    +0.000 OA
ATOM      8  N   UNL     1     -16.703  44.223 -13.044  0.00  0.00    +0.000 N 
ATOM      9  C   UNL     1     -18.020  44.018 -12.700  0.00  0.00    +0.000 C 
ATOM     10  C   UNL     1     -16.170  45.509 -13.454  0.00  0.00    +0.000 C 
BRANCH   8  11
ATOM     11  O   UNL     1     -15.728  43.209 -13.035  0.00  0.00    +0.000 OA
ATOM     12  C   UNL     1     -14.661  43.600 -12.177  0.00  0.00    +0.000 C 
ENDBRANCH   8  11
ENDBRANCH   2   9
BRANCH   3  13
ATOM     13  N   UNL     1     -19.589  42.307 -14.361  0.00  0.00    +0.000 N 
ATOM     14  H   UNL     1     -19.470  43.291 -14.569  0.00  0.00    +0.000 HD
ATOM     15  H   UNL     1     -20.362  41.823 -14.802  0.00  0.00    +0.000 HD
ENDBRANCH   3  13
TORSDOF 3
ENDMDL
