MODEL 1
REMARK VINA RESULT:    -6.554      0.000      0.000
REMARK INTER + INTRA:          -8.204
REMARK INTER:                  -7.895
REMARK INTRA:                  -0.310
REMARK UNBOUND:                -0.310
REMARK  Name = 130198322
REMARK  6 active torsions:
REMARK  status: ('A' for Active; 'I' for Inactive)
REMARK    1  A    between atoms: N_2  and  N_3
REMARK    2  A    between atoms: N_2  and  C_6
REMARK    3  A    between atoms: N_5  and  C_11
REMARK    4  A    between atoms: C_6  and  C_7
REMARK    5  A    between atoms: C_6  and  C_8
REMARK    6  A    between atoms: C_9  and  C_10
REMARK                            x       y       z     vdW  Elec       q    Type
REMARK                         _______ _______ _______ _____ _____    ______ ____
ROOT
ATOM      1  N   UNL     1     -21.572  42.599  -6.571  0.00  0.00    +0.000 NA
ATOM      2  C   UNL     1     -20.667  40.963  -8.105  0.00  0.00    +0.000 A 
ATOM      3  C   UNL     1     -20.554  42.083  -7.298  0.00  0.00    +0.000 A 
ATOM      4  C   UNL     1     -21.903  40.331  -8.171  0.00  0.00    +0.000 A 
ATOM      5  C   UNL     1     -22.974  40.831  -7.439  0.00  0.00    +0.000 A 
ATOM      6  C   UNL     1     -22.757  41.957  -6.661  0.00  0.00    +0.000 A 
ENDROOT
BRANCH   2   9
ATOM      7  O   UNL     1     -18.401  40.434  -8.400  0.00  0.00    +0.000 OA
ATOM      8  N   UNL     1     -19.850  39.907 -10.135  0.00  0.00    +0.000 N 
ATOM      9  C   UNL     1     -19.528  40.418  -8.889  0.00  0.00    +0.000 C 
ATOM     10  H   UNL     1     -20.795  39.920 -10.506  0.00  0.00    +0.000 HD
BRANCH   8  11
ATOM     11  N   UNL     1     -18.840  39.365 -10.912  0.00  0.00    +0.000 NA
ATOM     12  H   UNL     1     -17.969  39.742 -10.537  0.00  0.00    +0.000 HD
BRANCH  11  13
ATOM     13  C   UNL     1     -19.002  39.784 -12.304  0.00  0.00    +0.000 C 
ATOM     14  C   UNL     1     -17.650  39.811 -13.010  0.00  0.00    +0.000 C 
ATOM     15  C   UNL     1     -19.671  41.154 -12.346  0.00  0.00    +0.000 C 
ENDBRANCH  11  13
ENDBRANCH   8  11
ENDBRANCH   2   9
BRANCH   3  16
ATOM     16  N   UNL     1     -19.296  42.732  -7.222  0.00  0.00    +0.000 N 
ATOM     17  H   UNL     1     -19.201  43.655  -7.627  0.00  0.00    +0.000 HD
ATOM     18  H   UNL     1     -18.479  42.134  -7.219  0.00  0.00    +0.000 HD
ENDBRANCH   3  16
TORSDOF 4
ENDMDL
MODEL 2
REMARK VINA RESULT:    -6.430      1.773      2.156
REMARK INTER + INTRA:          -8.056
REMARK INTER:                  -7.689
REMARK INTRA:                  -0.367
REMARK UNBOUND:                -0.310
REMARK  Name = 130198322
REMARK  6 active torsions:
REMARK  status: ('A' for Active; 'I' for Inactive)
REMARK    1  A    between atoms: N_2  and  N_3
REMARK    2  A    between atoms: N_2  and  C_6
REMARK    3  A    between atoms: N_5  and  C_11
REMARK    4  A    between atoms: C_6  and  C_7
REMARK    5  A    between atoms: C_6  and  C_8
REMARK    6  A    between atoms: C_9  and  C_10
REMARK                            x       y       z     vdW  Elec       q    Type
REMARK                         _______ _______ _______ _____ _____    ______ ____
ROOT
ATOM      1  N   UNL     1     -19.185  42.330  -7.345  0.00  0.00    +0.000 NA
ATOM      2  C   UNL     1     -19.712  40.951  -9.260  0.00  0.00    +0.000 A 
ATOM      3  C   UNL     1     -18.886  41.814  -8.559  0.00  0.00    +0.000 A 
ATOM      4  C   UNL     1     -20.923  40.594  -8.679  0.00  0.00    +0.000 A 
ATOM      5  C   UNL     1     -21.267  41.104  -7.432  0.00  0.00    +0.000 A 
ATOM      6  C   UNL     1     -20.371  41.960  -6.813  0.00  0.00    +0.000 A 
ENDROOT
BRANCH   2   9
ATOM      7  O   UNL     1     -18.766  39.320 -10.655  0.00  0.00    +0.000 OA
ATOM      8  N   UNL     1     -19.741  41.160 -11.681  0.00  0.00    +0.000 N 
ATOM      9  C   UNL     1     -19.354  40.398 -10.593  0.00  0.00    +0.000 C 
ATOM     10  H   UNL     1     -20.218  42.051 -11.585  0.00  0.00    +0.000 HD
BRANCH   8  11
ATOM     11  N   UNL     1     -19.455  40.694 -12.953  0.00  0.00    +0.000 NA
ATOM     12  H   UNL     1     -18.857  39.879 -12.823  0.00  0.00    +0.000 HD
BRANCH  11  13
ATOM     13  C   UNL     1     -18.738  41.719 -13.711  0.00  0.00    +0.000 C 
ATOM     14  C   UNL     1     -17.337  41.916 -13.141  0.00  0.00    +0.000 C 
ATOM     15  C   UNL     1     -19.532  43.022 -13.678  0.00  0.00    +0.000 C 
ENDBRANCH  11  13
ENDBRANCH   8  11
ENDBRANCH   2   9
BRANCH   3  16
ATOM     16  N   UNL     1     -17.648  42.181  -9.144  0.00  0.00    +0.000 N 
ATOM     17  H   UNL     1     -17.026  42.786  -8.623  0.00  0.00    +0.000 HD
ATOM     18  H   UNL     1     -17.626  42.242 -10.154  0.00  0.00    +0.000 HD
ENDBRANCH   3  16
TORSDOF 4
ENDMDL
MODEL 3
REMARK VINA RESULT:    -6.414      2.355      3.089
REMARK INTER + INTRA:          -8.036
REMARK INTER:                  -7.496
REMARK INTRA:                  -0.540
REMARK UNBOUND:                -0.310
REMARK  Name = 130198322
REMARK  6 active torsions:
REMARK  status: ('A' for Active; 'I' for Inactive)
REMARK    1  A    between atoms: N_2  and  N_3
REMARK    2  A    between atoms: N_2  and  C_6
REMARK    3  A    between atoms: N_5  and  C_11
REMARK    4  A    between atoms: C_6  and  C_7
REMARK    5  A    between atoms: C_6  and  C_8
REMARK    6  A    between atoms: C_9  and  C_10
REMARK                            x       y       z     vdW  Elec       q    Type
REMARK                         _______ _______ _______ _____ _____    ______ ____
ROOT
ATOM      1  N   UNL     1     -21.648  40.495  -8.302  0.00  0.00    +0.000 NA
ATOM      2  C   UNL     1     -19.384  41.295  -8.589  0.00  0.00    +0.000 A 
ATOM      3  C   UNL     1     -20.452  40.483  -8.933  0.00  0.00    +0.000 A 
ATOM      4  C   UNL     1     -19.554  42.176  -7.526  0.00  0.00    +0.000 A 
ATOM      5  C   UNL     1     -20.768  42.217  -6.851  0.00  0.00    +0.000 A 
ATOM      6  C   UNL     1     -21.774  41.364  -7.275  0.00  0.00    +0.000 A 
ENDROOT
BRANCH   2   9
ATOM      7  O   UNL     1     -17.531  40.179  -9.497  0.00  0.00    +0.000 OA
ATOM      8  N   UNL     1     -17.598  42.488  -9.724  0.00  0.00    +0.000 N 
ATOM      9  C   UNL     1     -18.082  41.261  -9.305  0.00  0.00    +0.000 C 
ATOM     10  H   UNL     1     -18.081  43.361  -9.537  0.00  0.00    +0.000 HD
BRANCH   8  11
ATOM     11  N   UNL     1     -16.398  42.528 -10.415  0.00  0.00    +0.000 NA
ATOM     12  H   UNL     1     -15.756  43.057  -9.825  0.00  0.00    +0.000 HD
BRANCH  11  13
ATOM     13  C   UNL     1     -16.580  43.217 -11.691  0.00  0.00    +0.000 C 
ATOM     14  C   UNL     1     -17.631  44.314 -11.556  0.00  0.00    +0.000 C 
ATOM     15  C   UNL     1     -16.978  42.206 -12.762  0.00  0.00    +0.000 C 
ENDBRANCH  11  13
ENDBRANCH   8  11
ENDBRANCH   2   9
BRANCH   3  16
ATOM     16  N   UNL     1     -20.289  39.584 -10.018  0.00  0.00    +0.000 N 
ATOM     17  H   UNL     1     -19.396  39.559 -10.496  0.00  0.00    +0.000 HD
ATOM     18  H   UNL     1     -21.118  39.373 -10.559  0.00  0.00    +0.000 HD
ENDBRANCH   3  16
TORSDOF 4
ENDMDL
MODEL 4
REMARK VINA RESULT:    -6.152      1.761      5.282
REMARK INTER + INTRA:          -7.721
REMARK INTER:                  -7.229
REMARK INTRA:                  -0.492
REMARK UNBOUND:                -0.310
REMARK  Name = 130198322
REMARK  6 active torsions:
REMARK  status: ('A' for Active; 'I' for Inactive)
REMARK    1  A    between atoms: N_2  and  N_3
REMARK    2  A    between atoms: N_2  and  C_6
REMARK    3  A    between atoms: N_5  and  C_11
REMARK    4  A    between atoms: C_6  and  C_7
REMARK    5  A    between atoms: C_6  and  C_8
REMARK    6  A    between atoms: C_9  and  C_10
REMARK                            x       y       z     vdW  Elec       q    Type
REMARK                         _______ _______ _______ _____ _____    ______ ____
ROOT
ATOM      1  N   UNL     1     -17.440  42.095 -12.489  0.00  0.00    +0.000 NA
ATOM      2  C   UNL     1     -18.544  40.705 -10.848  0.00  0.00    +0.000 A 
ATOM      3  C   UNL     1     -17.919  41.876 -11.244  0.00  0.00    +0.000 A 
ATOM      4  C   UNL     1     -18.687  39.693 -11.790  0.00  0.00    +0.000 A 
ATOM      5  C   UNL     1     -18.207  39.880 -13.081  0.00  0.00    +0.000 A 
ATOM      6  C   UNL     1     -17.598  41.089 -13.377  0.00  0.00    +0.000 A 
ENDROOT
BRANCH   2   9
ATOM      7  O   UNL     1     -18.277  40.502  -8.526  0.00  0.00    +0.000 OA
ATOM      8  N   UNL     1     -20.433  40.324  -9.367  0.00  0.00    +0.000 N 
ATOM      9  C   UNL     1     -19.063  40.496  -9.470  0.00  0.00    +0.000 C 
ATOM     10  H   UNL     1     -21.047  40.317 -10.175  0.00  0.00    +0.000 HD
BRANCH   8  11
ATOM     11  N   UNL     1     -20.986  40.143  -8.111  0.00  0.00    +0.000 NA
ATOM     12  H   UNL     1     -21.731  39.457  -8.232  0.00  0.00    +0.000 HD
BRANCH  11  13
ATOM     13  C   UNL     1     -21.548  41.403  -7.626  0.00  0.00    +0.000 C 
ATOM     14  C   UNL     1     -20.733  41.930  -6.450  0.00  0.00    +0.000 C 
ATOM     15  C   UNL     1     -23.006  41.189  -7.231  0.00  0.00    +0.000 C 
ENDBRANCH  11  13
ENDBRANCH   8  11
ENDBRANCH   2   9
BRANCH   3  16
ATOM     16  N   UNL     1     -17.772  42.914 -10.289  0.00  0.00    +0.000 N 
ATOM     17  H   UNL     1     -18.162  42.781  -9.364  0.00  0.00    +0.000 HD
ATOM     18  H   UNL     1     -17.734  43.859 -10.651  0.00  0.00    +0.000 HD
ENDBRANCH   3  16
TORSDOF 4
ENDMDL
MODEL 5
REMARK VINA RESULT:    -6.032      2.087      5.508
REMARK INTER + INTRA:          -7.576
REMARK INTER:                  -7.119
REMARK INTRA:                  -0.457
REMARK UNBOUND:                -0.310
REMARK  Name = 130198322
REMARK  6 active torsions:
REMARK  status: ('A' for Active; 'I' for Inactive)
REMARK    1  A    between atoms: N_2  and  N_3
REMARK    2  A    between atoms: N_2  and  C_6
REMARK    3  A    between atoms: N_5  and  C_11
REMARK    4  A    between atoms: C_6  and  C_7
REMARK    5  A    between atoms: C_6  and  C_8
REMARK    6  A    between atoms: C_9  and  C_10
REMARK                            x       y       z     vdW  Elec       q    Type
REMARK                         _______ _______ _______ _____ _____    ______ ____
ROOT
ATOM      1  N   UNL     1     -16.641  42.231 -12.650  0.00  0.00    +0.000 NA
ATOM      2  C   UNL     1     -18.644  41.163 -11.820  0.00  0.00    +0.000 A 
ATOM      3  C   UNL     1     -17.276  41.375 -11.817  0.00  0.00    +0.000 A 
ATOM      4  C   UNL     1     -19.412  41.873 -12.736  0.00  0.00    +0.000 A 
ATOM      5  C   UNL     1     -18.795  42.762 -13.609  0.00  0.00    +0.000 A 
ATOM      6  C   UNL     1     -17.420  42.903 -13.526  0.00  0.00    +0.000 A 
ENDROOT
BRANCH   2   9
ATOM      7  O   UNL     1     -19.119  39.010 -11.017  0.00  0.00    +0.000 OA
ATOM      8  N   UNL     1     -20.109  40.798  -9.916  0.00  0.00    +0.000 N 
ATOM      9  C   UNL     1     -19.314  40.217 -10.888  0.00  0.00    +0.000 C 
ATOM     10  H   UNL     1     -20.251  41.800  -9.849  0.00  0.00    +0.000 HD
BRANCH   8  11
ATOM     11  N   UNL     1     -20.749  39.975  -9.002  0.00  0.00    +0.000 NA
ATOM     12  H   UNL     1     -21.695  39.846  -9.360  0.00  0.00    +0.000 HD
BRANCH  11  13
ATOM     13  C   UNL     1     -20.798  40.627  -7.694  0.00  0.00    +0.000 C 
ATOM     14  C   UNL     1     -22.123  41.361  -7.517  0.00  0.00    +0.000 C 
ATOM     15  C   UNL     1     -19.618  41.584  -7.560  0.00  0.00    +0.000 C 
ENDBRANCH  11  13
ENDBRANCH   8  11
ENDBRANCH   2   9
BRANCH   3  16
ATOM     16  N   UNL     1     -16.487  40.657 -10.884  0.00  0.00    +0.000 N 
ATOM     17  H   UNL     1     -15.594  40.288 -11.186  0.00  0.00    +0.000 HD
ATOM     18  H   UNL     1     -16.988  40.146 -10.167  0.00  0.00    +0.000 HD
ENDBRANCH   3  16
TORSDOF 4
ENDMDL
