MODEL 1
REMARK VINA RESULT:    -5.525      0.000      0.000
REMARK INTER + INTRA:          -5.525
REMARK INTER:                  -5.525
REMARK INTRA:                   0.000
REMARK UNBOUND:                 0.000
REMARK  Name = 130251079
REMARK  1 active torsions:
REMARK  status: ('A' for Active; 'I' for Inactive)
REMARK    1  A    between atoms: N_2  and  C_8
REMARK                            x       y       z     vdW  Elec       q    Type
REMARK                         _______ _______ _______ _____ _____    ______ ____
ROOT
ATOM      1  O   UNL     1     -18.606  39.510 -13.538  0.00  0.00    +0.000 OA
ATOM      2  N   UNL     1     -18.760  41.100  -9.851  0.00  0.00    +0.000 N 
ATOM      3  N   UNL     1     -17.682  43.126 -10.613  0.00  0.00    +0.000 NA
ATOM      4  N   UNL     1     -19.221  39.278 -11.343  0.00  0.00    +0.000 NA
ATOM      5  C   UNL     1     -18.174  41.884 -10.865  0.00  0.00    +0.000 A 
ATOM      6  C   UNL     1     -18.118  41.336 -12.155  0.00  0.00    +0.000 A 
ATOM      7  C   UNL     1     -17.548  42.072 -13.195  0.00  0.00    +0.000 A 
ATOM      8  C   UNL     1     -18.825  41.661  -8.513  0.00  0.00    +0.000 C 
ATOM      9  C   UNL     1     -19.234  39.857 -10.187  0.00  0.00    +0.000 A 
ATOM     10  C   UNL     1     -18.666  39.971 -12.403  0.00  0.00    +0.000 A 
ATOM     11  C   UNL     1     -17.047  43.339 -12.935  0.00  0.00    +0.000 A 
ATOM     12  C   UNL     1     -17.136  43.816 -11.641  0.00  0.00    +0.000 A 
ENDROOT
TORSDOF 0
ENDMDL
MODEL 2
REMARK VINA RESULT:    -5.444      2.081      2.993
REMARK INTER + INTRA:          -5.444
REMARK INTER:                  -5.444
REMARK INTRA:                   0.000
REMARK UNBOUND:                 0.000
REMARK  Name = 130251079
REMARK  1 active torsions:
REMARK  status: ('A' for Active; 'I' for Inactive)
REMARK    1  A    between atoms: N_2  and  C_8
REMARK                            x       y       z     vdW  Elec       q    Type
REMARK                         _______ _______ _______ _____ _____    ______ ____
ROOT
ATOM      1  O   UNL     1     -18.286  42.697  -8.325  0.00  0.00    +0.000 OA
ATOM      2  N   UNL     1     -19.126  40.077 -11.254  0.00  0.00    +0.000 N 
ATOM      3  N   UNL     1     -17.866  41.374 -12.859  0.00  0.00    +0.000 NA
ATOM      4  N   UNL     1     -19.330  40.760  -8.962  0.00  0.00    +0.000 NA
ATOM      5  C   UNL     1     -18.331  41.191 -11.596  0.00  0.00    +0.000 A 
ATOM      6  C   UNL     1     -18.033  42.108 -10.578  0.00  0.00    +0.000 A 
ATOM      7  C   UNL     1     -17.249  43.227 -10.864  0.00  0.00    +0.000 A 
ATOM      8  C   UNL     1     -19.438  39.120 -12.301  0.00  0.00    +0.000 C 
ATOM      9  C   UNL     1     -19.557  39.964  -9.957  0.00  0.00    +0.000 A 
ATOM     10  C   UNL     1     -18.558  41.881  -9.200  0.00  0.00    +0.000 A 
ATOM     11  C   UNL     1     -16.774  43.412 -12.154  0.00  0.00    +0.000 A 
ATOM     12  C   UNL     1     -17.107  42.468 -13.106  0.00  0.00    +0.000 A 
ENDROOT
TORSDOF 0
ENDMDL
MODEL 3
REMARK VINA RESULT:    -5.038      2.361      3.128
REMARK INTER + INTRA:          -5.038
REMARK INTER:                  -5.038
REMARK INTRA:                   0.000
REMARK UNBOUND:                 0.000
REMARK  Name = 130251079
REMARK  1 active torsions:
REMARK  status: ('A' for Active; 'I' for Inactive)
REMARK    1  A    between atoms: N_2  and  C_8
REMARK                            x       y       z     vdW  Elec       q    Type
REMARK                         _______ _______ _______ _____ _____    ______ ____
ROOT
ATOM      1  O   UNL     1     -15.411  42.929 -11.714  0.00  0.00    +0.000 OA
ATOM      2  N   UNL     1     -18.344  40.198 -12.005  0.00  0.00    +0.000 N 
ATOM      3  N   UNL     1     -19.630  41.643 -13.455  0.00  0.00    +0.000 NA
ATOM      4  N   UNL     1     -16.210  40.863 -11.131  0.00  0.00    +0.000 NA
ATOM      5  C   UNL     1     -18.520  41.407 -12.708  0.00  0.00    +0.000 A 
ATOM      6  C   UNL     1     -17.499  42.364 -12.612  0.00  0.00    +0.000 A 
ATOM      7  C   UNL     1     -17.624  43.578 -13.291  0.00  0.00    +0.000 A 
ATOM      8  C   UNL     1     -19.395  39.200 -12.100  0.00  0.00    +0.000 C 
ATOM      9  C   UNL     1     -17.195  40.036 -11.274  0.00  0.00    +0.000 A 
ATOM     10  C   UNL     1     -16.292  42.078 -11.786  0.00  0.00    +0.000 A 
ATOM     11  C   UNL     1     -18.758  43.817 -14.053  0.00  0.00    +0.000 A 
ATOM     12  C   UNL     1     -19.723  42.828 -14.102  0.00  0.00    +0.000 A 
ENDROOT
TORSDOF 0
ENDMDL
MODEL 4
REMARK VINA RESULT:    -4.994      2.006      3.725
REMARK INTER + INTRA:          -4.994
REMARK INTER:                  -4.994
REMARK INTRA:                   0.000
REMARK UNBOUND:                 0.000
REMARK  Name = 130251079
REMARK  1 active torsions:
REMARK  status: ('A' for Active; 'I' for Inactive)
REMARK    1  A    between atoms: N_2  and  C_8
REMARK                            x       y       z     vdW  Elec       q    Type
REMARK                         _______ _______ _______ _____ _____    ______ ____
ROOT
ATOM      1  O   UNL     1     -20.228  42.403 -14.335  0.00  0.00    +0.000 OA
ATOM      2  N   UNL     1     -16.784  43.066 -12.374  0.00  0.00    +0.000 N 
ATOM      3  N   UNL     1     -17.015  40.998 -11.142  0.00  0.00    +0.000 NA
ATOM      4  N   UNL     1     -18.419  43.764 -13.986  0.00  0.00    +0.000 NA
ATOM      5  C   UNL     1     -17.482  41.881 -12.063  0.00  0.00    +0.000 A 
ATOM      6  C   UNL     1     -18.685  41.643 -12.745  0.00  0.00    +0.000 A 
ATOM      7  C   UNL     1     -19.414  40.484 -12.475  0.00  0.00    +0.000 A 
ATOM      8  C   UNL     1     -15.537  43.320 -11.674  0.00  0.00    +0.000 C 
ATOM      9  C   UNL     1     -17.322  43.906 -13.315  0.00  0.00    +0.000 A 
ATOM     10  C   UNL     1     -19.173  42.630 -13.750  0.00  0.00    +0.000 A 
ATOM     11  C   UNL     1     -18.935  39.583 -11.535  0.00  0.00    +0.000 A 
ATOM     12  C   UNL     1     -17.743  39.882 -10.902  0.00  0.00    +0.000 A 
ENDROOT
TORSDOF 0
ENDMDL
MODEL 5
REMARK VINA RESULT:    -4.941      1.947      2.423
REMARK INTER + INTRA:          -4.941
REMARK INTER:                  -4.941
REMARK INTRA:                   0.000
REMARK UNBOUND:                 0.000
REMARK  Name = 130251079
REMARK  1 active torsions:
REMARK  status: ('A' for Active; 'I' for Inactive)
REMARK    1  A    between atoms: N_2  and  C_8
REMARK                            x       y       z     vdW  Elec       q    Type
REMARK                         _______ _______ _______ _____ _____    ______ ____
ROOT
ATOM      1  O   UNL     1     -19.523  39.549 -12.787  0.00  0.00    +0.000 OA
ATOM      2  N   UNL     1     -16.329  41.728 -11.692  0.00  0.00    +0.000 N 
ATOM      3  N   UNL     1     -17.124  43.637 -12.946  0.00  0.00    +0.000 NA
ATOM      4  N   UNL     1     -17.554  39.666 -11.621  0.00  0.00    +0.000 NA
ATOM      5  C   UNL     1     -17.278  42.353 -12.527  0.00  0.00    +0.000 A 
ATOM      6  C   UNL     1     -18.396  41.598 -12.912  0.00  0.00    +0.000 A 
ATOM      7  C   UNL     1     -19.365  42.171 -13.738  0.00  0.00    +0.000 A 
ATOM      8  C   UNL     1     -15.169  42.502 -11.286  0.00  0.00    +0.000 C 
ATOM      9  C   UNL     1     -16.557  40.430 -11.313  0.00  0.00    +0.000 A 
ATOM     10  C   UNL     1     -18.538  40.192 -12.438  0.00  0.00    +0.000 A 
ATOM     11  C   UNL     1     -19.206  43.482 -14.164  0.00  0.00    +0.000 A 
ATOM     12  C   UNL     1     -18.080  44.165 -13.745  0.00  0.00    +0.000 A 
ENDROOT
TORSDOF 0
ENDMDL
