MODEL 1
REMARK VINA RESULT:    -7.839      0.000      0.000
REMARK INTER + INTRA:          -9.156
REMARK INTER:                  -9.214
REMARK INTRA:                   0.058
REMARK UNBOUND:                 0.058
REMARK  Name = 130219421
REMARK  5 active torsions:
REMARK  status: ('A' for Active; 'I' for Inactive)
REMARK    1  A    between atoms: C_6  and  C_7
REMARK    2  A    between atoms: C_6  and  C_8
REMARK    3  A    between atoms: C_6  and  C_9
REMARK    4  A    between atoms: C_7  and  C_10
REMARK    5  A    between atoms: C_13  and  C_16
REMARK                            x       y       z     vdW  Elec       q    Type
REMARK                         _______ _______ _______ _____ _____    ______ ____
ROOT
ATOM      1  O   UNL     1     -18.627  39.320 -11.130  0.00  0.00    +0.000 OA
ATOM      2  N   UNL     1     -17.855  40.986  -9.667  0.00  0.00    +0.000 N 
ATOM      3  N   UNL     1     -18.877  42.174  -7.879  0.00  0.00    +0.000 NA
ATOM      4  C   UNL     1     -17.753  40.075 -10.714  0.00  0.00    +0.000 C 
ATOM      5  C   UNL     1     -18.983  41.242  -8.852  0.00  0.00    +0.000 A 
ATOM      6  C   UNL     1     -20.134  40.515  -9.107  0.00  0.00    +0.000 A 
ATOM      7  C   UNL     1     -21.179  41.711  -7.301  0.00  0.00    +0.000 A 
ATOM      8  C   UNL     1     -21.249  40.759  -8.313  0.00  0.00    +0.000 A 
ATOM      9  C   UNL     1     -19.981  42.386  -7.127  0.00  0.00    +0.000 A 
ATOM     10  H   UNL     1     -17.042  41.553  -9.436  0.00  0.00    +0.000 HD
ENDROOT
BRANCH   7  13
ATOM     11  O   UNL     1     -23.321  41.249  -6.440  0.00  0.00    +0.000 OA
ATOM     12  N   UNL     1     -22.270  43.123  -5.643  0.00  0.00    +0.000 N 
ATOM     13  C   UNL     1     -22.326  41.994  -6.456  0.00  0.00    +0.000 C 
ATOM     14  H   UNL     1     -21.497  43.776  -5.593  0.00  0.00    +0.000 HD
ATOM     15  H   UNL     1     -23.055  43.342  -5.037  0.00  0.00    +0.000 HD
ENDBRANCH   7  13
BRANCH   4  16
ATOM     16  C   UNL     1     -16.348  40.091 -11.306  0.00  0.00    +0.000 C 
BRANCH  16  17
ATOM     17  C   UNL     1     -16.095  41.250 -12.281  0.00  0.00    +0.000 C 
ATOM     18  C   UNL     1     -15.582  42.474 -11.519  0.00  0.00    +0.000 C 
ATOM     19  C   UNL     1     -17.366  41.619 -13.051  0.00  0.00    +0.000 C 
ENDBRANCH  16  17
ENDBRANCH   4  16
TORSDOF 3
ENDMDL
MODEL 2
REMARK VINA RESULT:    -6.220      4.747      6.563
REMARK INTER + INTRA:          -7.253
REMARK INTER:                  -7.081
REMARK INTRA:                  -0.172
REMARK UNBOUND:                 0.058
REMARK  Name = 130219421
REMARK  5 active torsions:
REMARK  status: ('A' for Active; 'I' for Inactive)
REMARK    1  A    between atoms: C_6  and  C_7
REMARK    2  A    between atoms: C_6  and  C_8
REMARK    3  A    between atoms: C_6  and  C_9
REMARK    4  A    between atoms: C_7  and  C_10
REMARK    5  A    between atoms: C_13  and  C_16
REMARK                            x       y       z     vdW  Elec       q    Type
REMARK                         _______ _______ _______ _____ _____    ______ ____
ROOT
ATOM      1  O   UNL     1     -19.213  44.723 -15.656  0.00  0.00    +0.000 OA
ATOM      2  N   UNL     1     -19.910  42.553 -15.093  0.00  0.00    +0.000 N 
ATOM      3  N   UNL     1     -19.633  41.216 -13.146  0.00  0.00    +0.000 NA
ATOM      4  C   UNL     1     -19.787  43.670 -15.915  0.00  0.00    +0.000 C 
ATOM      5  C   UNL     1     -19.403  42.386 -13.782  0.00  0.00    +0.000 A 
ATOM      6  C   UNL     1     -18.697  43.442 -13.231  0.00  0.00    +0.000 A 
ATOM      7  C   UNL     1     -18.409  42.099 -11.257  0.00  0.00    +0.000 A 
ATOM      8  C   UNL     1     -18.194  43.289 -11.943  0.00  0.00    +0.000 A 
ATOM      9  C   UNL     1     -19.128  41.102 -11.896  0.00  0.00    +0.000 A 
ATOM     10  H   UNL     1     -20.414  41.743 -15.446  0.00  0.00    +0.000 HD
ENDROOT
BRANCH   7  13
ATOM     11  O   UNL     1     -17.942  42.808  -9.060  0.00  0.00    +0.000 OA
ATOM     12  N   UNL     1     -17.357  40.658  -9.598  0.00  0.00    +0.000 N 
ATOM     13  C   UNL     1     -17.894  41.904  -9.913  0.00  0.00    +0.000 C 
ATOM     14  H   UNL     1     -17.286  39.870 -10.230  0.00  0.00    +0.000 HD
ATOM     15  H   UNL     1     -16.996  40.491  -8.665  0.00  0.00    +0.000 HD
ENDBRANCH   7  13
BRANCH   4  16
ATOM     16  C   UNL     1     -20.512  43.446 -17.237  0.00  0.00    +0.000 C 
BRANCH  16  17
ATOM     17  C   UNL     1     -20.933  44.742 -17.945  0.00  0.00    +0.000 C 
ATOM     18  C   UNL     1     -22.372  45.101 -17.568  0.00  0.00    +0.000 C 
ATOM     19  C   UNL     1     -20.816  44.612 -19.465  0.00  0.00    +0.000 C 
ENDBRANCH  16  17
ENDBRANCH   4  16
TORSDOF 3
ENDMDL
MODEL 3
REMARK VINA RESULT:    -6.032      3.780      6.755
REMARK INTER + INTRA:          -7.032
REMARK INTER:                  -7.178
REMARK INTRA:                   0.146
REMARK UNBOUND:                 0.058
REMARK  Name = 130219421
REMARK  5 active torsions:
REMARK  status: ('A' for Active; 'I' for Inactive)
REMARK    1  A    between atoms: C_6  and  C_7
REMARK    2  A    between atoms: C_6  and  C_8
REMARK    3  A    between atoms: C_6  and  C_9
REMARK    4  A    between atoms: C_7  and  C_10
REMARK    5  A    between atoms: C_13  and  C_16
REMARK                            x       y       z     vdW  Elec       q    Type
REMARK                         _______ _______ _______ _____ _____    ______ ____
ROOT
ATOM      1  O   UNL     1     -17.702  42.776  -9.612  0.00  0.00    +0.000 OA
ATOM      2  N   UNL     1     -18.776  41.458 -11.231  0.00  0.00    +0.000 N 
ATOM      3  N   UNL     1     -19.435  41.869 -13.479  0.00  0.00    +0.000 NA
ATOM      4  C   UNL     1     -18.224  41.729  -9.983  0.00  0.00    +0.000 C 
ATOM      5  C   UNL     1     -18.857  42.326 -12.346  0.00  0.00    +0.000 A 
ATOM      6  C   UNL     1     -18.333  43.600 -12.203  0.00  0.00    +0.000 A 
ATOM      7  C   UNL     1     -18.996  44.028 -14.475  0.00  0.00    +0.000 A 
ATOM      8  C   UNL     1     -18.408  44.462 -13.292  0.00  0.00    +0.000 A 
ATOM      9  C   UNL     1     -19.491  42.735 -14.517  0.00  0.00    +0.000 A 
ATOM     10  H   UNL     1     -19.181  40.539 -11.395  0.00  0.00    +0.000 HD
ENDROOT
BRANCH   7  13
ATOM     11  O   UNL     1     -18.186  45.703 -15.918  0.00  0.00    +0.000 OA
ATOM     12  N   UNL     1     -20.236  44.808 -16.421  0.00  0.00    +0.000 N 
ATOM     13  C   UNL     1     -19.094  44.904 -15.629  0.00  0.00    +0.000 C 
ATOM     14  H   UNL     1     -21.015  44.182 -16.259  0.00  0.00    +0.000 HD
ATOM     15  H   UNL     1     -20.328  45.403 -17.238  0.00  0.00    +0.000 HD
ENDBRANCH   7  13
BRANCH   4  16
ATOM     16  C   UNL     1     -18.312  40.503  -9.080  0.00  0.00    +0.000 C 
BRANCH  16  17
ATOM     17  C   UNL     1     -19.469  40.555  -8.070  0.00  0.00    +0.000 C 
ATOM     18  C   UNL     1     -20.769  40.106  -8.739  0.00  0.00    +0.000 C 
ATOM     19  C   UNL     1     -19.645  41.962  -7.494  0.00  0.00    +0.000 C 
ENDBRANCH  16  17
ENDBRANCH   4  16
TORSDOF 3
ENDMDL
MODEL 4
REMARK VINA RESULT:    -5.911      4.809      6.646
REMARK INTER + INTRA:          -6.890
REMARK INTER:                  -6.723
REMARK INTRA:                  -0.167
REMARK UNBOUND:                 0.058
REMARK  Name = 130219421
REMARK  5 active torsions:
REMARK  status: ('A' for Active; 'I' for Inactive)
REMARK    1  A    between atoms: C_6  and  C_7
REMARK    2  A    between atoms: C_6  and  C_8
REMARK    3  A    between atoms: C_6  and  C_9
REMARK    4  A    between atoms: C_7  and  C_10
REMARK    5  A    between atoms: C_13  and  C_16
REMARK                            x       y       z     vdW  Elec       q    Type
REMARK                         _______ _______ _______ _____ _____    ______ ____
ROOT
ATOM      1  O   UNL     1     -20.383  42.610 -16.037  0.00  0.00    +0.000 OA
ATOM      2  N   UNL     1     -19.150  44.292 -14.959  0.00  0.00    +0.000 N 
ATOM      3  N   UNL     1     -18.059  44.402 -12.849  0.00  0.00    +0.000 NA
ATOM      4  C   UNL     1     -19.894  43.735 -15.995  0.00  0.00    +0.000 C 
ATOM      5  C   UNL     1     -18.793  43.687 -13.731  0.00  0.00    +0.000 A 
ATOM      6  C   UNL     1     -19.223  42.390 -13.508  0.00  0.00    +0.000 A 
ATOM      7  C   UNL     1     -18.124  42.489 -11.372  0.00  0.00    +0.000 A 
ATOM      8  C   UNL     1     -18.878  41.785 -12.304  0.00  0.00    +0.000 A 
ATOM      9  C   UNL     1     -17.743  43.783 -11.689  0.00  0.00    +0.000 A 
ATOM     10  H   UNL     1     -18.811  45.246 -15.063  0.00  0.00    +0.000 HD
ENDROOT
BRANCH   7  13
ATOM     11  O   UNL     1     -18.068  42.411  -9.019  0.00  0.00    +0.000 OA
ATOM     12  N   UNL     1     -17.035  40.695 -10.135  0.00  0.00    +0.000 N 
ATOM     13  C   UNL     1     -17.750  41.890 -10.103  0.00  0.00    +0.000 C 
ATOM     14  H   UNL     1     -16.743  40.205 -10.972  0.00  0.00    +0.000 HD
ATOM     15  H   UNL     1     -16.766  40.251  -9.263  0.00  0.00    +0.000 HD
ENDBRANCH   7  13
BRANCH   4  16
ATOM     16  C   UNL     1     -20.019  44.717 -17.155  0.00  0.00    +0.000 C 
BRANCH  16  17
ATOM     17  C   UNL     1     -21.302  44.546 -17.981  0.00  0.00    +0.000 C 
ATOM     18  C   UNL     1     -20.971  44.566 -19.475  0.00  0.00    +0.000 C 
ATOM     19  C   UNL     1     -22.320  45.645 -17.664  0.00  0.00    +0.000 C 
ENDBRANCH  16  17
ENDBRANCH   4  16
TORSDOF 3
ENDMDL
MODEL 5
REMARK VINA RESULT:    -5.893      6.021      8.644
REMARK INTER + INTRA:          -6.869
REMARK INTER:                  -6.627
REMARK INTRA:                  -0.242
REMARK UNBOUND:                 0.058
REMARK  Name = 130219421
REMARK  5 active torsions:
REMARK  status: ('A' for Active; 'I' for Inactive)
REMARK    1  A    between atoms: C_6  and  C_7
REMARK    2  A    between atoms: C_6  and  C_8
REMARK    3  A    between atoms: C_6  and  C_9
REMARK    4  A    between atoms: C_7  and  C_10
REMARK    5  A    between atoms: C_13  and  C_16
REMARK                            x       y       z     vdW  Elec       q    Type
REMARK                         _______ _______ _______ _____ _____    ______ ____
ROOT
ATOM      1  O   UNL     1     -18.452  44.211 -13.151  0.00  0.00    +0.000 OA
ATOM      2  N   UNL     1     -19.323  42.432 -14.411  0.00  0.00    +0.000 N 
ATOM      3  N   UNL     1     -20.328  42.308 -16.564  0.00  0.00    +0.000 NA
ATOM      4  C   UNL     1     -18.719  43.023 -13.306  0.00  0.00    +0.000 C 
ATOM      5  C   UNL     1     -19.761  43.066 -15.598  0.00  0.00    +0.000 A 
ATOM      6  C   UNL     1     -19.580  44.436 -15.695  0.00  0.00    +0.000 A 
ATOM      7  C   UNL     1     -20.595  44.323 -17.872  0.00  0.00    +0.000 A 
ATOM      8  C   UNL     1     -20.008  45.070 -16.856  0.00  0.00    +0.000 A 
ATOM      9  C   UNL     1     -20.732  42.958 -17.678  0.00  0.00    +0.000 A 
ATOM     10  H   UNL     1     -19.487  41.428 -14.396  0.00  0.00    +0.000 HD
ENDROOT
BRANCH   7  13
ATOM     11  O   UNL     1     -21.371  46.157 -19.129  0.00  0.00    +0.000 OA
ATOM     12  N   UNL     1     -21.120  44.171 -20.246  0.00  0.00    +0.000 N 
ATOM     13  C   UNL     1     -21.057  44.954 -19.096  0.00  0.00    +0.000 C 
ATOM     14  H   UNL     1     -20.877  43.189 -20.304  0.00  0.00    +0.000 HD
ATOM     15  H   UNL     1     -21.432  44.587 -21.117  0.00  0.00    +0.000 HD
ENDBRANCH   7  13
BRANCH   4  16
ATOM     16  C   UNL     1     -18.373  41.972 -12.257  0.00  0.00    +0.000 C 
BRANCH  16  17
ATOM     17  C   UNL     1     -18.391  40.531 -12.788  0.00  0.00    +0.000 C 
ATOM     18  C   UNL     1     -19.267  39.653 -11.892  0.00  0.00    +0.000 C 
ATOM     19  C   UNL     1     -16.979  39.945 -12.861  0.00  0.00    +0.000 C 
ENDBRANCH  16  17
ENDBRANCH   4  16
TORSDOF 3
ENDMDL
