MODEL 1
REMARK VINA RESULT:    -5.697      0.000      0.000
REMARK INTER + INTRA:          -6.462
REMARK INTER:                  -6.363
REMARK INTRA:                  -0.099
REMARK UNBOUND:                -0.099
REMARK  Name = 130249353
REMARK  4 active torsions:
REMARK  status: ('A' for Active; 'I' for Inactive)
REMARK    1  A    between atoms: N_5  and  C_15
REMARK    2  A    between atoms: C_7  and  C_14
REMARK    3  A    between atoms: C_8  and  C_10
REMARK    4  A    between atoms: C_8  and  C_13
REMARK                            x       y       z     vdW  Elec       q    Type
REMARK                         _______ _______ _______ _____ _____    ______ ____
ROOT
ATOM      1  O   UNL     1     -20.615  42.696 -16.044  0.00  0.00    +0.000 OA
ATOM      2  N   UNL     1     -18.839  43.811 -14.986  0.00  0.00    +0.000 N 
ATOM      3  N   UNL     1     -17.744  43.502 -12.898  0.00  0.00    +0.000 NA
ATOM      4  C   UNL     1     -18.702  43.107 -13.765  0.00  0.00    +0.000 A 
ATOM      5  C   UNL     1     -18.467  41.729 -11.422  0.00  0.00    +0.000 A 
ATOM      6  C   UNL     1     -19.566  42.050 -13.537  0.00  0.00    +0.000 A 
ATOM      7  C   UNL     1     -19.753  43.568 -16.008  0.00  0.00    +0.000 C 
ATOM      8  C   UNL     1     -19.441  41.353 -12.340  0.00  0.00    +0.000 A 
ATOM      9  C   UNL     1     -17.651  42.801 -11.745  0.00  0.00    +0.000 A 
ATOM     10  H   UNL     1     -18.180  44.578 -15.103  0.00  0.00    +0.000 HD
ENDROOT
BRANCH   5  13
ATOM     11  O   UNL     1     -17.359  40.243  -9.986  0.00  0.00    +0.000 OA
ATOM     12  N   UNL     1     -19.262  41.286  -9.165  0.00  0.00    +0.000 N 
ATOM     13  C   UNL     1     -18.312  41.025 -10.161  0.00  0.00    +0.000 C 
ATOM     14  C   UNL     1     -19.230  40.682  -7.853  0.00  0.00    +0.000 C 
ATOM     15  H   UNL     1     -19.975  41.990  -9.318  0.00  0.00    +0.000 HD
ENDBRANCH   5  13
BRANCH   7  16
ATOM     16  C   UNL     1     -19.559  44.560 -17.145  0.00  0.00    +0.000 C 
ATOM     17  C   UNL     1     -19.220  43.884 -18.462  0.00  0.00    +0.000 C 
ENDBRANCH   7  16
TORSDOF 2
ENDMDL
MODEL 2
REMARK VINA RESULT:    -5.395      1.816      6.711
REMARK INTER + INTRA:          -6.125
REMARK INTER:                  -6.008
REMARK INTRA:                  -0.117
REMARK UNBOUND:                -0.099
REMARK  Name = 130249353
REMARK  4 active torsions:
REMARK  status: ('A' for Active; 'I' for Inactive)
REMARK    1  A    between atoms: N_5  and  C_15
REMARK    2  A    between atoms: C_7  and  C_14
REMARK    3  A    between atoms: C_8  and  C_10
REMARK    4  A    between atoms: C_8  and  C_13
REMARK                            x       y       z     vdW  Elec       q    Type
REMARK                         _______ _______ _______ _____ _____    ______ ____
ROOT
ATOM      1  O   UNL     1     -17.736  42.678  -9.666  0.00  0.00    +0.000 OA
ATOM      2  N   UNL     1     -18.880  41.435 -11.298  0.00  0.00    +0.000 N 
ATOM      3  N   UNL     1     -19.502  41.896 -13.548  0.00  0.00    +0.000 NA
ATOM      4  C   UNL     1     -18.902  42.312 -12.410  0.00  0.00    +0.000 A 
ATOM      5  C   UNL     1     -18.928  44.028 -14.531  0.00  0.00    +0.000 A 
ATOM      6  C   UNL     1     -18.303  43.552 -12.258  0.00  0.00    +0.000 A 
ATOM      7  C   UNL     1     -18.319  41.668 -10.045  0.00  0.00    +0.000 C 
ATOM      8  C   UNL     1     -18.320  44.421 -13.344  0.00  0.00    +0.000 A 
ATOM      9  C   UNL     1     -19.499  42.767 -14.581  0.00  0.00    +0.000 A 
ATOM     10  H   UNL     1     -19.335  40.540 -11.463  0.00  0.00    +0.000 HD
ENDROOT
BRANCH   5  13
ATOM     11  O   UNL     1     -18.907  46.147 -15.535  0.00  0.00    +0.000 OA
ATOM     12  N   UNL     1     -19.051  44.312 -16.945  0.00  0.00    +0.000 N 
ATOM     13  C   UNL     1     -18.967  44.912 -15.682  0.00  0.00    +0.000 C 
ATOM     14  C   UNL     1     -19.077  45.054 -18.184  0.00  0.00    +0.000 C 
ATOM     15  H   UNL     1     -19.016  43.301 -17.028  0.00  0.00    +0.000 HD
ENDBRANCH   5  13
BRANCH   7  16
ATOM     16  C   UNL     1     -18.518  40.462  -9.139  0.00  0.00    +0.000 C 
ATOM     17  C   UNL     1     -19.226  40.812  -7.843  0.00  0.00    +0.000 C 
ENDBRANCH   7  16
TORSDOF 2
ENDMDL
MODEL 3
REMARK VINA RESULT:    -5.323      2.948      3.379
REMARK INTER + INTRA:          -6.044
REMARK INTER:                  -5.938
REMARK INTRA:                  -0.106
REMARK UNBOUND:                -0.099
REMARK  Name = 130249353
REMARK  4 active torsions:
REMARK  status: ('A' for Active; 'I' for Inactive)
REMARK    1  A    between atoms: N_5  and  C_15
REMARK    2  A    between atoms: C_7  and  C_14
REMARK    3  A    between atoms: C_8  and  C_10
REMARK    4  A    between atoms: C_8  and  C_13
REMARK                            x       y       z     vdW  Elec       q    Type
REMARK                         _______ _______ _______ _____ _____    ______ ____
ROOT
ATOM      1  O   UNL     1     -15.986  45.916 -12.373  0.00  0.00    +0.000 OA
ATOM      2  N   UNL     1     -16.920  44.421 -13.924  0.00  0.00    +0.000 N 
ATOM      3  N   UNL     1     -18.101  42.369 -13.692  0.00  0.00    +0.000 NA
ATOM      4  C   UNL     1     -17.471  43.409 -13.101  0.00  0.00    +0.000 A 
ATOM      5  C   UNL     1     -18.519  41.477 -11.484  0.00  0.00    +0.000 A 
ATOM      6  C   UNL     1     -17.328  43.552 -11.731  0.00  0.00    +0.000 A 
ATOM      7  C   UNL     1     -16.239  45.566 -13.521  0.00  0.00    +0.000 C 
ATOM      8  C   UNL     1     -17.864  42.563 -10.913  0.00  0.00    +0.000 A 
ATOM      9  C   UNL     1     -18.609  41.427 -12.866  0.00  0.00    +0.000 A 
ATOM     10  H   UNL     1     -17.053  44.267 -14.921  0.00  0.00    +0.000 HD
ENDROOT
BRANCH   5  13
ATOM     11  O   UNL     1     -18.813  39.231 -10.879  0.00  0.00    +0.000 OA
ATOM     12  N   UNL     1     -19.926  40.821  -9.610  0.00  0.00    +0.000 N 
ATOM     13  C   UNL     1     -19.087  40.425 -10.660  0.00  0.00    +0.000 C 
ATOM     14  C   UNL     1     -20.548  39.896  -8.691  0.00  0.00    +0.000 C 
ATOM     15  H   UNL     1     -20.060  41.807  -9.414  0.00  0.00    +0.000 HD
ENDBRANCH   5  13
BRANCH   7  16
ATOM     16  C   UNL     1     -15.814  46.388 -14.728  0.00  0.00    +0.000 C 
ATOM     17  C   UNL     1     -16.055  47.875 -14.539  0.00  0.00    +0.000 C 
ENDBRANCH   7  16
TORSDOF 2
ENDMDL
MODEL 4
REMARK VINA RESULT:    -5.291      2.642      6.532
REMARK INTER + INTRA:          -6.009
REMARK INTER:                  -5.893
REMARK INTRA:                  -0.116
REMARK UNBOUND:                -0.099
REMARK  Name = 130249353
REMARK  4 active torsions:
REMARK  status: ('A' for Active; 'I' for Inactive)
REMARK    1  A    between atoms: N_5  and  C_15
REMARK    2  A    between atoms: C_7  and  C_14
REMARK    3  A    between atoms: C_8  and  C_10
REMARK    4  A    between atoms: C_8  and  C_13
REMARK                            x       y       z     vdW  Elec       q    Type
REMARK                         _______ _______ _______ _____ _____    ______ ____
ROOT
ATOM      1  O   UNL     1     -18.451  42.018  -8.318  0.00  0.00    +0.000 OA
ATOM      2  N   UNL     1     -19.061  41.230 -10.445  0.00  0.00    +0.000 N 
ATOM      3  N   UNL     1     -18.603  41.994 -12.651  0.00  0.00    +0.000 NA
ATOM      4  C   UNL     1     -18.447  42.160 -11.319  0.00  0.00    +0.000 A 
ATOM      5  C   UNL     1     -17.252  43.972 -12.972  0.00  0.00    +0.000 A 
ATOM      6  C   UNL     1     -17.720  43.191 -10.746  0.00  0.00    +0.000 A 
ATOM      7  C   UNL     1     -19.024  41.221  -9.053  0.00  0.00    +0.000 C 
ATOM      8  C   UNL     1     -17.114  44.110 -11.595  0.00  0.00    +0.000 A 
ATOM      9  C   UNL     1     -18.000  42.907 -13.445  0.00  0.00    +0.000 A 
ATOM     10  H   UNL     1     -19.583  40.496 -10.917  0.00  0.00    +0.000 HD
ENDROOT
BRANCH   5  13
ATOM     11  O   UNL     1     -15.447  45.258 -13.740  0.00  0.00    +0.000 OA
ATOM     12  N   UNL     1     -17.429  45.398 -14.936  0.00  0.00    +0.000 N 
ATOM     13  C   UNL     1     -16.636  44.917 -13.886  0.00  0.00    +0.000 C 
ATOM     14  C   UNL     1     -16.954  46.324 -15.938  0.00  0.00    +0.000 C 
ATOM     15  H   UNL     1     -18.367  45.035 -15.069  0.00  0.00    +0.000 HD
ENDBRANCH   5  13
BRANCH   7  16
ATOM     16  C   UNL     1     -19.819  40.045  -8.506  0.00  0.00    +0.000 C 
ATOM     17  C   UNL     1     -21.288  40.371  -8.308  0.00  0.00    +0.000 C 
ENDBRANCH   7  16
TORSDOF 2
ENDMDL
MODEL 5
REMARK VINA RESULT:    -5.122      1.603      1.946
REMARK INTER + INTRA:          -5.820
REMARK INTER:                  -5.667
REMARK INTRA:                  -0.152
REMARK UNBOUND:                -0.099
REMARK  Name = 130249353
REMARK  4 active torsions:
REMARK  status: ('A' for Active; 'I' for Inactive)
REMARK    1  A    between atoms: N_5  and  C_15
REMARK    2  A    between atoms: C_7  and  C_14
REMARK    3  A    between atoms: C_8  and  C_10
REMARK    4  A    between atoms: C_8  and  C_13
REMARK                            x       y       z     vdW  Elec       q    Type
REMARK                         _______ _______ _______ _____ _____    ______ ____
ROOT
ATOM      1  O   UNL     1     -19.051  45.676 -16.092  0.00  0.00    +0.000 OA
ATOM      2  N   UNL     1     -19.788  43.463 -15.813  0.00  0.00    +0.000 N 
ATOM      3  N   UNL     1     -19.593  41.900 -14.031  0.00  0.00    +0.000 NA
ATOM      4  C   UNL     1     -19.330  43.135 -14.515  0.00  0.00    +0.000 A 
ATOM      5  C   UNL     1     -18.430  42.536 -12.009  0.00  0.00    +0.000 A 
ATOM      6  C   UNL     1     -18.635  44.109 -13.817  0.00  0.00    +0.000 A 
ATOM      7  C   UNL     1     -19.625  44.668 -16.492  0.00  0.00    +0.000 C 
ATOM      8  C   UNL     1     -18.179  43.795 -12.541  0.00  0.00    +0.000 A 
ATOM      9  C   UNL     1     -19.135  41.632 -12.788  0.00  0.00    +0.000 A 
ATOM     10  H   UNL     1     -20.291  42.712 -16.281  0.00  0.00    +0.000 HD
ENDROOT
BRANCH   5  13
ATOM     11  O   UNL     1     -16.930  42.684 -10.213  0.00  0.00    +0.000 OA
ATOM     12  N   UNL     1     -18.742  41.258  -9.962  0.00  0.00    +0.000 N 
ATOM     13  C   UNL     1     -17.965  42.175 -10.682  0.00  0.00    +0.000 C 
ATOM     14  C   UNL     1     -18.423  40.818  -8.623  0.00  0.00    +0.000 C 
ATOM     15  H   UNL     1     -19.620  40.928 -10.346  0.00  0.00    +0.000 HD
ENDBRANCH   5  13
BRANCH   7  16
ATOM     16  C   UNL     1     -20.272  44.598 -17.867  0.00  0.00    +0.000 C 
ATOM     17  C   UNL     1     -21.257  43.450 -17.994  0.00  0.00    +0.000 C 
ENDBRANCH   7  16
TORSDOF 2
ENDMDL
