MODEL 1
REMARK VINA RESULT:    -7.289      0.000      0.000
REMARK INTER + INTRA:          -8.676
REMARK INTER:                  -8.567
REMARK INTRA:                  -0.108
REMARK UNBOUND:                -0.108
REMARK  Name = 130478104
REMARK  3 active torsions:
REMARK  status: ('A' for Active; 'I' for Inactive)
REMARK    1  A    between atoms: N_3  and  C_6
REMARK    2  A    between atoms: C_6  and  C_11
REMARK    3  A    between atoms: C_9  and  C_13
REMARK                            x       y       z     vdW  Elec       q    Type
REMARK                         _______ _______ _______ _____ _____    ______ ____
ROOT
ATOM      1  N   UNL     1     -17.660  40.957  -9.475  0.00  0.00    +0.000 N 
ATOM      2  N   UNL     1     -18.858  42.056  -7.733  0.00  0.00    +0.000 NA
ATOM      3  C   UNL     1     -18.867  41.186  -8.769  0.00  0.00    +0.000 A 
ATOM      4  C   UNL     1     -19.991  40.496  -9.192  0.00  0.00    +0.000 A 
ATOM      5  C   UNL     1     -21.214  41.599  -7.438  0.00  0.00    +0.000 A 
ATOM      6  C   UNL     1     -21.184  40.713  -8.509  0.00  0.00    +0.000 A 
ATOM      7  C   UNL     1     -20.034  42.239  -7.093  0.00  0.00    +0.000 A 
ATOM      8  H   UNL     1     -16.846  41.467  -9.155  0.00  0.00    +0.000 HD
ENDROOT
BRANCH   5  11
ATOM      9  O   UNL     1     -23.392  41.040  -6.738  0.00  0.00    +0.000 OA
ATOM     10  N   UNL     1     -22.522  43.007  -5.941  0.00  0.00    +0.000 N 
ATOM     11  C   UNL     1     -22.443  41.845  -6.704  0.00  0.00    +0.000 C 
ATOM     12  H   UNL     1     -21.796  43.707  -5.858  0.00  0.00    +0.000 HD
ATOM     13  H   UNL     1     -23.367  43.201  -5.413  0.00  0.00    +0.000 HD
ENDBRANCH   5  11
BRANCH   1  14
ATOM     14  C   UNL     1     -17.574  40.059 -10.579  0.00  0.00    +0.000 C 
BRANCH  14  16
ATOM     15  F   UNL     1     -15.826  39.225 -11.898  0.00  0.00    +0.000 F 
ATOM     16  C   UNL     1     -16.355  40.382 -11.419  0.00  0.00    +0.000 C 
ENDBRANCH  14  16
ENDBRANCH   1  14
TORSDOF 3
ENDMDL
MODEL 2
REMARK VINA RESULT:    -6.837      3.686      5.569
REMARK INTER + INTRA:          -8.144
REMARK INTER:                  -7.995
REMARK INTRA:                  -0.150
REMARK UNBOUND:                -0.108
REMARK  Name = 130478104
REMARK  3 active torsions:
REMARK  status: ('A' for Active; 'I' for Inactive)
REMARK    1  A    between atoms: N_3  and  C_6
REMARK    2  A    between atoms: C_6  and  C_11
REMARK    3  A    between atoms: C_9  and  C_13
REMARK                            x       y       z     vdW  Elec       q    Type
REMARK                         _______ _______ _______ _____ _____    ______ ____
ROOT
ATOM      1  N   UNL     1     -19.912  42.376  -6.724  0.00  0.00    +0.000 N 
ATOM      2  N   UNL     1     -18.471  42.127  -8.605  0.00  0.00    +0.000 NA
ATOM      3  C   UNL     1     -19.564  41.711  -7.926  0.00  0.00    +0.000 A 
ATOM      4  C   UNL     1     -20.377  40.665  -8.330  0.00  0.00    +0.000 A 
ATOM      5  C   UNL     1     -18.930  40.401 -10.234  0.00  0.00    +0.000 A 
ATOM      6  C   UNL     1     -20.046  40.002  -9.508  0.00  0.00    +0.000 A 
ATOM      7  C   UNL     1     -18.182  41.460  -9.744  0.00  0.00    +0.000 A 
ATOM      8  H   UNL     1     -19.310  43.139  -6.440  0.00  0.00    +0.000 HD
ENDROOT
BRANCH   5  11
ATOM      9  O   UNL     1     -17.367  39.532 -11.768  0.00  0.00    +0.000 OA
ATOM     10  N   UNL     1     -19.585  39.293 -12.303  0.00  0.00    +0.000 N 
ATOM     11  C   UNL     1     -18.560  39.729 -11.468  0.00  0.00    +0.000 C 
ATOM     12  H   UNL     1     -20.575  39.409 -12.129  0.00  0.00    +0.000 HD
ATOM     13  H   UNL     1     -19.354  38.814 -13.168  0.00  0.00    +0.000 HD
ENDBRANCH   5  11
BRANCH   1  14
ATOM     14  C   UNL     1     -21.046  42.008  -5.942  0.00  0.00    +0.000 C 
BRANCH  14  16
ATOM     15  F   UNL     1     -23.082  42.088  -7.100  0.00  0.00    +0.000 F 
ATOM     16  C   UNL     1     -22.246  42.843  -6.339  0.00  0.00    +0.000 C 
ENDBRANCH  14  16
ENDBRANCH   1  14
TORSDOF 3
ENDMDL
MODEL 3
REMARK VINA RESULT:    -6.501      1.604      1.902
REMARK INTER + INTRA:          -7.749
REMARK INTER:                  -7.506
REMARK INTRA:                  -0.243
REMARK UNBOUND:                -0.108
REMARK  Name = 130478104
REMARK  3 active torsions:
REMARK  status: ('A' for Active; 'I' for Inactive)
REMARK    1  A    between atoms: N_3  and  C_6
REMARK    2  A    between atoms: C_6  and  C_11
REMARK    3  A    between atoms: C_9  and  C_13
REMARK                            x       y       z     vdW  Elec       q    Type
REMARK                         _______ _______ _______ _____ _____    ______ ____
ROOT
ATOM      1  N   UNL     1     -18.504  39.967 -10.318  0.00  0.00    +0.000 N 
ATOM      2  N   UNL     1     -20.582  40.037  -9.154  0.00  0.00    +0.000 NA
ATOM      3  C   UNL     1     -19.338  40.539  -9.325  0.00  0.00    +0.000 A 
ATOM      4  C   UNL     1     -18.818  41.589  -8.586  0.00  0.00    +0.000 A 
ATOM      5  C   UNL     1     -20.910  41.670  -7.402  0.00  0.00    +0.000 A 
ATOM      6  C   UNL     1     -19.625  42.159  -7.607  0.00  0.00    +0.000 A 
ATOM      7  C   UNL     1     -21.337  40.617  -8.195  0.00  0.00    +0.000 A 
ATOM      8  H   UNL     1     -18.897  39.201 -10.851  0.00  0.00    +0.000 HD
ENDROOT
BRANCH   5  11
ATOM      9  O   UNL     1     -23.006  42.349  -6.567  0.00  0.00    +0.000 OA
ATOM     10  N   UNL     1     -21.194  42.663  -5.196  0.00  0.00    +0.000 N 
ATOM     11  C   UNL     1     -21.778  42.245  -6.389  0.00  0.00    +0.000 C 
ATOM     12  H   UNL     1     -20.209  42.609  -4.972  0.00  0.00    +0.000 HD
ATOM     13  H   UNL     1     -21.778  43.062  -4.468  0.00  0.00    +0.000 HD
ENDBRANCH   5  11
BRANCH   1  14
ATOM     14  C   UNL     1     -17.179  40.431 -10.570  0.00  0.00    +0.000 C 
BRANCH  14  16
ATOM     15  F   UNL     1     -17.592  42.485 -11.621  0.00  0.00    +0.000 F 
ATOM     16  C   UNL     1     -17.142  41.224 -11.860  0.00  0.00    +0.000 C 
ENDBRANCH  14  16
ENDBRANCH   1  14
TORSDOF 3
ENDMDL
MODEL 4
REMARK VINA RESULT:    -6.260      3.821      6.082
REMARK INTER + INTRA:          -7.466
REMARK INTER:                  -7.337
REMARK INTRA:                  -0.129
REMARK UNBOUND:                -0.108
REMARK  Name = 130478104
REMARK  3 active torsions:
REMARK  status: ('A' for Active; 'I' for Inactive)
REMARK    1  A    between atoms: N_3  and  C_6
REMARK    2  A    between atoms: C_6  and  C_11
REMARK    3  A    between atoms: C_9  and  C_13
REMARK                            x       y       z     vdW  Elec       q    Type
REMARK                         _______ _______ _______ _____ _____    ______ ____
ROOT
ATOM      1  N   UNL     1     -20.934  41.080  -8.013  0.00  0.00    +0.000 N 
ATOM      2  N   UNL     1     -19.990  39.871  -9.837  0.00  0.00    +0.000 NA
ATOM      3  C   UNL     1     -19.863  40.849  -8.912  0.00  0.00    +0.000 A 
ATOM      4  C   UNL     1     -18.742  41.652  -8.782  0.00  0.00    +0.000 A 
ATOM      5  C   UNL     1     -17.776  40.441 -10.622  0.00  0.00    +0.000 A 
ATOM      6  C   UNL     1     -17.682  41.438  -9.658  0.00  0.00    +0.000 A 
ATOM      7  C   UNL     1     -18.941  39.692 -10.669  0.00  0.00    +0.000 A 
ATOM      8  H   UNL     1     -21.748  40.486  -8.119  0.00  0.00    +0.000 HD
ENDROOT
BRANCH   5  11
ATOM      9  O   UNL     1     -16.896  39.744 -12.693  0.00  0.00    +0.000 OA
ATOM     10  N   UNL     1     -15.393  40.489 -11.129  0.00  0.00    +0.000 N 
ATOM     11  C   UNL     1     -16.687  40.192 -11.551  0.00  0.00    +0.000 C 
ATOM     12  H   UNL     1     -15.141  40.859 -10.222  0.00  0.00    +0.000 HD
ATOM     13  H   UNL     1     -14.614  40.332 -11.761  0.00  0.00    +0.000 HD
ENDBRANCH   5  11
BRANCH   1  14
ATOM     14  C   UNL     1     -20.890  42.088  -7.006  0.00  0.00    +0.000 C 
BRANCH  14  16
ATOM     15  F   UNL     1     -23.203  41.762  -7.183  0.00  0.00    +0.000 F 
ATOM     16  C   UNL     1     -22.272  42.672  -6.793  0.00  0.00    +0.000 C 
ENDBRANCH  14  16
ENDBRANCH   1  14
TORSDOF 3
ENDMDL
MODEL 5
REMARK VINA RESULT:    -5.475      4.402      6.303
REMARK INTER + INTRA:          -6.544
REMARK INTER:                  -6.341
REMARK INTRA:                  -0.202
REMARK UNBOUND:                -0.108
REMARK  Name = 130478104
REMARK  3 active torsions:
REMARK  status: ('A' for Active; 'I' for Inactive)
REMARK    1  A    between atoms: N_3  and  C_6
REMARK    2  A    between atoms: C_6  and  C_11
REMARK    3  A    between atoms: C_9  and  C_13
REMARK                            x       y       z     vdW  Elec       q    Type
REMARK                         _______ _______ _______ _____ _____    ______ ____
ROOT
ATOM      1  N   UNL     1     -20.008  40.182 -10.285  0.00  0.00    +0.000 N 
ATOM      2  N   UNL     1     -19.239  41.081 -12.353  0.00  0.00    +0.000 NA
ATOM      3  C   UNL     1     -19.141  41.040 -11.005  0.00  0.00    +0.000 A 
ATOM      4  C   UNL     1     -18.237  41.791 -10.271  0.00  0.00    +0.000 A 
ATOM      5  C   UNL     1     -17.451  42.707 -12.351  0.00  0.00    +0.000 A 
ATOM      6  C   UNL     1     -17.379  42.638 -10.965  0.00  0.00    +0.000 A 
ATOM      7  C   UNL     1     -18.390  41.915 -12.992  0.00  0.00    +0.000 A 
ATOM      8  H   UNL     1     -20.664  39.639 -10.834  0.00  0.00    +0.000 HD
ENDROOT
BRANCH   5  11
ATOM      9  O   UNL     1     -15.334  43.553 -12.945  0.00  0.00    +0.000 OA
ATOM     10  N   UNL     1     -17.147  44.448 -14.029  0.00  0.00    +0.000 N 
ATOM     11  C   UNL     1     -16.568  43.582 -13.104  0.00  0.00    +0.000 C 
ATOM     12  H   UNL     1     -18.137  44.529 -14.220  0.00  0.00    +0.000 HD
ATOM     13  H   UNL     1     -16.552  45.065 -14.574  0.00  0.00    +0.000 HD
ENDBRANCH   5  11
BRANCH   1  14
ATOM     14  C   UNL     1     -19.976  40.073  -8.863  0.00  0.00    +0.000 C 
BRANCH  14  16
ATOM     15  F   UNL     1     -20.620  41.982  -7.665  0.00  0.00    +0.000 F 
ATOM     16  C   UNL     1     -21.118  40.862  -8.255  0.00  0.00    +0.000 C 
ENDBRANCH  14  16
ENDBRANCH   1  14
TORSDOF 3
ENDMDL
