MODEL 1
REMARK VINA RESULT:    -6.398      0.000      0.000
REMARK INTER + INTRA:          -7.627
REMARK INTER:                  -7.520
REMARK INTRA:                  -0.107
REMARK UNBOUND:                -0.107
REMARK  Name = 130504940
REMARK  4 active torsions:
REMARK  status: ('A' for Active; 'I' for Inactive)
REMARK    1  A    between atoms: N_3  and  C_7
REMARK    2  A    between atoms: N_5  and  C_14
REMARK    3  A    between atoms: C_6  and  C_8
REMARK    4  A    between atoms: C_7  and  C_13
REMARK                            x       y       z     vdW  Elec       q    Type
REMARK                         _______ _______ _______ _____ _____    ______ ____
ROOT
ATOM      1  N   UNL     1     -21.219  40.997  -8.070  0.00  0.00    +0.000 NA
ATOM      2  N   UNL     1     -21.155  42.632  -6.339  0.00  0.00    +0.000 N 
ATOM      3  C   UNL     1     -19.243  40.600  -9.404  0.00  0.00    +0.000 A 
ATOM      4  C   UNL     1     -18.551  41.567  -8.681  0.00  0.00    +0.000 A 
ATOM      5  C   UNL     1     -20.516  41.929  -7.390  0.00  0.00    +0.000 A 
ATOM      6  C   UNL     1     -19.194  42.248  -7.652  0.00  0.00    +0.000 A 
ATOM      7  C   UNL     1     -20.563  40.355  -9.062  0.00  0.00    +0.000 A 
ATOM      8  C   UNL     1     -22.513  42.396  -5.969  0.00  0.00    +0.000 C 
ATOM      9  H   UNL     1     -20.698  43.471  -5.998  0.00  0.00    +0.000 HD
ENDROOT
BRANCH   3  12
ATOM     10  O   UNL     1     -19.213  38.983 -11.101  0.00  0.00    +0.000 OA
ATOM     11  N   UNL     1     -17.284  40.235 -10.803  0.00  0.00    +0.000 N 
ATOM     12  C   UNL     1     -18.600  39.872 -10.484  0.00  0.00    +0.000 C 
ATOM     13  H   UNL     1     -16.841  41.007 -10.317  0.00  0.00    +0.000 HD
BRANCH  11  14
ATOM     14  C   UNL     1     -16.521  39.621 -11.864  0.00  0.00    +0.000 C 
BRANCH  14  16
ATOM     15  F   UNL     1     -17.333  41.343 -13.226  0.00  0.00    +0.000 F 
ATOM     16  C   UNL     1     -17.049  40.013 -13.227  0.00  0.00    +0.000 C 
ENDBRANCH  14  16
ENDBRANCH  11  14
ENDBRANCH   3  12
TORSDOF 3
ENDMDL
MODEL 2
REMARK VINA RESULT:    -5.905      1.260      1.690
REMARK INTER + INTRA:          -7.048
REMARK INTER:                  -6.808
REMARK INTRA:                  -0.240
REMARK UNBOUND:                -0.107
REMARK  Name = 130504940
REMARK  4 active torsions:
REMARK  status: ('A' for Active; 'I' for Inactive)
REMARK    1  A    between atoms: N_3  and  C_7
REMARK    2  A    between atoms: N_5  and  C_14
REMARK    3  A    between atoms: C_6  and  C_8
REMARK    4  A    between atoms: C_7  and  C_13
REMARK                            x       y       z     vdW  Elec       q    Type
REMARK                         _______ _______ _______ _____ _____    ______ ____
ROOT
ATOM      1  N   UNL     1     -19.849  42.139  -7.326  0.00  0.00    +0.000 NA
ATOM      2  N   UNL     1     -21.999  41.722  -6.387  0.00  0.00    +0.000 N 
ATOM      3  C   UNL     1     -19.129  40.875  -9.256  0.00  0.00    +0.000 A 
ATOM      4  C   UNL     1     -20.334  40.181  -9.260  0.00  0.00    +0.000 A 
ATOM      5  C   UNL     1     -21.007  41.445  -7.361  0.00  0.00    +0.000 A 
ATOM      6  C   UNL     1     -21.297  40.466  -8.298  0.00  0.00    +0.000 A 
ATOM      7  C   UNL     1     -18.937  41.836  -8.276  0.00  0.00    +0.000 A 
ATOM      8  C   UNL     1     -21.823  42.707  -5.370  0.00  0.00    +0.000 C 
ATOM      9  H   UNL     1     -22.750  41.048  -6.287  0.00  0.00    +0.000 HD
ENDROOT
BRANCH   3  12
ATOM     10  O   UNL     1     -18.084  39.516 -10.855  0.00  0.00    +0.000 OA
ATOM     11  N   UNL     1     -17.170  41.616 -10.496  0.00  0.00    +0.000 N 
ATOM     12  C   UNL     1     -18.104  40.601 -10.248  0.00  0.00    +0.000 C 
ATOM     13  H   UNL     1     -17.257  42.510 -10.025  0.00  0.00    +0.000 HD
BRANCH  11  14
ATOM     14  C   UNL     1     -16.106  41.504 -11.467  0.00  0.00    +0.000 C 
BRANCH  14  16
ATOM     15  F   UNL     1     -17.274  41.561 -13.496  0.00  0.00    +0.000 F 
ATOM     16  C   UNL     1     -16.418  42.286 -12.726  0.00  0.00    +0.000 C 
ENDBRANCH  14  16
ENDBRANCH  11  14
ENDBRANCH   3  12
TORSDOF 3
ENDMDL
MODEL 3
REMARK VINA RESULT:    -5.786      3.588      5.868
REMARK INTER + INTRA:          -6.908
REMARK INTER:                  -6.686
REMARK INTRA:                  -0.222
REMARK UNBOUND:                -0.107
REMARK  Name = 130504940
REMARK  4 active torsions:
REMARK  status: ('A' for Active; 'I' for Inactive)
REMARK    1  A    between atoms: N_3  and  C_7
REMARK    2  A    between atoms: N_5  and  C_14
REMARK    3  A    between atoms: C_6  and  C_8
REMARK    4  A    between atoms: C_7  and  C_13
REMARK                            x       y       z     vdW  Elec       q    Type
REMARK                         _______ _______ _______ _____ _____    ______ ____
ROOT
ATOM      1  N   UNL     1     -19.703  41.900 -13.880  0.00  0.00    +0.000 NA
ATOM      2  N   UNL     1     -18.969  43.579 -15.403  0.00  0.00    +0.000 N 
ATOM      3  C   UNL     1     -18.627  41.698 -11.724  0.00  0.00    +0.000 A 
ATOM      4  C   UNL     1     -17.782  42.757 -12.039  0.00  0.00    +0.000 A 
ATOM      5  C   UNL     1     -18.865  42.925 -14.150  0.00  0.00    +0.000 A 
ATOM      6  C   UNL     1     -17.898  43.388 -13.273  0.00  0.00    +0.000 A 
ATOM      7  C   UNL     1     -19.562  41.311 -12.671  0.00  0.00    +0.000 A 
ATOM      8  C   UNL     1     -19.925  43.198 -16.392  0.00  0.00    +0.000 C 
ATOM      9  H   UNL     1     -18.200  44.180 -15.677  0.00  0.00    +0.000 HD
ENDROOT
BRANCH   3  12
ATOM     10  O   UNL     1     -17.463  40.493 -10.085  0.00  0.00    +0.000 OA
ATOM     11  N   UNL     1     -19.680  41.009  -9.641  0.00  0.00    +0.000 N 
ATOM     12  C   UNL     1     -18.532  41.019 -10.445  0.00  0.00    +0.000 C 
ATOM     13  H   UNL     1     -20.512  41.503  -9.943  0.00  0.00    +0.000 HD
BRANCH  11  14
ATOM     14  C   UNL     1     -19.736  40.396  -8.334  0.00  0.00    +0.000 C 
BRANCH  14  16
ATOM     15  F   UNL     1     -19.230  42.541  -7.544  0.00  0.00    +0.000 F 
ATOM     16  C   UNL     1     -19.950  41.426  -7.245  0.00  0.00    +0.000 C 
ENDBRANCH  14  16
ENDBRANCH  11  14
ENDBRANCH   3  12
TORSDOF 3
ENDMDL
MODEL 4
REMARK VINA RESULT:    -5.740      3.048      5.932
REMARK INTER + INTRA:          -6.854
REMARK INTER:                  -6.652
REMARK INTRA:                  -0.203
REMARK UNBOUND:                -0.107
REMARK  Name = 130504940
REMARK  4 active torsions:
REMARK  status: ('A' for Active; 'I' for Inactive)
REMARK    1  A    between atoms: N_3  and  C_7
REMARK    2  A    between atoms: N_5  and  C_14
REMARK    3  A    between atoms: C_6  and  C_8
REMARK    4  A    between atoms: C_7  and  C_13
REMARK                            x       y       z     vdW  Elec       q    Type
REMARK                         _______ _______ _______ _____ _____    ______ ____
ROOT
ATOM      1  N   UNL     1     -17.227  42.742 -10.704  0.00  0.00    +0.000 NA
ATOM      2  N   UNL     1     -16.187  42.224 -12.785  0.00  0.00    +0.000 N 
ATOM      3  C   UNL     1     -18.855  41.215  -9.776  0.00  0.00    +0.000 A 
ATOM      4  C   UNL     1     -18.692  40.367 -10.867  0.00  0.00    +0.000 A 
ATOM      5  C   UNL     1     -17.095  41.894 -11.748  0.00  0.00    +0.000 A 
ATOM      6  C   UNL     1     -17.796  40.706 -11.875  0.00  0.00    +0.000 A 
ATOM      7  C   UNL     1     -18.105  42.380  -9.743  0.00  0.00    +0.000 A 
ATOM      8  C   UNL     1     -15.405  43.417 -12.771  0.00  0.00    +0.000 C 
ATOM      9  H   UNL     1     -16.268  41.706 -13.653  0.00  0.00    +0.000 HD
ENDROOT
BRANCH   3  12
ATOM     10  O   UNL     1     -20.358  39.787  -8.682  0.00  0.00    +0.000 OA
ATOM     11  N   UNL     1     -19.969  41.856  -7.710  0.00  0.00    +0.000 N 
ATOM     12  C   UNL     1     -19.782  40.889  -8.707  0.00  0.00    +0.000 C 
ATOM     13  H   UNL     1     -19.433  42.717  -7.733  0.00  0.00    +0.000 HD
BRANCH  11  14
ATOM     14  C   UNL     1     -20.839  41.672  -6.571  0.00  0.00    +0.000 C 
BRANCH  14  16
ATOM     15  F   UNL     1     -23.128  41.205  -6.716  0.00  0.00    +0.000 F 
ATOM     16  C   UNL     1     -22.226  42.216  -6.837  0.00  0.00    +0.000 C 
ENDBRANCH  14  16
ENDBRANCH  11  14
ENDBRANCH   3  12
TORSDOF 3
ENDMDL
MODEL 5
REMARK VINA RESULT:    -5.291      4.548      5.607
REMARK INTER + INTRA:          -6.327
REMARK INTER:                  -6.121
REMARK INTRA:                  -0.206
REMARK UNBOUND:                -0.107
REMARK  Name = 130504940
REMARK  4 active torsions:
REMARK  status: ('A' for Active; 'I' for Inactive)
REMARK    1  A    between atoms: N_3  and  C_7
REMARK    2  A    between atoms: N_5  and  C_14
REMARK    3  A    between atoms: C_6  and  C_8
REMARK    4  A    between atoms: C_7  and  C_13
REMARK                            x       y       z     vdW  Elec       q    Type
REMARK                         _______ _______ _______ _____ _____    ______ ____
ROOT
ATOM      1  N   UNL     1     -19.129  41.507 -11.765  0.00  0.00    +0.000 NA
ATOM      2  N   UNL     1     -17.663  41.596  -9.889  0.00  0.00    +0.000 N 
ATOM      3  C   UNL     1     -18.821  43.062 -13.590  0.00  0.00    +0.000 A 
ATOM      4  C   UNL     1     -17.738  43.633 -12.930  0.00  0.00    +0.000 A 
ATOM      5  C   UNL     1     -18.072  42.086 -11.155  0.00  0.00    +0.000 A 
ATOM      6  C   UNL     1     -17.349  43.140 -11.689  0.00  0.00    +0.000 A 
ATOM      7  C   UNL     1     -19.478  42.011 -12.970  0.00  0.00    +0.000 A 
ATOM      8  C   UNL     1     -18.323  40.514  -9.233  0.00  0.00    +0.000 C 
ATOM      9  H   UNL     1     -17.029  42.177  -9.351  0.00  0.00    +0.000 HD
ENDROOT
BRANCH   3  12
ATOM     10  O   UNL     1     -19.012  44.726 -15.231  0.00  0.00    +0.000 OA
ATOM     11  N   UNL     1     -19.916  42.648 -15.723  0.00  0.00    +0.000 N 
ATOM     12  C   UNL     1     -19.251  43.554 -14.887  0.00  0.00    +0.000 C 
ATOM     13  H   UNL     1     -20.036  41.684 -15.431  0.00  0.00    +0.000 HD
BRANCH  11  14
ATOM     14  C   UNL     1     -20.384  42.979 -17.050  0.00  0.00    +0.000 C 
BRANCH  14  16
ATOM     15  F   UNL     1     -22.282  43.421 -15.752  0.00  0.00    +0.000 F 
ATOM     16  C   UNL     1     -21.839  43.394 -17.038  0.00  0.00    +0.000 C 
ENDBRANCH  14  16
ENDBRANCH  11  14
ENDBRANCH   3  12
TORSDOF 3
ENDMDL
