MODEL 1
REMARK VINA RESULT:    -6.429      0.000      0.000
REMARK INTER + INTRA:          -6.898
REMARK INTER:                  -6.805
REMARK INTRA:                  -0.093
REMARK UNBOUND:                -0.093
REMARK  Name = 130627080
REMARK  3 active torsions:
REMARK  status: ('A' for Active; 'I' for Inactive)
REMARK    1  A    between atoms: N_5  and  C_13
REMARK    2  A    between atoms: C_6  and  C_11
REMARK    3  A    between atoms: C_12  and  C_14
REMARK                            x       y       z     vdW  Elec       q    Type
REMARK                         _______ _______ _______ _____ _____    ______ ____
ROOT
ATOM      1  O   UNL     1     -22.863  41.372  -6.541  0.00  0.00    +0.000 OA
ATOM      2  N   UNL     1     -20.678  42.237  -6.715  0.00  0.00    +0.000 N 
ATOM      3  N   UNL     1     -20.944  40.714  -8.505  0.00  0.00    +0.000 NA
ATOM      4  C   UNL     1     -19.111  40.355 -10.039  0.00  0.00    +0.000 A 
ATOM      5  C   UNL     1     -20.158  41.591  -7.843  0.00  0.00    +0.000 A 
ATOM      6  C   UNL     1     -18.332  41.264  -9.332  0.00  0.00    +0.000 A 
ATOM      7  C   UNL     1     -18.857  41.899  -8.211  0.00  0.00    +0.000 A 
ATOM      8  C   UNL     1     -20.399  40.117  -9.588  0.00  0.00    +0.000 A 
ATOM      9  C   UNL     1     -21.950  42.094  -6.153  0.00  0.00    +0.000 C 
ATOM     10  C   UNL     1     -22.120  42.966  -4.934  0.00  0.00    +0.000 C 
ATOM     11  H   UNL     1     -20.047  42.887  -6.253  0.00  0.00    +0.000 HD
ENDROOT
BRANCH   4  14
ATOM     12  O   UNL     1     -19.114  38.622 -11.619  0.00  0.00    +0.000 OA
ATOM     13  N   UNL     1     -17.509  40.277 -11.869  0.00  0.00    +0.000 N 
ATOM     14  C   UNL     1     -18.592  39.677 -11.214  0.00  0.00    +0.000 C 
ATOM     15  C   UNL     1     -16.897  39.738 -13.063  0.00  0.00    +0.000 C 
ATOM     16  H   UNL     1     -17.164  41.178 -11.556  0.00  0.00    +0.000 HD
ENDBRANCH   4  14
TORSDOF 1
ENDMDL
MODEL 2
REMARK VINA RESULT:    -6.072      2.129      2.645
REMARK INTER + INTRA:          -6.521
REMARK INTER:                  -6.428
REMARK INTRA:                  -0.093
REMARK UNBOUND:                -0.093
REMARK  Name = 130627080
REMARK  3 active torsions:
REMARK  status: ('A' for Active; 'I' for Inactive)
REMARK    1  A    between atoms: N_5  and  C_13
REMARK    2  A    between atoms: C_6  and  C_11
REMARK    3  A    between atoms: C_12  and  C_14
REMARK                            x       y       z     vdW  Elec       q    Type
REMARK                         _______ _______ _______ _____ _____    ______ ____
ROOT
ATOM      1  O   UNL     1     -21.324  42.454  -6.962  0.00  0.00    +0.000 OA
ATOM      2  N   UNL     1     -21.285  40.649  -8.478  0.00  0.00    +0.000 N 
ATOM      3  N   UNL     1     -19.222  41.780  -8.725  0.00  0.00    +0.000 NA
ATOM      4  C   UNL     1     -17.607  40.962 -10.326  0.00  0.00    +0.000 A 
ATOM      5  C   UNL     1     -20.035  40.767  -9.098  0.00  0.00    +0.000 A 
ATOM      6  C   UNL     1     -18.471  39.933 -10.683  0.00  0.00    +0.000 A 
ATOM      7  C   UNL     1     -19.710  39.826 -10.062  0.00  0.00    +0.000 A 
ATOM      8  C   UNL     1     -18.026  41.852  -9.350  0.00  0.00    +0.000 A 
ATOM      9  C   UNL     1     -21.833  41.468  -7.486  0.00  0.00    +0.000 C 
ATOM     10  C   UNL     1     -23.211  41.006  -7.083  0.00  0.00    +0.000 C 
ATOM     11  H   UNL     1     -21.859  39.870  -8.793  0.00  0.00    +0.000 HD
ENDROOT
BRANCH   4  14
ATOM     12  O   UNL     1     -15.768  40.132 -11.522  0.00  0.00    +0.000 OA
ATOM     13  N   UNL     1     -15.707  42.368 -10.908  0.00  0.00    +0.000 N 
ATOM     14  C   UNL     1     -16.304  41.101 -10.954  0.00  0.00    +0.000 C 
ATOM     15  C   UNL     1     -14.427  42.671 -11.506  0.00  0.00    +0.000 C 
ATOM     16  H   UNL     1     -16.212  43.151 -10.508  0.00  0.00    +0.000 HD
ENDBRANCH   4  14
TORSDOF 1
ENDMDL
MODEL 3
REMARK VINA RESULT:    -6.069      3.991      6.752
REMARK INTER + INTRA:          -6.518
REMARK INTER:                  -6.435
REMARK INTRA:                  -0.082
REMARK UNBOUND:                -0.093
REMARK  Name = 130627080
REMARK  3 active torsions:
REMARK  status: ('A' for Active; 'I' for Inactive)
REMARK    1  A    between atoms: N_5  and  C_13
REMARK    2  A    between atoms: C_6  and  C_11
REMARK    3  A    between atoms: C_12  and  C_14
REMARK                            x       y       z     vdW  Elec       q    Type
REMARK                         _______ _______ _______ _____ _____    ______ ____
ROOT
ATOM      1  O   UNL     1     -20.446  42.643 -16.550  0.00  0.00    +0.000 OA
ATOM      2  N   UNL     1     -18.894  43.790 -15.197  0.00  0.00    +0.000 N 
ATOM      3  N   UNL     1     -19.670  41.954 -13.923  0.00  0.00    +0.000 NA
ATOM      4  C   UNL     1     -18.815  41.618 -11.687  0.00  0.00    +0.000 A 
ATOM      5  C   UNL     1     -18.877  43.046 -14.011  0.00  0.00    +0.000 A 
ATOM      6  C   UNL     1     -18.015  42.746 -11.816  0.00  0.00    +0.000 A 
ATOM      7  C   UNL     1     -18.040  43.480 -12.996  0.00  0.00    +0.000 A 
ATOM      8  C   UNL     1     -19.618  41.267 -12.760  0.00  0.00    +0.000 A 
ATOM      9  C   UNL     1     -19.648  43.553 -16.351  0.00  0.00    +0.000 C 
ATOM     10  C   UNL     1     -19.382  44.593 -17.411  0.00  0.00    +0.000 C 
ATOM     11  H   UNL     1     -18.280  44.601 -15.213  0.00  0.00    +0.000 HD
ENDROOT
BRANCH   4  14
ATOM     12  O   UNL     1     -17.739  40.500  -9.930  0.00  0.00    +0.000 OA
ATOM     13  N   UNL     1     -20.058  40.488  -9.926  0.00  0.00    +0.000 N 
ATOM     14  C   UNL     1     -18.811  40.829 -10.467  0.00  0.00    +0.000 C 
ATOM     15  C   UNL     1     -20.219  39.728  -8.707  0.00  0.00    +0.000 C 
ATOM     16  H   UNL     1     -20.908  40.844 -10.349  0.00  0.00    +0.000 HD
ENDBRANCH   4  14
TORSDOF 1
ENDMDL
MODEL 4
REMARK VINA RESULT:    -5.161      5.513      7.127
REMARK INTER + INTRA:          -5.556
REMARK INTER:                  -5.484
REMARK INTRA:                  -0.072
REMARK UNBOUND:                -0.093
REMARK  Name = 130627080
REMARK  3 active torsions:
REMARK  status: ('A' for Active; 'I' for Inactive)
REMARK    1  A    between atoms: N_5  and  C_13
REMARK    2  A    between atoms: C_6  and  C_11
REMARK    3  A    between atoms: C_12  and  C_14
REMARK                            x       y       z     vdW  Elec       q    Type
REMARK                         _______ _______ _______ _____ _____    ______ ____
ROOT
ATOM      1  O   UNL     1     -19.495  39.871 -12.781  0.00  0.00    +0.000 OA
ATOM      2  N   UNL     1     -18.474  41.916 -12.206  0.00  0.00    +0.000 N 
ATOM      3  N   UNL     1     -19.464  42.232 -14.331  0.00  0.00    +0.000 NA
ATOM      4  C   UNL     1     -19.270  44.381 -15.421  0.00  0.00    +0.000 A 
ATOM      5  C   UNL     1     -18.749  42.741 -13.303  0.00  0.00    +0.000 A 
ATOM      6  C   UNL     1     -18.538  44.869 -14.344  0.00  0.00    +0.000 A 
ATOM      7  C   UNL     1     -18.268  44.041 -13.261  0.00  0.00    +0.000 A 
ATOM      8  C   UNL     1     -19.706  43.067 -15.366  0.00  0.00    +0.000 A 
ATOM      9  C   UNL     1     -18.849  40.582 -12.019  0.00  0.00    +0.000 C 
ATOM     10  C   UNL     1     -18.351  40.045 -10.700  0.00  0.00    +0.000 C 
ATOM     11  H   UNL     1     -17.934  42.347 -11.459  0.00  0.00    +0.000 HD
ENDROOT
BRANCH   4  14
ATOM     12  O   UNL     1     -18.740  45.364 -17.483  0.00  0.00    +0.000 OA
ATOM     13  N   UNL     1     -20.832  45.829 -16.598  0.00  0.00    +0.000 N 
ATOM     14  C   UNL     1     -19.570  45.221 -16.567  0.00  0.00    +0.000 C 
ATOM     15  C   UNL     1     -21.288  46.673 -17.679  0.00  0.00    +0.000 C 
ATOM     16  H   UNL     1     -21.511  45.622 -15.873  0.00  0.00    +0.000 HD
ENDBRANCH   4  14
TORSDOF 1
ENDMDL
MODEL 5
REMARK VINA RESULT:    -5.118      5.385      6.813
REMARK INTER + INTRA:          -5.510
REMARK INTER:                  -5.416
REMARK INTRA:                  -0.094
REMARK UNBOUND:                -0.093
REMARK  Name = 130627080
REMARK  3 active torsions:
REMARK  status: ('A' for Active; 'I' for Inactive)
REMARK    1  A    between atoms: N_5  and  C_13
REMARK    2  A    between atoms: C_6  and  C_11
REMARK    3  A    between atoms: C_12  and  C_14
REMARK                            x       y       z     vdW  Elec       q    Type
REMARK                         _______ _______ _______ _____ _____    ______ ____
ROOT
ATOM      1  O   UNL     1     -13.047  43.871 -11.481  0.00  0.00    +0.000 OA
ATOM      2  N   UNL     1     -14.216  41.919 -10.868  0.00  0.00    +0.000 N 
ATOM      3  N   UNL     1     -15.595  43.074 -12.403  0.00  0.00    +0.000 NA
ATOM      4  C   UNL     1     -17.740  42.137 -13.007  0.00  0.00    +0.000 A 
ATOM      5  C   UNL     1     -15.408  42.005 -11.598  0.00  0.00    +0.000 A 
ATOM      6  C   UNL     1     -17.511  41.053 -12.169  0.00  0.00    +0.000 A 
ATOM      7  C   UNL     1     -16.325  40.977 -11.446  0.00  0.00    +0.000 A 
ATOM      8  C   UNL     1     -16.759  43.113 -13.089  0.00  0.00    +0.000 A 
ATOM      9  C   UNL     1     -13.149  42.822 -10.854  0.00  0.00    +0.000 C 
ATOM     10  C   UNL     1     -12.048  42.367  -9.929  0.00  0.00    +0.000 C 
ATOM     11  H   UNL     1     -14.123  41.095 -10.278  0.00  0.00    +0.000 HD
ENDROOT
BRANCH   4  14
ATOM     12  O   UNL     1     -19.982  41.607 -13.444  0.00  0.00    +0.000 OA
ATOM     13  N   UNL     1     -18.954  43.112 -14.878  0.00  0.00    +0.000 N 
ATOM     14  C   UNL     1     -18.967  42.245 -13.777  0.00  0.00    +0.000 C 
ATOM     15  C   UNL     1     -20.101  43.345 -15.726  0.00  0.00    +0.000 C 
ATOM     16  H   UNL     1     -18.133  43.676 -15.068  0.00  0.00    +0.000 HD
ENDBRANCH   4  14
TORSDOF 1
ENDMDL
