MODEL 1
REMARK VINA RESULT:    -6.314      0.000      0.000
REMARK INTER + INTRA:          -6.733
REMARK INTER:                  -6.683
REMARK INTRA:                  -0.050
REMARK UNBOUND:                -0.050
REMARK  Name = 13071204
REMARK  2 active torsions:
REMARK  status: ('A' for Active; 'I' for Inactive)
REMARK    1  A    between atoms: N_2  and  C_10
REMARK    2  A    between atoms: C_6  and  C_11
REMARK                            x       y       z     vdW  Elec       q    Type
REMARK                         _______ _______ _______ _____ _____    ______ ____
ROOT
ATOM      1  N   UNL     1     -21.908  41.319  -7.489  0.00  0.00    +0.000 N 
ATOM      2  N   UNL     1     -22.206  42.934  -5.757  0.00  0.00    +0.000 N 
ATOM      3  C   UNL     1     -21.393  42.269  -6.697  0.00  0.00    +0.000 A 
ATOM      4  C   UNL     1     -19.822  40.958  -8.539  0.00  0.00    +0.000 A 
ATOM      5  C   UNL     1     -21.170  40.662  -8.395  0.00  0.00    +0.000 A 
ATOM      6  C   UNL     1     -20.050  42.606  -6.797  0.00  0.00    +0.000 A 
ATOM      7  C   UNL     1     -19.260  41.940  -7.730  0.00  0.00    +0.000 A 
ATOM      8  C   UNL     1     -23.324  40.966  -7.381  0.00  0.00    +0.000 C 
ATOM      9  H   UNL     1     -23.187  42.708  -5.672  0.00  0.00    +0.000 HD
ATOM     10  H   UNL     1     -21.756  43.373  -4.963  0.00  0.00    +0.000 HD
ENDROOT
BRANCH   4  13
ATOM     11  O   UNL     1     -19.491  39.439 -10.321  0.00  0.00    +0.000 OA
ATOM     12  N   UNL     1     -17.656  40.544  -9.543  0.00  0.00    +0.000 N 
ATOM     13  C   UNL     1     -19.013  40.252  -9.518  0.00  0.00    +0.000 C 
ATOM     14  H   UNL     1     -17.176  41.194  -8.934  0.00  0.00    +0.000 HD
ATOM     15  H   UNL     1     -17.061  40.078 -10.219  0.00  0.00    +0.000 HD
ENDBRANCH   4  13
TORSDOF 1
ENDMDL
MODEL 2
REMARK VINA RESULT:    -6.312      1.937      4.065
REMARK INTER + INTRA:          -6.730
REMARK INTER:                  -6.683
REMARK INTRA:                  -0.048
REMARK UNBOUND:                -0.050
REMARK  Name = 13071204
REMARK  2 active torsions:
REMARK  status: ('A' for Active; 'I' for Inactive)
REMARK    1  A    between atoms: N_2  and  C_10
REMARK    2  A    between atoms: C_6  and  C_11
REMARK                            x       y       z     vdW  Elec       q    Type
REMARK                         _______ _______ _______ _____ _____    ______ ____
ROOT
ATOM      1  N   UNL     1     -19.924  40.516  -9.206  0.00  0.00    +0.000 N 
ATOM      2  N   UNL     1     -17.590  40.940  -9.475  0.00  0.00    +0.000 N 
ATOM      3  C   UNL     1     -18.818  41.165  -8.819  0.00  0.00    +0.000 A 
ATOM      4  C   UNL     1     -21.224  41.590  -7.551  0.00  0.00    +0.000 A 
ATOM      5  C   UNL     1     -21.110  40.701  -8.610  0.00  0.00    +0.000 A 
ATOM      6  C   UNL     1     -18.872  42.066  -7.765  0.00  0.00    +0.000 A 
ATOM      7  C   UNL     1     -20.091  42.277  -7.127  0.00  0.00    +0.000 A 
ATOM      8  C   UNL     1     -19.862  39.566 -10.319  0.00  0.00    +0.000 C 
ATOM      9  H   UNL     1     -17.528  40.284 -10.241  0.00  0.00    +0.000 HD
ATOM     10  H   UNL     1     -16.878  41.657  -9.412  0.00  0.00    +0.000 HD
ENDROOT
BRANCH   4  13
ATOM     11  O   UNL     1     -23.408  40.949  -6.908  0.00  0.00    +0.000 OA
ATOM     12  N   UNL     1     -22.681  42.998  -6.223  0.00  0.00    +0.000 N 
ATOM     13  C   UNL     1     -22.505  41.797  -6.897  0.00  0.00    +0.000 C 
ATOM     14  H   UNL     1     -22.004  43.747  -6.153  0.00  0.00    +0.000 HD
ATOM     15  H   UNL     1     -23.559  43.175  -5.746  0.00  0.00    +0.000 HD
ENDBRANCH   4  13
TORSDOF 1
ENDMDL
MODEL 3
REMARK VINA RESULT:    -5.827      1.562      1.967
REMARK INTER + INTRA:          -6.218
REMARK INTER:                  -6.168
REMARK INTRA:                  -0.050
REMARK UNBOUND:                -0.050
REMARK  Name = 13071204
REMARK  2 active torsions:
REMARK  status: ('A' for Active; 'I' for Inactive)
REMARK    1  A    between atoms: N_2  and  C_10
REMARK    2  A    between atoms: C_6  and  C_11
REMARK                            x       y       z     vdW  Elec       q    Type
REMARK                         _______ _______ _______ _____ _____    ______ ____
ROOT
ATOM      1  N   UNL     1     -20.621  40.923  -8.363  0.00  0.00    +0.000 N 
ATOM      2  N   UNL     1     -20.067  42.582  -6.739  0.00  0.00    +0.000 N 
ATOM      3  C   UNL     1     -19.731  41.782  -7.850  0.00  0.00    +0.000 A 
ATOM      4  C   UNL     1     -19.093  40.211 -10.019  0.00  0.00    +0.000 A 
ATOM      5  C   UNL     1     -20.342  40.144  -9.418  0.00  0.00    +0.000 A 
ATOM      6  C   UNL     1     -18.466  41.891  -8.411  0.00  0.00    +0.000 A 
ATOM      7  C   UNL     1     -18.148  41.095  -9.507  0.00  0.00    +0.000 A 
ATOM      8  C   UNL     1     -21.954  40.811  -7.769  0.00  0.00    +0.000 C 
ATOM      9  H   UNL     1     -20.984  42.523  -6.320  0.00  0.00    +0.000 HD
ATOM     10  H   UNL     1     -19.314  42.949  -6.169  0.00  0.00    +0.000 HD
ENDROOT
BRANCH   4  13
ATOM     11  O   UNL     1     -19.586  38.560 -11.639  0.00  0.00    +0.000 OA
ATOM     12  N   UNL     1     -17.525  39.530 -11.735  0.00  0.00    +0.000 N 
ATOM     13  C   UNL     1     -18.780  39.372 -11.163  0.00  0.00    +0.000 C 
ATOM     14  H   UNL     1     -16.804  40.167 -11.423  0.00  0.00    +0.000 HD
ATOM     15  H   UNL     1     -17.274  38.967 -12.542  0.00  0.00    +0.000 HD
ENDBRANCH   4  13
TORSDOF 1
ENDMDL
MODEL 4
REMARK VINA RESULT:    -5.539      2.247      4.558
REMARK INTER + INTRA:          -5.912
REMARK INTER:                  -5.876
REMARK INTRA:                  -0.036
REMARK UNBOUND:                -0.050
REMARK  Name = 13071204
REMARK  2 active torsions:
REMARK  status: ('A' for Active; 'I' for Inactive)
REMARK    1  A    between atoms: N_2  and  C_10
REMARK    2  A    between atoms: C_6  and  C_11
REMARK                            x       y       z     vdW  Elec       q    Type
REMARK                         _______ _______ _______ _____ _____    ______ ____
ROOT
ATOM      1  N   UNL     1     -19.036  41.513  -8.944  0.00  0.00    +0.000 N 
ATOM      2  N   UNL     1     -19.029  39.783 -10.589  0.00  0.00    +0.000 N 
ATOM      3  C   UNL     1     -19.618  40.435  -9.487  0.00  0.00    +0.000 A 
ATOM      4  C   UNL     1     -20.753  41.724  -7.335  0.00  0.00    +0.000 A 
ATOM      5  C   UNL     1     -19.562  42.162  -7.896  0.00  0.00    +0.000 A 
ATOM      6  C   UNL     1     -20.811  39.953  -8.966  0.00  0.00    +0.000 A 
ATOM      7  C   UNL     1     -21.380  40.607  -7.878  0.00  0.00    +0.000 A 
ATOM      8  C   UNL     1     -17.778  42.019  -9.496  0.00  0.00    +0.000 C 
ATOM      9  H   UNL     1     -18.165  40.122 -10.987  0.00  0.00    +0.000 HD
ATOM     10  H   UNL     1     -19.275  38.815 -10.758  0.00  0.00    +0.000 HD
ENDROOT
BRANCH   4  13
ATOM     11  O   UNL     1     -21.051  42.139  -5.026  0.00  0.00    +0.000 OA
ATOM     12  N   UNL     1     -22.217  43.453  -6.478  0.00  0.00    +0.000 N 
ATOM     13  C   UNL     1     -21.332  42.420  -6.199  0.00  0.00    +0.000 C 
ATOM     14  H   UNL     1     -22.504  43.759  -7.398  0.00  0.00    +0.000 HD
ATOM     15  H   UNL     1     -22.635  43.969  -5.710  0.00  0.00    +0.000 HD
ENDBRANCH   4  13
TORSDOF 1
ENDMDL
MODEL 5
REMARK VINA RESULT:    -5.406      2.797      5.218
REMARK INTER + INTRA:          -5.772
REMARK INTER:                  -5.728
REMARK INTRA:                  -0.044
REMARK UNBOUND:                -0.050
REMARK  Name = 13071204
REMARK  2 active torsions:
REMARK  status: ('A' for Active; 'I' for Inactive)
REMARK    1  A    between atoms: N_2  and  C_10
REMARK    2  A    between atoms: C_6  and  C_11
REMARK                            x       y       z     vdW  Elec       q    Type
REMARK                         _______ _______ _______ _____ _____    ______ ____
ROOT
ATOM      1  N   UNL     1     -17.644  40.644 -11.811  0.00  0.00    +0.000 N 
ATOM      2  N   UNL     1     -16.224  42.300 -12.782  0.00  0.00    +0.000 N 
ATOM      3  C   UNL     1     -17.068  41.852 -11.745  0.00  0.00    +0.000 A 
ATOM      4  C   UNL     1     -18.718  40.959  -9.730  0.00  0.00    +0.000 A 
ATOM      5  C   UNL     1     -18.452  40.181 -10.847  0.00  0.00    +0.000 A 
ATOM      6  C   UNL     1     -17.298  42.674 -10.650  0.00  0.00    +0.000 A 
ATOM      7  C   UNL     1     -18.133  42.218  -9.634  0.00  0.00    +0.000 A 
ATOM      8  C   UNL     1     -17.398  39.780 -12.967  0.00  0.00    +0.000 C 
ATOM      9  H   UNL     1     -16.039  41.714 -13.584  0.00  0.00    +0.000 HD
ATOM     10  H   UNL     1     -16.086  43.297 -12.887  0.00  0.00    +0.000 HD
ENDROOT
BRANCH   4  13
ATOM     11  O   UNL     1     -19.386  40.689  -7.477  0.00  0.00    +0.000 OA
ATOM     12  N   UNL     1     -20.707  39.740  -9.075  0.00  0.00    +0.000 N 
ATOM     13  C   UNL     1     -19.592  40.467  -8.679  0.00  0.00    +0.000 C 
ATOM     14  H   UNL     1     -20.961  39.513 -10.027  0.00  0.00    +0.000 HD
ATOM     15  H   UNL     1     -21.345  39.388  -8.369  0.00  0.00    +0.000 HD
ENDBRANCH   4  13
TORSDOF 1
ENDMDL
