MODEL 1
REMARK VINA RESULT:    -5.061      0.000      0.000
REMARK INTER + INTRA:          -5.600
REMARK INTER:                  -5.357
REMARK INTRA:                  -0.243
REMARK UNBOUND:                -0.243
REMARK  Name = 130769412
REMARK  1 active torsions:
REMARK  status: ('A' for Active; 'I' for Inactive)
REMARK    1  A    between atoms: C_5  and  C_10
REMARK                            x       y       z     vdW  Elec       q    Type
REMARK                         _______ _______ _______ _____ _____    ______ ____
ROOT
ATOM      1  F   UNL     1     -17.399  43.245 -11.044  0.00  0.00    +0.000 F 
ATOM      2  N   UNL     1     -19.381  39.709 -10.227  0.00  0.00    +0.000 NA
ATOM      3  N   UNL     1     -19.657  39.310 -12.547  0.00  0.00    +0.000 N 
ATOM      4  C   UNL     1     -18.515  41.301 -11.825  0.00  0.00    +0.000 A 
ATOM      5  C   UNL     1     -19.172  40.128 -11.495  0.00  0.00    +0.000 A 
ATOM      6  C   UNL     1     -18.043  42.097 -10.788  0.00  0.00    +0.000 A 
ATOM      7  C   UNL     1     -18.239  41.701  -9.469  0.00  0.00    +0.000 A 
ATOM      8  C   UNL     1     -18.908  40.508  -9.244  0.00  0.00    +0.000 A 
ATOM      9  H   UNL     1     -19.981  39.758 -13.396  0.00  0.00    +0.000 HD
ATOM     10  H   UNL     1     -20.121  38.454 -12.270  0.00  0.00    +0.000 HD
ENDROOT
BRANCH   4  12
ATOM     11  O   UNL     1     -19.230  41.882 -14.005  0.00  0.00    +0.000 OA
ATOM     12  C   UNL     1     -18.307  41.723 -13.204  0.00  0.00    +0.000 C 
ENDBRANCH   4  12
TORSDOF 1
ENDMDL
MODEL 2
REMARK VINA RESULT:    -5.020      1.960      2.922
REMARK INTER + INTRA:          -5.557
REMARK INTER:                  -5.315
REMARK INTRA:                  -0.241
REMARK UNBOUND:                -0.243
REMARK  Name = 130769412
REMARK  1 active torsions:
REMARK  status: ('A' for Active; 'I' for Inactive)
REMARK    1  A    between atoms: C_5  and  C_10
REMARK                            x       y       z     vdW  Elec       q    Type
REMARK                         _______ _______ _______ _____ _____    ______ ____
ROOT
ATOM      1  F   UNL     1     -17.751  42.607  -9.671  0.00  0.00    +0.000 F 
ATOM      2  N   UNL     1     -18.899  41.257 -13.407  0.00  0.00    +0.000 NA
ATOM      3  N   UNL     1     -19.852  39.319 -12.431  0.00  0.00    +0.000 N 
ATOM      4  C   UNL     1     -18.802  40.954 -11.012  0.00  0.00    +0.000 A 
ATOM      5  C   UNL     1     -19.162  40.550 -12.286  0.00  0.00    +0.000 A 
ATOM      6  C   UNL     1     -18.127  42.162 -10.878  0.00  0.00    +0.000 A 
ATOM      7  C   UNL     1     -17.836  42.919 -12.009  0.00  0.00    +0.000 A 
ATOM      8  C   UNL     1     -18.241  42.426 -13.240  0.00  0.00    +0.000 A 
ATOM      9  H   UNL     1     -19.636  38.567 -11.787  0.00  0.00    +0.000 HD
ATOM     10  H   UNL     1     -20.110  39.060 -13.375  0.00  0.00    +0.000 HD
ENDROOT
BRANCH   4  12
ATOM     11  O   UNL     1     -20.247  40.014  -9.391  0.00  0.00    +0.000 OA
ATOM     12  C   UNL     1     -19.103  40.166  -9.824  0.00  0.00    +0.000 C 
ENDBRANCH   4  12
TORSDOF 1
ENDMDL
MODEL 3
REMARK VINA RESULT:    -4.457      2.411      2.901
REMARK INTER + INTRA:          -4.960
REMARK INTER:                  -4.714
REMARK INTRA:                  -0.246
REMARK UNBOUND:                -0.243
REMARK  Name = 130769412
REMARK  1 active torsions:
REMARK  status: ('A' for Active; 'I' for Inactive)
REMARK    1  A    between atoms: C_5  and  C_10
REMARK                            x       y       z     vdW  Elec       q    Type
REMARK                         _______ _______ _______ _____ _____    ______ ____
ROOT
ATOM      1  F   UNL     1     -19.266  42.465 -13.457  0.00  0.00    +0.000 F 
ATOM      2  N   UNL     1     -17.632  39.434 -11.166  0.00  0.00    +0.000 NA
ATOM      3  N   UNL     1     -15.519  40.505 -11.230  0.00  0.00    +0.000 N 
ATOM      4  C   UNL     1     -17.384  41.519 -12.362  0.00  0.00    +0.000 A 
ATOM      5  C   UNL     1     -16.890  40.479 -11.594  0.00  0.00    +0.000 A 
ATOM      6  C   UNL     1     -18.729  41.487 -12.715  0.00  0.00    +0.000 A 
ATOM      7  C   UNL     1     -19.527  40.428 -12.294  0.00  0.00    +0.000 A 
ATOM      8  C   UNL     1     -18.936  39.435 -11.528  0.00  0.00    +0.000 A 
ATOM      9  H   UNL     1     -14.856  40.913 -11.878  0.00  0.00    +0.000 HD
ATOM     10  H   UNL     1     -15.194  39.735 -10.659  0.00  0.00    +0.000 HD
ENDROOT
BRANCH   4  12
ATOM     11  O   UNL     1     -15.987  43.399 -12.026  0.00  0.00    +0.000 OA
ATOM     12  C   UNL     1     -16.554  42.631 -12.806  0.00  0.00    +0.000 C 
ENDBRANCH   4  12
TORSDOF 1
ENDMDL
MODEL 4
REMARK VINA RESULT:    -4.417      2.094      2.502
REMARK INTER + INTRA:          -4.918
REMARK INTER:                  -4.672
REMARK INTRA:                  -0.247
REMARK UNBOUND:                -0.243
REMARK  Name = 130769412
REMARK  1 active torsions:
REMARK  status: ('A' for Active; 'I' for Inactive)
REMARK    1  A    between atoms: C_5  and  C_10
REMARK                            x       y       z     vdW  Elec       q    Type
REMARK                         _______ _______ _______ _____ _____    ______ ____
ROOT
ATOM      1  F   UNL     1     -15.840  41.097 -11.188  0.00  0.00    +0.000 F 
ATOM      2  N   UNL     1     -19.582  40.285 -12.750  0.00  0.00    +0.000 NA
ATOM      3  N   UNL     1     -19.488  42.268 -14.045  0.00  0.00    +0.000 N 
ATOM      4  C   UNL     1     -17.634  41.709 -12.617  0.00  0.00    +0.000 A 
ATOM      5  C   UNL     1     -18.888  41.389 -13.108  0.00  0.00    +0.000 A 
ATOM      6  C   UNL     1     -17.053  40.842 -11.699  0.00  0.00    +0.000 A 
ATOM      7  C   UNL     1     -17.735  39.695 -11.305  0.00  0.00    +0.000 A 
ATOM      8  C   UNL     1     -18.986  39.465 -11.856  0.00  0.00    +0.000 A 
ATOM      9  H   UNL     1     -19.299  43.260 -13.964  0.00  0.00    +0.000 HD
ATOM     10  H   UNL     1     -20.399  41.998 -14.392  0.00  0.00    +0.000 HD
ENDROOT
BRANCH   4  12
ATOM     11  O   UNL     1     -17.345  44.047 -12.836  0.00  0.00    +0.000 OA
ATOM     12  C   UNL     1     -16.914  42.908 -13.025  0.00  0.00    +0.000 C 
ENDBRANCH   4  12
TORSDOF 1
ENDMDL
MODEL 5
REMARK VINA RESULT:    -4.408      2.365      3.209
REMARK INTER + INTRA:          -4.908
REMARK INTER:                  -4.710
REMARK INTRA:                  -0.199
REMARK UNBOUND:                -0.243
REMARK  Name = 130769412
REMARK  1 active torsions:
REMARK  status: ('A' for Active; 'I' for Inactive)
REMARK    1  A    between atoms: C_5  and  C_10
REMARK                            x       y       z     vdW  Elec       q    Type
REMARK                         _______ _______ _______ _____ _____    ______ ____
ROOT
ATOM      1  F   UNL     1     -19.541  41.946 -13.636  0.00  0.00    +0.000 F 
ATOM      2  N   UNL     1     -17.326  42.854 -10.264  0.00  0.00    +0.000 NA
ATOM      3  N   UNL     1     -17.836  40.733  -9.340  0.00  0.00    +0.000 N 
ATOM      4  C   UNL     1     -18.711  41.311 -11.505  0.00  0.00    +0.000 A 
ATOM      5  C   UNL     1     -17.957  41.667 -10.399  0.00  0.00    +0.000 A 
ATOM      6  C   UNL     1     -18.825  42.232 -12.540  0.00  0.00    +0.000 A 
ATOM      7  C   UNL     1     -18.190  43.466 -12.439  0.00  0.00    +0.000 A 
ATOM      8  C   UNL     1     -17.458  43.726 -11.290  0.00  0.00    +0.000 A 
ATOM      9  H   UNL     1     -18.618  40.119  -9.146  0.00  0.00    +0.000 HD
ATOM     10  H   UNL     1     -17.268  41.021  -8.553  0.00  0.00    +0.000 HD
ENDROOT
BRANCH   4  12
ATOM     11  O   UNL     1     -18.858  38.962 -11.262  0.00  0.00    +0.000 OA
ATOM     12  C   UNL     1     -19.379  40.022 -11.618  0.00  0.00    +0.000 C 
ENDBRANCH   4  12
TORSDOF 1
ENDMDL
