MODEL 1
REMARK VINA RESULT:    -7.164      0.000      0.000
REMARK INTER + INTRA:          -7.356
REMARK INTER:                  -7.582
REMARK INTRA:                   0.226
REMARK UNBOUND:                 0.226
REMARK  Name = 130967266
REMARK  1 active torsions:
REMARK  status: ('A' for Active; 'I' for Inactive)
REMARK    1  A    between atoms: C_6  and  C_11
REMARK                            x       y       z     vdW  Elec       q    Type
REMARK                         _______ _______ _______ _____ _____    ______ ____
ROOT
ATOM      1  F   UNL     1     -22.176  39.895  -8.400  0.00  0.00    +0.000 F 
ATOM      2  N   UNL     1     -18.686  42.068  -7.951  0.00  0.00    +0.000 NA
ATOM      3  N   UNL     1     -17.581  40.556  -9.423  0.00  0.00    +0.000 N 
ATOM      4  C   UNL     1     -21.023  41.728  -7.432  0.00  0.00    +0.000 A 
ATOM      5  C   UNL     1     -21.048  40.604  -8.249  0.00  0.00    +0.000 A 
ATOM      6  C   UNL     1     -19.894  40.210  -8.917  0.00  0.00    +0.000 A 
ATOM      7  C   UNL     1     -18.749  40.969  -8.736  0.00  0.00    +0.000 A 
ATOM      8  C   UNL     1     -19.827  42.420  -7.317  0.00  0.00    +0.000 A 
ATOM      9  H   UNL     1     -17.474  39.572  -9.642  0.00  0.00    +0.000 HD
ATOM     10  H   UNL     1     -16.745  41.109  -9.282  0.00  0.00    +0.000 HD
ENDROOT
BRANCH   4  13
ATOM     11  O   UNL     1     -23.143  41.386  -6.464  0.00  0.00    +0.000 OA
ATOM     12  N   UNL     1     -22.266  43.500  -6.314  0.00  0.00    +0.000 N 
ATOM     13  C   UNL     1     -22.210  42.169  -6.720  0.00  0.00    +0.000 C 
ATOM     14  H   UNL     1     -21.535  44.180  -6.490  0.00  0.00    +0.000 HD
ATOM     15  H   UNL     1     -23.077  43.844  -5.810  0.00  0.00    +0.000 HD
ENDBRANCH   4  13
TORSDOF 1
ENDMDL
MODEL 2
REMARK VINA RESULT:    -6.347      1.906      2.233
REMARK INTER + INTRA:          -6.492
REMARK INTER:                  -6.755
REMARK INTRA:                   0.263
REMARK UNBOUND:                 0.226
REMARK  Name = 130967266
REMARK  1 active torsions:
REMARK  status: ('A' for Active; 'I' for Inactive)
REMARK    1  A    between atoms: C_6  and  C_11
REMARK                            x       y       z     vdW  Elec       q    Type
REMARK                         _______ _______ _______ _____ _____    ______ ____
ROOT
ATOM      1  F   UNL     1     -20.456  42.709  -6.140  0.00  0.00    +0.000 F 
ATOM      2  N   UNL     1     -20.012  40.020  -9.250  0.00  0.00    +0.000 NA
ATOM      3  N   UNL     1     -17.669  40.450  -9.258  0.00  0.00    +0.000 N 
ATOM      4  C   UNL     1     -21.426  41.172  -7.663  0.00  0.00    +0.000 A 
ATOM      5  C   UNL     1     -20.319  41.837  -7.149  0.00  0.00    +0.000 A 
ATOM      6  C   UNL     1     -19.059  41.595  -7.683  0.00  0.00    +0.000 A 
ATOM      7  C   UNL     1     -18.959  40.685  -8.724  0.00  0.00    +0.000 A 
ATOM      8  C   UNL     1     -21.221  40.281  -8.705  0.00  0.00    +0.000 A 
ATOM      9  H   UNL     1     -16.982  41.192  -9.205  0.00  0.00    +0.000 HD
ATOM     10  H   UNL     1     -17.601  39.790 -10.023  0.00  0.00    +0.000 HD
ENDROOT
BRANCH   4  13
ATOM     11  O   UNL     1     -23.012  42.385  -6.414  0.00  0.00    +0.000 OA
ATOM     12  N   UNL     1     -23.754  40.482  -7.456  0.00  0.00    +0.000 N 
ATOM     13  C   UNL     1     -22.758  41.399  -7.128  0.00  0.00    +0.000 C 
ATOM     14  H   UNL     1     -23.606  39.665  -8.037  0.00  0.00    +0.000 HD
ATOM     15  H   UNL     1     -24.698  40.611  -7.106  0.00  0.00    +0.000 HD
ENDBRANCH   4  13
TORSDOF 1
ENDMDL
MODEL 3
REMARK VINA RESULT:    -6.040      3.274      4.570
REMARK INTER + INTRA:          -6.167
REMARK INTER:                  -6.076
REMARK INTRA:                  -0.091
REMARK UNBOUND:                 0.226
REMARK  Name = 130967266
REMARK  1 active torsions:
REMARK  status: ('A' for Active; 'I' for Inactive)
REMARK    1  A    between atoms: C_6  and  C_11
REMARK                            x       y       z     vdW  Elec       q    Type
REMARK                         _______ _______ _______ _____ _____    ______ ____
ROOT
ATOM      1  F   UNL     1     -17.434  42.003 -10.293  0.00  0.00    +0.000 F 
ATOM      2  N   UNL     1     -20.657  40.894  -7.952  0.00  0.00    +0.000 NA
ATOM      3  N   UNL     1     -19.974  42.470  -6.302  0.00  0.00    +0.000 N 
ATOM      4  C   UNL     1     -19.363  40.658  -9.980  0.00  0.00    +0.000 A 
ATOM      5  C   UNL     1     -18.480  41.638  -9.539  0.00  0.00    +0.000 A 
ATOM      6  C   UNL     1     -18.685  42.246  -8.305  0.00  0.00    +0.000 A 
ATOM      7  C   UNL     1     -19.779  41.842  -7.557  0.00  0.00    +0.000 A 
ATOM      8  C   UNL     1     -20.426  40.325  -9.156  0.00  0.00    +0.000 A 
ATOM      9  H   UNL     1     -19.163  42.827  -5.811  0.00  0.00    +0.000 HD
ATOM     10  H   UNL     1     -20.769  42.167  -5.755  0.00  0.00    +0.000 HD
ENDROOT
BRANCH   4  13
ATOM     11  O   UNL     1     -18.417  39.030 -11.395  0.00  0.00    +0.000 OA
ATOM     12  N   UNL     1     -19.905  40.490 -12.349  0.00  0.00    +0.000 N 
ATOM     13  C   UNL     1     -19.180  40.003 -11.264  0.00  0.00    +0.000 C 
ATOM     14  H   UNL     1     -20.544  41.275 -12.301  0.00  0.00    +0.000 HD
ATOM     15  H   UNL     1     -19.808  40.055 -13.261  0.00  0.00    +0.000 HD
ENDBRANCH   4  13
TORSDOF 1
ENDMDL
MODEL 4
REMARK VINA RESULT:    -5.727      3.569      5.170
REMARK INTER + INTRA:          -5.836
REMARK INTER:                  -5.747
REMARK INTRA:                  -0.089
REMARK UNBOUND:                 0.226
REMARK  Name = 130967266
REMARK  1 active torsions:
REMARK  status: ('A' for Active; 'I' for Inactive)
REMARK    1  A    between atoms: C_6  and  C_11
REMARK                            x       y       z     vdW  Elec       q    Type
REMARK                         _______ _______ _______ _____ _____    ______ ____
ROOT
ATOM      1  F   UNL     1     -19.533  39.024 -11.570  0.00  0.00    +0.000 F 
ATOM      2  N   UNL     1     -18.189  42.017  -9.052  0.00  0.00    +0.000 NA
ATOM      3  N   UNL     1     -19.594  41.166  -7.327  0.00  0.00    +0.000 N 
ATOM      4  C   UNL     1     -18.161  40.925 -11.209  0.00  0.00    +0.000 A 
ATOM      5  C   UNL     1     -19.093  39.997 -10.759  0.00  0.00    +0.000 A 
ATOM      6  C   UNL     1     -19.574  40.078  -9.457  0.00  0.00    +0.000 A 
ATOM      7  C   UNL     1     -19.094  41.098  -8.651  0.00  0.00    +0.000 A 
ATOM      8  C   UNL     1     -17.745  41.907 -10.324  0.00  0.00    +0.000 A 
ATOM      9  H   UNL     1     -20.523  40.808  -7.143  0.00  0.00    +0.000 HD
ATOM     10  H   UNL     1     -19.246  41.917  -6.743  0.00  0.00    +0.000 HD
ENDROOT
BRANCH   4  13
ATOM     11  O   UNL     1     -18.094  41.592 -13.467  0.00  0.00    +0.000 OA
ATOM     12  N   UNL     1     -16.585  39.992 -12.816  0.00  0.00    +0.000 N 
ATOM     13  C   UNL     1     -17.636  40.871 -12.563  0.00  0.00    +0.000 C 
ATOM     14  H   UNL     1     -16.170  39.385 -12.118  0.00  0.00    +0.000 HD
ATOM     15  H   UNL     1     -16.189  39.930 -13.748  0.00  0.00    +0.000 HD
ENDBRANCH   4  13
TORSDOF 1
ENDMDL
MODEL 5
REMARK VINA RESULT:    -5.510      2.916      3.988
REMARK INTER + INTRA:          -5.606
REMARK INTER:                  -5.558
REMARK INTRA:                  -0.048
REMARK UNBOUND:                 0.226
REMARK  Name = 130967266
REMARK  1 active torsions:
REMARK  status: ('A' for Active; 'I' for Inactive)
REMARK    1  A    between atoms: C_6  and  C_11
REMARK                            x       y       z     vdW  Elec       q    Type
REMARK                         _______ _______ _______ _____ _____    ______ ____
ROOT
ATOM      1  F   UNL     1     -18.169  42.674  -8.889  0.00  0.00    +0.000 F 
ATOM      2  N   UNL     1     -18.182  39.899 -11.955  0.00  0.00    +0.000 NA
ATOM      3  N   UNL     1     -16.595  41.227 -13.135  0.00  0.00    +0.000 N 
ATOM      4  C   UNL     1     -18.980  40.638  -9.796  0.00  0.00    +0.000 A 
ATOM      5  C   UNL     1     -18.178  41.771  -9.879  0.00  0.00    +0.000 A 
ATOM      6  C   UNL     1     -17.378  41.969 -10.999  0.00  0.00    +0.000 A 
ATOM      7  C   UNL     1     -17.416  41.011 -12.001  0.00  0.00    +0.000 A 
ATOM      8  C   UNL     1     -18.946  39.740 -10.851  0.00  0.00    +0.000 A 
ATOM      9  H   UNL     1     -16.371  42.181 -13.393  0.00  0.00    +0.000 HD
ATOM     10  H   UNL     1     -16.631  40.529 -13.868  0.00  0.00    +0.000 HD
ENDROOT
BRANCH   4  13
ATOM     11  O   UNL     1     -21.068  40.414  -8.729  0.00  0.00    +0.000 OA
ATOM     12  N   UNL     1     -19.204  40.130  -7.424  0.00  0.00    +0.000 N 
ATOM     13  C   UNL     1     -19.827  40.398  -8.640  0.00  0.00    +0.000 C 
ATOM     14  H   UNL     1     -18.199  40.099  -7.294  0.00  0.00    +0.000 HD
ATOM     15  H   UNL     1     -19.763  39.952  -6.595  0.00  0.00    +0.000 HD
ENDBRANCH   4  13
TORSDOF 1
ENDMDL
