MODEL 1
REMARK VINA RESULT:    -7.064      0.000      0.000
REMARK INTER + INTRA:          -7.730
REMARK INTER:                  -7.683
REMARK INTRA:                  -0.046
REMARK UNBOUND:                -0.046
REMARK  Name = 131012848
REMARK  2 active torsions:
REMARK  status: ('A' for Active; 'I' for Inactive)
REMARK    1  A    between atoms: N_4  and  C_9
REMARK    2  A    between atoms: C_6  and  C_11
REMARK                            x       y       z     vdW  Elec       q    Type
REMARK                         _______ _______ _______ _____ _____    ______ ____
ROOT
ATOM      1  F   UNL     1     -19.980  39.377 -10.013  0.00  0.00    +0.000 F 
ATOM      2  N   UNL     1     -18.754  41.924  -7.729  0.00  0.00    +0.000 NA
ATOM      3  C   UNL     1     -21.145  41.683  -7.462  0.00  0.00    +0.000 A 
ATOM      4  C   UNL     1     -21.163  40.698  -8.442  0.00  0.00    +0.000 A 
ATOM      5  C   UNL     1     -19.978  40.324  -9.067  0.00  0.00    +0.000 A 
ATOM      6  C   UNL     1     -18.811  40.962  -8.678  0.00  0.00    +0.000 A 
ATOM      7  C   UNL     1     -19.926  42.260  -7.145  0.00  0.00    +0.000 A 
ENDROOT
BRANCH   3  10
ATOM      8  O   UNL     1     -23.329  41.318  -6.659  0.00  0.00    +0.000 OA
ATOM      9  N   UNL     1     -22.420  43.388  -6.278  0.00  0.00    +0.000 N 
ATOM     10  C   UNL     1     -22.366  42.094  -6.791  0.00  0.00    +0.000 C 
ATOM     11  H   UNL     1     -21.682  44.078  -6.338  0.00  0.00    +0.000 HD
ATOM     12  H   UNL     1     -23.259  43.699  -5.798  0.00  0.00    +0.000 HD
ENDBRANCH   3  10
BRANCH   6  13
ATOM     13  N   UNL     1     -17.610  40.572  -9.321  0.00  0.00    +0.000 N 
ATOM     14  H   UNL     1     -17.030  39.873  -8.873  0.00  0.00    +0.000 HD
ATOM     15  H   UNL     1     -17.165  41.256  -9.920  0.00  0.00    +0.000 HD
ENDBRANCH   6  13
TORSDOF 2
ENDMDL
MODEL 2
REMARK VINA RESULT:    -6.182      2.925      4.390
REMARK INTER + INTRA:          -6.771
REMARK INTER:                  -6.721
REMARK INTRA:                  -0.049
REMARK UNBOUND:                -0.046
REMARK  Name = 131012848
REMARK  2 active torsions:
REMARK  status: ('A' for Active; 'I' for Inactive)
REMARK    1  A    between atoms: N_4  and  C_9
REMARK    2  A    between atoms: C_6  and  C_11
REMARK                            x       y       z     vdW  Elec       q    Type
REMARK                         _______ _______ _______ _____ _____    ______ ____
ROOT
ATOM      1  F   UNL     1     -22.166  40.568  -7.876  0.00  0.00    +0.000 F 
ATOM      2  N   UNL     1     -18.815  41.973  -7.926  0.00  0.00    +0.000 NA
ATOM      3  C   UNL     1     -19.060  40.405  -9.750  0.00  0.00    +0.000 A 
ATOM      4  C   UNL     1     -20.371  40.150  -9.364  0.00  0.00    +0.000 A 
ATOM      5  C   UNL     1     -20.905  40.805  -8.259  0.00  0.00    +0.000 A 
ATOM      6  C   UNL     1     -20.093  41.699  -7.581  0.00  0.00    +0.000 A 
ATOM      7  C   UNL     1     -18.330  41.317  -9.005  0.00  0.00    +0.000 A 
ENDROOT
BRANCH   3  10
ATOM      8  O   UNL     1     -17.266  39.855 -11.174  0.00  0.00    +0.000 OA
ATOM      9  N   UNL     1     -19.308  38.942 -11.683  0.00  0.00    +0.000 N 
ATOM     10  C   UNL     1     -18.475  39.738 -10.900  0.00  0.00    +0.000 C 
ATOM     11  H   UNL     1     -20.296  38.791 -11.526  0.00  0.00    +0.000 HD
ATOM     12  H   UNL     1     -18.922  38.459 -12.488  0.00  0.00    +0.000 HD
ENDBRANCH   3  10
BRANCH   6  13
ATOM     13  N   UNL     1     -20.649  42.360  -6.457  0.00  0.00    +0.000 N 
ATOM     14  H   UNL     1     -20.207  42.230  -5.556  0.00  0.00    +0.000 HD
ATOM     15  H   UNL     1     -21.642  42.558  -6.484  0.00  0.00    +0.000 HD
ENDBRANCH   6  13
TORSDOF 2
ENDMDL
MODEL 3
REMARK VINA RESULT:    -5.848      2.881      4.578
REMARK INTER + INTRA:          -6.408
REMARK INTER:                  -6.364
REMARK INTRA:                  -0.044
REMARK UNBOUND:                -0.046
REMARK  Name = 131012848
REMARK  2 active torsions:
REMARK  status: ('A' for Active; 'I' for Inactive)
REMARK    1  A    between atoms: N_4  and  C_9
REMARK    2  A    between atoms: C_6  and  C_11
REMARK                            x       y       z     vdW  Elec       q    Type
REMARK                         _______ _______ _______ _____ _____    ______ ____
ROOT
ATOM      1  F   UNL     1     -21.591  40.408  -8.073  0.00  0.00    +0.000 F 
ATOM      2  N   UNL     1     -18.368  41.962  -8.709  0.00  0.00    +0.000 NA
ATOM      3  C   UNL     1     -18.873  40.395 -10.480  0.00  0.00    +0.000 A 
ATOM      4  C   UNL     1     -20.079  40.079  -9.867  0.00  0.00    +0.000 A 
ATOM      5  C   UNL     1     -20.432  40.703  -8.675  0.00  0.00    +0.000 A 
ATOM      6  C   UNL     1     -19.550  41.629  -8.142  0.00  0.00    +0.000 A 
ATOM      7  C   UNL     1     -18.060  41.335  -9.867  0.00  0.00    +0.000 A 
ENDROOT
BRANCH   3  10
ATOM      8  O   UNL     1     -19.300  39.537 -12.632  0.00  0.00    +0.000 OA
ATOM      9  N   UNL     1     -17.134  39.427 -11.886  0.00  0.00    +0.000 N 
ATOM     10  C   UNL     1     -18.477  39.762 -11.726  0.00  0.00    +0.000 C 
ATOM     11  H   UNL     1     -16.404  39.579 -11.203  0.00  0.00    +0.000 HD
ATOM     12  H   UNL     1     -16.830  38.989 -12.750  0.00  0.00    +0.000 HD
ENDBRANCH   3  10
BRANCH   6  13
ATOM     13  N   UNL     1     -19.921  42.258  -6.928  0.00  0.00    +0.000 N 
ATOM     14  H   UNL     1     -20.667  41.847  -6.382  0.00  0.00    +0.000 HD
ATOM     15  H   UNL     1     -19.768  43.257  -6.862  0.00  0.00    +0.000 HD
ENDBRANCH   6  13
TORSDOF 2
ENDMDL
MODEL 4
REMARK VINA RESULT:    -5.555      2.845      4.554
REMARK INTER + INTRA:          -6.088
REMARK INTER:                  -6.039
REMARK INTRA:                  -0.049
REMARK UNBOUND:                -0.046
REMARK  Name = 131012848
REMARK  2 active torsions:
REMARK  status: ('A' for Active; 'I' for Inactive)
REMARK    1  A    between atoms: N_4  and  C_9
REMARK    2  A    between atoms: C_6  and  C_11
REMARK                            x       y       z     vdW  Elec       q    Type
REMARK                         _______ _______ _______ _____ _____    ______ ____
ROOT
ATOM      1  F   UNL     1     -19.805  42.853  -6.307  0.00  0.00    +0.000 F 
ATOM      2  N   UNL     1     -21.670  40.456  -8.303  0.00  0.00    +0.000 NA
ATOM      3  C   UNL     1     -19.396  40.586  -9.114  0.00  0.00    +0.000 A 
ATOM      4  C   UNL     1     -19.096  41.532  -8.141  0.00  0.00    +0.000 A 
ATOM      5  C   UNL     1     -20.080  41.942  -7.249  0.00  0.00    +0.000 A 
ATOM      6  C   UNL     1     -21.340  41.379  -7.370  0.00  0.00    +0.000 A 
ATOM      7  C   UNL     1     -20.687  40.083  -9.153  0.00  0.00    +0.000 A 
ENDROOT
BRANCH   3  10
ATOM      8  O   UNL     1     -18.652  39.301 -10.943  0.00  0.00    +0.000 OA
ATOM      9  N   UNL     1     -17.114  40.690  -9.961  0.00  0.00    +0.000 N 
ATOM     10  C   UNL     1     -18.389  40.138 -10.060  0.00  0.00    +0.000 C 
ATOM     11  H   UNL     1     -16.820  41.376  -9.277  0.00  0.00    +0.000 HD
ATOM     12  H   UNL     1     -16.393  40.399 -10.613  0.00  0.00    +0.000 HD
ENDBRANCH   3  10
BRANCH   6  13
ATOM     13  N   UNL     1     -22.335  41.803  -6.455  0.00  0.00    +0.000 N 
ATOM     14  H   UNL     1     -22.935  41.102  -6.038  0.00  0.00    +0.000 HD
ATOM     15  H   UNL     1     -22.698  42.741  -6.571  0.00  0.00    +0.000 HD
ENDBRANCH   6  13
TORSDOF 2
ENDMDL
MODEL 5
REMARK VINA RESULT:    -5.431      3.806      5.500
REMARK INTER + INTRA:          -5.954
REMARK INTER:                  -5.911
REMARK INTRA:                  -0.043
REMARK UNBOUND:                -0.046
REMARK  Name = 131012848
REMARK  2 active torsions:
REMARK  status: ('A' for Active; 'I' for Inactive)
REMARK    1  A    between atoms: N_4  and  C_9
REMARK    2  A    between atoms: C_6  and  C_11
REMARK                            x       y       z     vdW  Elec       q    Type
REMARK                         _______ _______ _______ _____ _____    ______ ____
ROOT
ATOM      1  F   UNL     1     -19.420  41.800  -7.738  0.00  0.00    +0.000 F 
ATOM      2  N   UNL     1     -19.578  39.457 -10.511  0.00  0.00    +0.000 NA
ATOM      3  C   UNL     1     -17.507  40.701 -10.622  0.00  0.00    +0.000 A 
ATOM      4  C   UNL     1     -17.859  41.402  -9.475  0.00  0.00    +0.000 A 
ATOM      5  C   UNL     1     -19.069  41.132  -8.844  0.00  0.00    +0.000 A 
ATOM      6  C   UNL     1     -19.885  40.160  -9.397  0.00  0.00    +0.000 A 
ATOM      7  C   UNL     1     -18.393  39.747 -11.096  0.00  0.00    +0.000 A 
ENDROOT
BRANCH   3  10
ATOM      8  O   UNL     1     -15.853  42.119 -11.517  0.00  0.00    +0.000 OA
ATOM      9  N   UNL     1     -15.486  39.862 -11.692  0.00  0.00    +0.000 N 
ATOM     10  C   UNL     1     -16.250  40.959 -11.302  0.00  0.00    +0.000 C 
ATOM     11  H   UNL     1     -15.734  38.891 -11.551  0.00  0.00    +0.000 HD
ATOM     12  H   UNL     1     -14.600  40.014 -12.164  0.00  0.00    +0.000 HD
ENDBRANCH   3  10
BRANCH   6  13
ATOM     13  N   UNL     1     -21.115  39.893  -8.746  0.00  0.00    +0.000 N 
ATOM     14  H   UNL     1     -21.910  40.482  -8.961  0.00  0.00    +0.000 HD
ATOM     15  H   UNL     1     -21.067  39.461  -7.831  0.00  0.00    +0.000 HD
ENDBRANCH   6  13
TORSDOF 2
ENDMDL
