MODEL 1
REMARK VINA RESULT:    -5.309      0.000      0.000
REMARK INTER + INTRA:          -6.193
REMARK INTER:                  -6.240
REMARK INTRA:                   0.047
REMARK UNBOUND:                 0.047
REMARK  Name = 13131590
REMARK  9 active torsions:
REMARK  status: ('A' for Active; 'I' for Inactive)
REMARK    1  A    between atoms: SI_1  and  N_4
REMARK    2  A    between atoms: SI_1  and  C_7
REMARK    3  A    between atoms: SI_1  and  C_8
REMARK    4  A    between atoms: SI_1  and  C_9
REMARK    5  A    between atoms: SI_2  and  N_5
REMARK    6  A    between atoms: SI_2  and  C_10
REMARK    7  A    between atoms: SI_2  and  C_11
REMARK    8  A    between atoms: SI_2  and  C_12
REMARK    9  A    between atoms: C_14  and  C_15
REMARK                            x       y       z     vdW  Elec       q    Type
REMARK                         _______ _______ _______ _____ _____    ______ ____
ROOT
ATOM      1  N   UNL     1     -19.097  41.410 -12.222  0.00  0.00    +0.000 N 
ATOM      2  N   UNL     1     -19.920  42.319 -14.266  0.00  0.00    +0.000 NA
ATOM      3  C   UNL     1     -19.072  42.419 -13.217  0.00  0.00    +0.000 A 
ATOM      4  C   UNL     1     -18.989  44.361 -15.083  0.00  0.00    +0.000 A 
ATOM      5  C   UNL     1     -18.169  43.455 -13.047  0.00  0.00    +0.000 A 
ATOM      6  C   UNL     1     -18.132  44.453 -14.014  0.00  0.00    +0.000 A 
ATOM      7  C   UNL     1     -19.855  43.307 -15.186  0.00  0.00    +0.000 A 
ATOM      8  H   UNL     1     -19.801  40.716 -12.471  0.00  0.00    +0.000 HD
ENDROOT
BRANCH   1   9
ATOM      9 SI   UNL     1     -18.278  41.089 -10.778  0.00  0.00    +0.000 Si
ATOM     10  C   UNL     1     -16.730  40.143 -11.218  0.00  0.00    +0.000 C 
ATOM     11  C   UNL     1     -17.831  42.703  -9.970  0.00  0.00    +0.000 C 
ATOM     12  C   UNL     1     -19.371  40.055  -9.686  0.00  0.00    +0.000 C 
ENDBRANCH   1   9
BRANCH   4  15
ATOM     13  O   UNL     1     -19.302  46.554 -15.825  0.00  0.00    +0.000 OA
ATOM     14  N   UNL     1     -18.596  44.976 -17.394  0.00  0.00    +0.000 N 
ATOM     15  C   UNL     1     -18.973  45.412 -16.134  0.00  0.00    +0.000 C 
ATOM     16  H   UNL     1     -18.405  44.001 -17.599  0.00  0.00    +0.000 HD
BRANCH  14  17
ATOM     17 SI   UNL     1     -18.506  46.044 -18.794  0.00  0.00    +0.000 Si
ATOM     18  C   UNL     1     -17.902  45.052 -20.264  0.00  0.00    +0.000 C 
ATOM     19  C   UNL     1     -20.202  46.737 -19.168  0.00  0.00    +0.000 C 
ATOM     20  C   UNL     1     -17.305  47.435 -18.449  0.00  0.00    +0.000 C 
ENDBRANCH  14  17
ENDBRANCH   4  15
TORSDOF 3
ENDMDL
MODEL 2
REMARK VINA RESULT:    -5.264      1.335      2.275
REMARK INTER + INTRA:          -6.140
REMARK INTER:                  -6.194
REMARK INTRA:                   0.053
REMARK UNBOUND:                 0.047
REMARK  Name = 13131590
REMARK  9 active torsions:
REMARK  status: ('A' for Active; 'I' for Inactive)
REMARK    1  A    between atoms: SI_1  and  N_4
REMARK    2  A    between atoms: SI_1  and  C_7
REMARK    3  A    between atoms: SI_1  and  C_8
REMARK    4  A    between atoms: SI_1  and  C_9
REMARK    5  A    between atoms: SI_2  and  N_5
REMARK    6  A    between atoms: SI_2  and  C_10
REMARK    7  A    between atoms: SI_2  and  C_11
REMARK    8  A    between atoms: SI_2  and  C_12
REMARK    9  A    between atoms: C_14  and  C_15
REMARK                            x       y       z     vdW  Elec       q    Type
REMARK                         _______ _______ _______ _____ _____    ______ ____
ROOT
ATOM      1  N   UNL     1     -19.040  41.370 -12.363  0.00  0.00    +0.000 N 
ATOM      2  N   UNL     1     -19.961  42.286 -14.361  0.00  0.00    +0.000 NA
ATOM      3  C   UNL     1     -19.093  42.404 -13.330  0.00  0.00    +0.000 A 
ATOM      4  C   UNL     1     -19.161  44.396 -15.143  0.00  0.00    +0.000 A 
ATOM      5  C   UNL     1     -18.243  43.483 -13.152  0.00  0.00    +0.000 A 
ATOM      6  C   UNL     1     -18.285  44.507 -14.092  0.00  0.00    +0.000 A 
ATOM      7  C   UNL     1     -19.972  43.300 -15.255  0.00  0.00    +0.000 A 
ATOM      8  H   UNL     1     -19.711  40.645 -12.614  0.00  0.00    +0.000 HD
ENDROOT
BRANCH   1   9
ATOM      9 SI   UNL     1     -18.169  41.056 -10.948  0.00  0.00    +0.000 Si
ATOM     10  C   UNL     1     -19.265  40.028  -9.840  0.00  0.00    +0.000 C 
ATOM     11  C   UNL     1     -16.633  40.103 -11.387  0.00  0.00    +0.000 C 
ATOM     12  C   UNL     1     -17.761  42.672 -10.124  0.00  0.00    +0.000 C 
ENDBRANCH   1   9
BRANCH   4  15
ATOM     13  O   UNL     1     -18.176  45.959 -16.573  0.00  0.00    +0.000 OA
ATOM     14  N   UNL     1     -20.507  45.839 -16.550  0.00  0.00    +0.000 N 
ATOM     15  C   UNL     1     -19.228  45.473 -16.165  0.00  0.00    +0.000 C 
ATOM     16  H   UNL     1     -21.339  45.446 -16.122  0.00  0.00    +0.000 HD
BRANCH  14  17
ATOM     17 SI   UNL     1     -20.830  47.093 -17.748  0.00  0.00    +0.000 Si
ATOM     18  C   UNL     1     -22.683  47.231 -17.983  0.00  0.00    +0.000 C 
ATOM     19  C   UNL     1     -20.158  48.730 -17.142  0.00  0.00    +0.000 C 
ATOM     20  C   UNL     1     -20.030  46.632 -19.373  0.00  0.00    +0.000 C 
ENDBRANCH  14  17
ENDBRANCH   4  15
TORSDOF 3
ENDMDL
MODEL 3
REMARK VINA RESULT:    -4.781      4.107      5.125
REMARK INTER + INTRA:          -5.573
REMARK INTER:                  -5.492
REMARK INTRA:                  -0.081
REMARK UNBOUND:                 0.047
REMARK  Name = 13131590
REMARK  9 active torsions:
REMARK  status: ('A' for Active; 'I' for Inactive)
REMARK    1  A    between atoms: SI_1  and  N_4
REMARK    2  A    between atoms: SI_1  and  C_7
REMARK    3  A    between atoms: SI_1  and  C_8
REMARK    4  A    between atoms: SI_1  and  C_9
REMARK    5  A    between atoms: SI_2  and  N_5
REMARK    6  A    between atoms: SI_2  and  C_10
REMARK    7  A    between atoms: SI_2  and  C_11
REMARK    8  A    between atoms: SI_2  and  C_12
REMARK    9  A    between atoms: C_14  and  C_15
REMARK                            x       y       z     vdW  Elec       q    Type
REMARK                         _______ _______ _______ _____ _____    ______ ____
ROOT
ATOM      1  N   UNL     1     -18.623  41.643 -12.280  0.00  0.00    +0.000 N 
ATOM      2  N   UNL     1     -18.921  43.800 -13.247  0.00  0.00    +0.000 NA
ATOM      3  C   UNL     1     -18.361  43.035 -12.282  0.00  0.00    +0.000 A 
ATOM      4  C   UNL     1     -17.837  45.678 -12.245  0.00  0.00    +0.000 A 
ATOM      5  C   UNL     1     -17.540  43.528 -11.282  0.00  0.00    +0.000 A 
ATOM      6  C   UNL     1     -17.274  44.893 -11.270  0.00  0.00    +0.000 A 
ATOM      7  C   UNL     1     -18.639  45.122 -13.204  0.00  0.00    +0.000 A 
ATOM      8  H   UNL     1     -19.236  41.419 -13.063  0.00  0.00    +0.000 HD
ENDROOT
BRANCH   1   9
ATOM      9 SI   UNL     1     -18.186  40.313 -11.331  0.00  0.00    +0.000 Si
ATOM     10  C   UNL     1     -19.397  38.943 -11.707  0.00  0.00    +0.000 C 
ATOM     11  C   UNL     1     -16.463  39.787 -11.793  0.00  0.00    +0.000 C 
ATOM     12  C   UNL     1     -18.300  40.793  -9.539  0.00  0.00    +0.000 C 
ENDBRANCH   1   9
BRANCH   4  15
ATOM     13  O   UNL     1     -16.806  47.587 -13.113  0.00  0.00    +0.000 OA
ATOM     14  N   UNL     1     -18.217  47.866 -11.274  0.00  0.00    +0.000 N 
ATOM     15  C   UNL     1     -17.570  47.140 -12.261  0.00  0.00    +0.000 C 
ATOM     16  H   UNL     1     -18.781  47.426 -10.555  0.00  0.00    +0.000 HD
BRANCH  14  17
ATOM     17 SI   UNL     1     -18.050  49.613 -11.099  0.00  0.00    +0.000 Si
ATOM     18  C   UNL     1     -18.664  50.431 -12.669  0.00  0.00    +0.000 C 
ATOM     19  C   UNL     1     -19.076  50.201  -9.651  0.00  0.00    +0.000 C 
ATOM     20  C   UNL     1     -16.252  50.050 -10.834  0.00  0.00    +0.000 C 
ENDBRANCH  14  17
ENDBRANCH   4  15
TORSDOF 3
ENDMDL
MODEL 4
REMARK VINA RESULT:    -4.531      6.083      7.270
REMARK INTER + INTRA:          -5.279
REMARK INTER:                  -5.053
REMARK INTRA:                  -0.226
REMARK UNBOUND:                 0.047
REMARK  Name = 13131590
REMARK  9 active torsions:
REMARK  status: ('A' for Active; 'I' for Inactive)
REMARK    1  A    between atoms: SI_1  and  N_4
REMARK    2  A    between atoms: SI_1  and  C_7
REMARK    3  A    between atoms: SI_1  and  C_8
REMARK    4  A    between atoms: SI_1  and  C_9
REMARK    5  A    between atoms: SI_2  and  N_5
REMARK    6  A    between atoms: SI_2  and  C_10
REMARK    7  A    between atoms: SI_2  and  C_11
REMARK    8  A    between atoms: SI_2  and  C_12
REMARK    9  A    between atoms: C_14  and  C_15
REMARK                            x       y       z     vdW  Elec       q    Type
REMARK                         _______ _______ _______ _____ _____    ______ ____
ROOT
ATOM      1  N   UNL     1     -17.163  42.646 -12.051  0.00  0.00    +0.000 N 
ATOM      2  N   UNL     1     -15.738  44.549 -12.220  0.00  0.00    +0.000 NA
ATOM      3  C   UNL     1     -15.901  43.258 -11.851  0.00  0.00    +0.000 A 
ATOM      4  C   UNL     1     -13.484  44.380 -11.449  0.00  0.00    +0.000 A 
ATOM      5  C   UNL     1     -14.903  42.484 -11.282  0.00  0.00    +0.000 A 
ATOM      6  C   UNL     1     -13.659  43.070 -11.077  0.00  0.00    +0.000 A 
ATOM      7  C   UNL     1     -14.515  45.085 -12.008  0.00  0.00    +0.000 A 
ATOM      8  H   UNL     1     -17.797  43.323 -12.474  0.00  0.00    +0.000 HD
ENDROOT
BRANCH   1   9
ATOM      9 SI   UNL     1     -17.849  41.127 -11.770  0.00  0.00    +0.000 Si
ATOM     10  C   UNL     1     -19.600  41.182 -12.413  0.00  0.00    +0.000 C 
ATOM     11  C   UNL     1     -16.869  39.846 -12.696  0.00  0.00    +0.000 C 
ATOM     12  C   UNL     1     -17.849  40.798  -9.940  0.00  0.00    +0.000 C 
ENDBRANCH   1   9
BRANCH   4  15
ATOM     13  O   UNL     1     -11.643  44.968 -10.136  0.00  0.00    +0.000 OA
ATOM     14  N   UNL     1     -11.656  45.687 -12.357  0.00  0.00    +0.000 N 
ATOM     15  C   UNL     1     -12.165  45.035 -11.246  0.00  0.00    +0.000 C 
ATOM     16  H   UNL     1     -12.172  45.766 -13.227  0.00  0.00    +0.000 HD
BRANCH  14  17
ATOM     17 SI   UNL     1     -10.109  46.534 -12.350  0.00  0.00    +0.000 Si
ATOM     18  C   UNL     1      -8.762  45.311 -11.900  0.00  0.00    +0.000 C 
ATOM     19  C   UNL     1      -9.768  47.235 -14.050  0.00  0.00    +0.000 C 
ATOM     20  C   UNL     1     -10.148  47.907 -11.083  0.00  0.00    +0.000 C 
ENDBRANCH  14  17
ENDBRANCH   4  15
TORSDOF 3
ENDMDL
MODEL 5
REMARK VINA RESULT:    -4.475     22.067     24.861
REMARK INTER + INTRA:          -5.214
REMARK INTER:                  -4.981
REMARK INTRA:                  -0.233
REMARK UNBOUND:                 0.047
REMARK  Name = 13131590
REMARK  9 active torsions:
REMARK  status: ('A' for Active; 'I' for Inactive)
REMARK    1  A    between atoms: SI_1  and  N_4
REMARK    2  A    between atoms: SI_1  and  C_7
REMARK    3  A    between atoms: SI_1  and  C_8
REMARK    4  A    between atoms: SI_1  and  C_9
REMARK    5  A    between atoms: SI_2  and  N_5
REMARK    6  A    between atoms: SI_2  and  C_10
REMARK    7  A    between atoms: SI_2  and  C_11
REMARK    8  A    between atoms: SI_2  and  C_12
REMARK    9  A    between atoms: C_14  and  C_15
REMARK                            x       y       z     vdW  Elec       q    Type
REMARK                         _______ _______ _______ _____ _____    ______ ____
ROOT
ATOM      1  N   UNL     1     -34.401  44.079   5.028  0.00  0.00    +0.000 N 
ATOM      2  N   UNL     1     -32.635  43.112   3.754  0.00  0.00    +0.000 NA
ATOM      3  C   UNL     1     -33.392  43.096   4.875  0.00  0.00    +0.000 A 
ATOM      4  C   UNL     1     -31.485  41.209   4.628  0.00  0.00    +0.000 A 
ATOM      5  C   UNL     1     -33.246  42.172   5.896  0.00  0.00    +0.000 A 
ATOM      6  C   UNL     1     -32.260  41.202   5.762  0.00  0.00    +0.000 A 
ATOM      7  C   UNL     1     -31.687  42.152   3.658  0.00  0.00    +0.000 A 
ATOM      8  H   UNL     1     -34.399  44.688   4.211  0.00  0.00    +0.000 HD
ENDROOT
BRANCH   1   9
ATOM      9 SI   UNL     1     -35.563  44.475   6.191  0.00  0.00    +0.000 Si
ATOM     10  C   UNL     1     -36.490  45.968   5.562  0.00  0.00    +0.000 C 
ATOM     11  C   UNL     1     -36.727  43.038   6.391  0.00  0.00    +0.000 C 
ATOM     12  C   UNL     1     -34.699  44.884   7.786  0.00  0.00    +0.000 C 
ENDBRANCH   1   9
BRANCH   4  15
ATOM     13  O   UNL     1     -29.275  40.561   4.233  0.00  0.00    +0.000 OA
ATOM     14  N   UNL     1     -30.855  38.870   4.541  0.00  0.00    +0.000 N 
ATOM     15  C   UNL     1     -30.423  40.183   4.453  0.00  0.00    +0.000 C 
ATOM     16  H   UNL     1     -31.832  38.624   4.654  0.00  0.00    +0.000 HD
BRANCH  14  17
ATOM     17 SI   UNL     1     -29.773  37.488   4.365  0.00  0.00    +0.000 Si
ATOM     18  C   UNL     1     -30.793  35.919   4.444  0.00  0.00    +0.000 C 
ATOM     19  C   UNL     1     -28.899  37.579   2.714  0.00  0.00    +0.000 C 
ATOM     20  C   UNL     1     -28.523  37.487   5.755  0.00  0.00    +0.000 C 
ENDBRANCH  14  17
ENDBRANCH   4  15
TORSDOF 3
ENDMDL
