MODEL 1
REMARK VINA RESULT:    -5.479      0.000      0.000
REMARK INTER + INTRA:          -5.894
REMARK INTER:                  -5.799
REMARK INTRA:                  -0.095
REMARK UNBOUND:                -0.095
REMARK  Name = 131967585
REMARK  3 active torsions:
REMARK  status: ('A' for Active; 'I' for Inactive)
REMARK    1  A    between atoms: N_3  and  C_12
REMARK    2  A    between atoms: C_5  and  C_8
REMARK    3  A    between atoms: C_6  and  C_9
REMARK                            x       y       z     vdW  Elec       q    Type
REMARK                         _______ _______ _______ _____ _____    ______ ____
ROOT
ATOM      1  N   UNL     1     -19.482  39.785 -10.047  0.00  0.00    +0.000 NA
ATOM      2  N   UNL     1     -19.201  40.105  -7.704  0.00  0.00    +0.000 N 
ATOM      3  C   UNL     1     -18.125  42.183 -10.520  0.00  0.00    +0.000 A 
ATOM      4  C   UNL     1     -18.602  41.429 -11.585  0.00  0.00    +0.000 A 
ATOM      5  C   UNL     1     -18.326  41.738  -9.217  0.00  0.00    +0.000 A 
ATOM      6  C   UNL     1     -17.398  43.467 -10.745  0.00  0.00    +0.000 C 
ATOM      7  C   UNL     1     -19.268  40.248 -11.300  0.00  0.00    +0.000 A 
ATOM      8  C   UNL     1     -19.005  40.544  -9.036  0.00  0.00    +0.000 A 
ATOM      9  H   UNL     1     -18.528  40.383  -7.000  0.00  0.00    +0.000 HD
ATOM     10  H   UNL     1     -19.692  39.228  -7.577  0.00  0.00    +0.000 HD
ENDROOT
BRANCH   4  13
ATOM     11  O   UNL     1     -17.388  41.536 -13.588  0.00  0.00    +0.000 OA
ATOM     12  N   UNL     1     -19.464  42.570 -13.556  0.00  0.00    +0.000 N 
ATOM     13  C   UNL     1     -18.422  41.843 -12.969  0.00  0.00    +0.000 C 
ATOM     14  C   UNL     1     -19.443  43.030 -14.925  0.00  0.00    +0.000 C 
ATOM     15  H   UNL     1     -20.272  42.813 -12.990  0.00  0.00    +0.000 HD
ENDBRANCH   4  13
TORSDOF 1
ENDMDL
MODEL 2
REMARK VINA RESULT:    -5.464      1.662      4.385
REMARK INTER + INTRA:          -5.877
REMARK INTER:                  -5.808
REMARK INTRA:                  -0.070
REMARK UNBOUND:                -0.095
REMARK  Name = 131967585
REMARK  3 active torsions:
REMARK  status: ('A' for Active; 'I' for Inactive)
REMARK    1  A    between atoms: N_3  and  C_12
REMARK    2  A    between atoms: C_5  and  C_8
REMARK    3  A    between atoms: C_6  and  C_9
REMARK                            x       y       z     vdW  Elec       q    Type
REMARK                         _______ _______ _______ _____ _____    ______ ____
ROOT
ATOM      1  N   UNL     1     -19.457  42.237 -14.068  0.00  0.00    +0.000 NA
ATOM      2  N   UNL     1     -18.428  44.244 -14.834  0.00  0.00    +0.000 N 
ATOM      3  C   UNL     1     -18.143  42.517 -11.618  0.00  0.00    +0.000 A 
ATOM      4  C   UNL     1     -18.986  41.435 -11.837  0.00  0.00    +0.000 A 
ATOM      5  C   UNL     1     -17.955  43.460 -12.623  0.00  0.00    +0.000 A 
ATOM      6  C   UNL     1     -17.429  42.690 -10.318  0.00  0.00    +0.000 C 
ATOM      7  C   UNL     1     -19.615  41.341 -13.068  0.00  0.00    +0.000 A 
ATOM      8  C   UNL     1     -18.629  43.275 -13.819  0.00  0.00    +0.000 A 
ATOM      9  H   UNL     1     -18.196  45.191 -14.557  0.00  0.00    +0.000 HD
ATOM     10  H   UNL     1     -18.927  44.108 -15.704  0.00  0.00    +0.000 HD
ENDROOT
BRANCH   4  13
ATOM     11  O   UNL     1     -18.545  39.375 -10.808  0.00  0.00    +0.000 OA
ATOM     12  N   UNL     1     -20.213  40.687  -9.872  0.00  0.00    +0.000 N 
ATOM     13  C   UNL     1     -19.221  40.419 -10.823  0.00  0.00    +0.000 C 
ATOM     14  C   UNL     1     -20.546  39.788  -8.791  0.00  0.00    +0.000 C 
ATOM     15  H   UNL     1     -20.750  41.545  -9.952  0.00  0.00    +0.000 HD
ENDBRANCH   4  13
TORSDOF 1
ENDMDL
MODEL 3
REMARK VINA RESULT:    -5.230      2.591      3.709
REMARK INTER + INTRA:          -5.630
REMARK INTER:                  -5.570
REMARK INTRA:                  -0.060
REMARK UNBOUND:                -0.095
REMARK  Name = 131967585
REMARK  3 active torsions:
REMARK  status: ('A' for Active; 'I' for Inactive)
REMARK    1  A    between atoms: N_3  and  C_12
REMARK    2  A    between atoms: C_5  and  C_8
REMARK    3  A    between atoms: C_6  and  C_9
REMARK                            x       y       z     vdW  Elec       q    Type
REMARK                         _______ _______ _______ _____ _____    ______ ____
ROOT
ATOM      1  N   UNL     1     -17.994  40.133 -13.148  0.00  0.00    +0.000 NA
ATOM      2  N   UNL     1     -19.954  39.007 -12.396  0.00  0.00    +0.000 N 
ATOM      3  C   UNL     1     -17.965  41.625 -10.785  0.00  0.00    +0.000 A 
ATOM      4  C   UNL     1     -16.984  41.825 -11.748  0.00  0.00    +0.000 A 
ATOM      5  C   UNL     1     -18.962  40.680 -11.002  0.00  0.00    +0.000 A 
ATOM      6  C   UNL     1     -17.973  42.409  -9.514  0.00  0.00    +0.000 C 
ATOM      7  C   UNL     1     -17.041  41.061 -12.902  0.00  0.00    +0.000 A 
ATOM      8  C   UNL     1     -18.932  39.967 -12.190  0.00  0.00    +0.000 A 
ATOM      9  H   UNL     1     -20.374  38.568 -11.586  0.00  0.00    +0.000 HD
ATOM     10  H   UNL     1     -19.924  38.485 -13.263  0.00  0.00    +0.000 HD
ENDROOT
BRANCH   4  13
ATOM     11  O   UNL     1     -16.126  44.007 -11.783  0.00  0.00    +0.000 OA
ATOM     12  N   UNL     1     -14.675  42.313 -11.150  0.00  0.00    +0.000 N 
ATOM     13  C   UNL     1     -15.916  42.799 -11.575  0.00  0.00    +0.000 C 
ATOM     14  C   UNL     1     -13.526  43.156 -10.911  0.00  0.00    +0.000 C 
ATOM     15  H   UNL     1     -14.557  41.312 -11.022  0.00  0.00    +0.000 HD
ENDBRANCH   4  13
TORSDOF 1
ENDMDL
MODEL 4
REMARK VINA RESULT:    -5.198      1.281      2.071
REMARK INTER + INTRA:          -5.596
REMARK INTER:                  -5.514
REMARK INTRA:                  -0.083
REMARK UNBOUND:                -0.095
REMARK  Name = 131967585
REMARK  3 active torsions:
REMARK  status: ('A' for Active; 'I' for Inactive)
REMARK    1  A    between atoms: N_3  and  C_12
REMARK    2  A    between atoms: C_5  and  C_8
REMARK    3  A    between atoms: C_6  and  C_9
REMARK                            x       y       z     vdW  Elec       q    Type
REMARK                         _______ _______ _______ _____ _____    ______ ____
ROOT
ATOM      1  N   UNL     1     -18.169  42.061  -8.786  0.00  0.00    +0.000 NA
ATOM      2  N   UNL     1     -19.217  40.282  -7.598  0.00  0.00    +0.000 N 
ATOM      3  C   UNL     1     -18.907  40.861 -11.200  0.00  0.00    +0.000 A 
ATOM      4  C   UNL     1     -18.195  42.054 -11.203  0.00  0.00    +0.000 A 
ATOM      5  C   UNL     1     -19.249  40.266  -9.990  0.00  0.00    +0.000 A 
ATOM      6  C   UNL     1     -19.313  40.199 -12.476  0.00  0.00    +0.000 C 
ATOM      7  C   UNL     1     -17.853  42.610  -9.981  0.00  0.00    +0.000 A 
ATOM      8  C   UNL     1     -18.860  40.901  -8.822  0.00  0.00    +0.000 A 
ATOM      9  H   UNL     1     -20.049  39.705  -7.574  0.00  0.00    +0.000 HD
ATOM     10  H   UNL     1     -18.935  40.753  -6.747  0.00  0.00    +0.000 HD
ENDROOT
BRANCH   4  13
ATOM     11  O   UNL     1     -16.772  42.390 -13.036  0.00  0.00    +0.000 OA
ATOM     12  N   UNL     1     -18.666  43.722 -12.913  0.00  0.00    +0.000 N 
ATOM     13  C   UNL     1     -17.810  42.723 -12.437  0.00  0.00    +0.000 C 
ATOM     14  C   UNL     1     -18.433  44.459 -14.134  0.00  0.00    +0.000 C 
ATOM     15  H   UNL     1     -19.486  43.968 -12.365  0.00  0.00    +0.000 HD
ENDBRANCH   4  13
TORSDOF 1
ENDMDL
MODEL 5
REMARK VINA RESULT:    -5.181      2.260      3.236
REMARK INTER + INTRA:          -5.579
REMARK INTER:                  -5.504
REMARK INTRA:                  -0.075
REMARK UNBOUND:                -0.095
REMARK  Name = 131967585
REMARK  3 active torsions:
REMARK  status: ('A' for Active; 'I' for Inactive)
REMARK    1  A    between atoms: N_3  and  C_12
REMARK    2  A    between atoms: C_5  and  C_8
REMARK    3  A    between atoms: C_6  and  C_9
REMARK                            x       y       z     vdW  Elec       q    Type
REMARK                         _______ _______ _______ _____ _____    ______ ____
ROOT
ATOM      1  N   UNL     1     -19.119  41.492  -9.042  0.00  0.00    +0.000 NA
ATOM      2  N   UNL     1     -20.654  39.671  -9.047  0.00  0.00    +0.000 N 
ATOM      3  C   UNL     1     -18.006  40.537 -11.422  0.00  0.00    +0.000 A 
ATOM      4  C   UNL     1     -17.505  41.691 -10.831  0.00  0.00    +0.000 A 
ATOM      5  C   UNL     1     -19.062  39.859 -10.823  0.00  0.00    +0.000 A 
ATOM      6  C   UNL     1     -17.429  40.006 -12.693  0.00  0.00    +0.000 C 
ATOM      7  C   UNL     1     -18.091  42.124  -9.652  0.00  0.00    +0.000 A 
ATOM      8  C   UNL     1     -19.578  40.373  -9.644  0.00  0.00    +0.000 A 
ATOM      9  H   UNL     1     -21.272  39.135  -9.645  0.00  0.00    +0.000 HD
ATOM     10  H   UNL     1     -21.032  40.053  -8.189  0.00  0.00    +0.000 HD
ENDROOT
BRANCH   4  13
ATOM     11  O   UNL     1     -16.607  43.252 -12.333  0.00  0.00    +0.000 OA
ATOM     12  N   UNL     1     -15.131  42.225 -10.869  0.00  0.00    +0.000 N 
ATOM     13  C   UNL     1     -16.402  42.442 -11.411  0.00  0.00    +0.000 C 
ATOM     14  C   UNL     1     -13.942  42.911 -11.321  0.00  0.00    +0.000 C 
ATOM     15  H   UNL     1     -15.022  41.531 -10.134  0.00  0.00    +0.000 HD
ENDBRANCH   4  13
TORSDOF 1
ENDMDL
