MODEL 1
REMARK VINA RESULT:    -5.811      0.000      0.000
REMARK INTER + INTRA:          -6.654
REMARK INTER:                  -6.490
REMARK INTRA:                  -0.164
REMARK UNBOUND:                -0.164
REMARK  Name = 132243552
REMARK  5 active torsions:
REMARK  status: ('A' for Active; 'I' for Inactive)
REMARK    1  A    between atoms: N_5  and  C_16
REMARK    2  A    between atoms: C_6  and  C_7
REMARK    3  A    between atoms: C_6  and  C_8
REMARK    4  A    between atoms: C_6  and  C_9
REMARK    5  A    between atoms: C_12  and  C_15
REMARK                            x       y       z     vdW  Elec       q    Type
REMARK                         _______ _______ _______ _____ _____    ______ ____
ROOT
ATOM      1  O   UNL     1     -20.614  42.782 -15.978  0.00  0.00    +0.000 OA
ATOM      2  N   UNL     1     -18.896  43.926 -14.862  0.00  0.00    +0.000 N 
ATOM      3  N   UNL     1     -17.813  43.581 -12.772  0.00  0.00    +0.000 NA
ATOM      4  C   UNL     1     -19.788  43.688 -15.903  0.00  0.00    +0.000 C 
ATOM      5  C   UNL     1     -18.746  43.183 -13.667  0.00  0.00    +0.000 A 
ATOM      6  C   UNL     1     -19.572  42.085 -13.489  0.00  0.00    +0.000 A 
ATOM      7  C   UNL     1     -18.484  41.728 -11.373  0.00  0.00    +0.000 A 
ATOM      8  C   UNL     1     -19.433  41.348 -12.317  0.00  0.00    +0.000 A 
ATOM      9  C   UNL     1     -17.707  42.841 -11.646  0.00  0.00    +0.000 A 
ATOM     10  H   UNL     1     -18.261  44.716 -14.940  0.00  0.00    +0.000 HD
ENDROOT
BRANCH   7  13
ATOM     11  O   UNL     1     -17.377  40.176 -10.007  0.00  0.00    +0.000 OA
ATOM     12  N   UNL     1     -19.237  41.232  -9.112  0.00  0.00    +0.000 N 
ATOM     13  C   UNL     1     -18.316  40.982 -10.137  0.00  0.00    +0.000 C 
ATOM     14  C   UNL     1     -19.188  40.589  -7.819  0.00  0.00    +0.000 C 
ATOM     15  H   UNL     1     -19.938  41.956  -9.227  0.00  0.00    +0.000 HD
ENDBRANCH   7  13
BRANCH   4  16
ATOM     16  C   UNL     1     -19.628  44.721 -17.023  0.00  0.00    +0.000 C 
ATOM     17  C   UNL     1     -18.572  45.765 -16.666  0.00  0.00    +0.000 C 
ATOM     18  C   UNL     1     -20.969  45.397 -17.309  0.00  0.00    +0.000 C 
ENDBRANCH   4  16
TORSDOF 2
ENDMDL
MODEL 2
REMARK VINA RESULT:    -5.617      1.828      6.850
REMARK INTER + INTRA:          -6.438
REMARK INTER:                  -6.269
REMARK INTRA:                  -0.169
REMARK UNBOUND:                -0.164
REMARK  Name = 132243552
REMARK  5 active torsions:
REMARK  status: ('A' for Active; 'I' for Inactive)
REMARK    1  A    between atoms: N_5  and  C_16
REMARK    2  A    between atoms: C_6  and  C_7
REMARK    3  A    between atoms: C_6  and  C_8
REMARK    4  A    between atoms: C_6  and  C_9
REMARK    5  A    between atoms: C_12  and  C_15
REMARK                            x       y       z     vdW  Elec       q    Type
REMARK                         _______ _______ _______ _____ _____    ______ ____
ROOT
ATOM      1  O   UNL     1     -17.436  42.927 -10.742  0.00  0.00    +0.000 OA
ATOM      2  N   UNL     1     -18.890  41.740 -12.150  0.00  0.00    +0.000 N 
ATOM      3  N   UNL     1     -19.869  42.241 -14.259  0.00  0.00    +0.000 NA
ATOM      4  C   UNL     1     -18.115  41.940 -11.011  0.00  0.00    +0.000 C 
ATOM      5  C   UNL     1     -19.068  42.625 -13.240  0.00  0.00    +0.000 A 
ATOM      6  C   UNL     1     -18.402  43.840 -13.192  0.00  0.00    +0.000 A 
ATOM      7  C   UNL     1     -19.388  44.357 -15.324  0.00  0.00    +0.000 A 
ATOM      8  C   UNL     1     -18.571  44.717 -14.258  0.00  0.00    +0.000 A 
ATOM      9  C   UNL     1     -20.009  43.120 -15.276  0.00  0.00    +0.000 A 
ATOM     10  H   UNL     1     -19.397  40.864 -12.241  0.00  0.00    +0.000 HD
ENDROOT
BRANCH   7  13
ATOM     11  O   UNL     1     -18.627  45.605 -17.157  0.00  0.00    +0.000 OA
ATOM     12  N   UNL     1     -20.901  45.668 -16.708  0.00  0.00    +0.000 N 
ATOM     13  C   UNL     1     -19.588  45.252 -16.451  0.00  0.00    +0.000 C 
ATOM     14  C   UNL     1     -21.264  46.537 -17.805  0.00  0.00    +0.000 C 
ATOM     15  H   UNL     1     -21.667  45.293 -16.160  0.00  0.00    +0.000 HD
ENDBRANCH   7  13
BRANCH   4  16
ATOM     16  C   UNL     1     -18.183  40.734 -10.070  0.00  0.00    +0.000 C 
ATOM     17  C   UNL     1     -19.154  39.678 -10.594  0.00  0.00    +0.000 C 
ATOM     18  C   UNL     1     -18.593  41.184  -8.668  0.00  0.00    +0.000 C 
ENDBRANCH   4  16
TORSDOF 2
ENDMDL
MODEL 3
REMARK VINA RESULT:    -5.477      2.571      3.159
REMARK INTER + INTRA:          -6.281
REMARK INTER:                  -6.149
REMARK INTRA:                  -0.132
REMARK UNBOUND:                -0.164
REMARK  Name = 132243552
REMARK  5 active torsions:
REMARK  status: ('A' for Active; 'I' for Inactive)
REMARK    1  A    between atoms: N_5  and  C_16
REMARK    2  A    between atoms: C_6  and  C_7
REMARK    3  A    between atoms: C_6  and  C_8
REMARK    4  A    between atoms: C_6  and  C_9
REMARK    5  A    between atoms: C_12  and  C_15
REMARK                            x       y       z     vdW  Elec       q    Type
REMARK                         _______ _______ _______ _____ _____    ______ ____
ROOT
ATOM      1  O   UNL     1     -20.148  45.266 -16.527  0.00  0.00    +0.000 OA
ATOM      2  N   UNL     1     -20.412  43.084 -15.707  0.00  0.00    +0.000 N 
ATOM      3  N   UNL     1     -19.300  41.849 -14.005  0.00  0.00    +0.000 NA
ATOM      4  C   UNL     1     -20.702  44.170 -16.528  0.00  0.00    +0.000 C 
ATOM      5  C   UNL     1     -19.423  43.004 -14.698  0.00  0.00    +0.000 A 
ATOM      6  C   UNL     1     -18.636  44.125 -14.483  0.00  0.00    +0.000 A 
ATOM      7  C   UNL     1     -17.504  42.884 -12.762  0.00  0.00    +0.000 A 
ATOM      8  C   UNL     1     -17.660  44.055 -13.495  0.00  0.00    +0.000 A 
ATOM      9  C   UNL     1     -18.340  41.819 -13.053  0.00  0.00    +0.000 A 
ATOM     10  H   UNL     1     -20.961  42.236 -15.816  0.00  0.00    +0.000 HD
ENDROOT
BRANCH   7  13
ATOM     11  O   UNL     1     -16.810  42.496 -10.556  0.00  0.00    +0.000 OA
ATOM     12  N   UNL     1     -15.161  42.982 -12.111  0.00  0.00    +0.000 N 
ATOM     13  C   UNL     1     -16.491  42.777 -11.725  0.00  0.00    +0.000 C 
ATOM     14  C   UNL     1     -14.041  42.887 -11.201  0.00  0.00    +0.000 C 
ATOM     15  H   UNL     1     -14.934  43.128 -13.088  0.00  0.00    +0.000 HD
ENDBRANCH   7  13
BRANCH   4  16
ATOM     16  C   UNL     1     -21.853  43.855 -17.487  0.00  0.00    +0.000 C 
ATOM     17  C   UNL     1     -21.435  44.066 -18.941  0.00  0.00    +0.000 C 
ATOM     18  C   UNL     1     -23.068  44.720 -17.152  0.00  0.00    +0.000 C 
ENDBRANCH   4  16
TORSDOF 2
ENDMDL
MODEL 4
REMARK VINA RESULT:    -5.406      1.870      6.762
REMARK INTER + INTRA:          -6.201
REMARK INTER:                  -6.039
REMARK INTRA:                  -0.163
REMARK UNBOUND:                -0.164
REMARK  Name = 132243552
REMARK  5 active torsions:
REMARK  status: ('A' for Active; 'I' for Inactive)
REMARK    1  A    between atoms: N_5  and  C_16
REMARK    2  A    between atoms: C_6  and  C_7
REMARK    3  A    between atoms: C_6  and  C_8
REMARK    4  A    between atoms: C_6  and  C_9
REMARK    5  A    between atoms: C_12  and  C_15
REMARK                            x       y       z     vdW  Elec       q    Type
REMARK                         _______ _______ _______ _____ _____    ______ ____
ROOT
ATOM      1  O   UNL     1     -19.928  40.452 -12.369  0.00  0.00    +0.000 OA
ATOM      2  N   UNL     1     -18.657  42.382 -11.963  0.00  0.00    +0.000 N 
ATOM      3  N   UNL     1     -18.211  44.328 -13.256  0.00  0.00    +0.000 NA
ATOM      4  C   UNL     1     -19.198  41.136 -11.657  0.00  0.00    +0.000 C 
ATOM      5  C   UNL     1     -18.826  43.128 -13.154  0.00  0.00    +0.000 A 
ATOM      6  C   UNL     1     -19.618  42.575 -14.147  0.00  0.00    +0.000 A 
ATOM      7  C   UNL     1     -19.171  44.538 -15.464  0.00  0.00    +0.000 A 
ATOM      8  C   UNL     1     -19.789  43.300 -15.322  0.00  0.00    +0.000 A 
ATOM      9  C   UNL     1     -18.400  45.003 -14.411  0.00  0.00    +0.000 A 
ATOM     10  H   UNL     1     -18.072  42.838 -11.268  0.00  0.00    +0.000 HD
ENDROOT
BRANCH   7  13
ATOM     11  O   UNL     1     -20.251  46.145 -16.788  0.00  0.00    +0.000 OA
ATOM     12  N   UNL     1     -18.383  45.113 -17.694  0.00  0.00    +0.000 N 
ATOM     13  C   UNL     1     -19.326  45.320 -16.679  0.00  0.00    +0.000 C 
ATOM     14  C   UNL     1     -18.389  45.829 -18.950  0.00  0.00    +0.000 C 
ATOM     15  H   UNL     1     -17.597  44.491 -17.535  0.00  0.00    +0.000 HD
ENDBRANCH   7  13
BRANCH   4  16
ATOM     16  C   UNL     1     -18.781  40.674 -10.258  0.00  0.00    +0.000 C 
ATOM     17  C   UNL     1     -19.965  40.083  -9.495  0.00  0.00    +0.000 C 
ATOM     18  C   UNL     1     -18.175  41.841  -9.478  0.00  0.00    +0.000 C 
ENDBRANCH   4  16
TORSDOF 2
ENDMDL
MODEL 5
REMARK VINA RESULT:    -5.265      3.840      7.020
REMARK INTER + INTRA:          -6.044
REMARK INTER:                  -5.884
REMARK INTRA:                  -0.160
REMARK UNBOUND:                -0.164
REMARK  Name = 132243552
REMARK  5 active torsions:
REMARK  status: ('A' for Active; 'I' for Inactive)
REMARK    1  A    between atoms: N_5  and  C_16
REMARK    2  A    between atoms: C_6  and  C_7
REMARK    3  A    between atoms: C_6  and  C_8
REMARK    4  A    between atoms: C_6  and  C_9
REMARK    5  A    between atoms: C_12  and  C_15
REMARK                            x       y       z     vdW  Elec       q    Type
REMARK                         _______ _______ _______ _____ _____    ______ ____
ROOT
ATOM      1  O   UNL     1     -13.276  44.024 -11.096  0.00  0.00    +0.000 OA
ATOM      2  N   UNL     1     -14.252  41.900 -10.895  0.00  0.00    +0.000 N 
ATOM      3  N   UNL     1     -16.256  40.951 -11.756  0.00  0.00    +0.000 NA
ATOM      4  C   UNL     1     -13.282  42.873 -10.670  0.00  0.00    +0.000 C 
ATOM      5  C   UNL     1     -15.437  42.023 -11.658  0.00  0.00    +0.000 A 
ATOM      6  C   UNL     1     -15.685  43.246 -12.262  0.00  0.00    +0.000 A 
ATOM      7  C   UNL     1     -17.715  42.296 -13.136  0.00  0.00    +0.000 A 
ATOM      8  C   UNL     1     -16.848  43.377 -13.013  0.00  0.00    +0.000 A 
ATOM      9  C   UNL     1     -17.376  41.117 -12.494  0.00  0.00    +0.000 A 
ATOM     10  H   UNL     1     -14.120  40.981 -10.481  0.00  0.00    +0.000 HD
ENDROOT
BRANCH   7  13
ATOM     11  O   UNL     1     -19.971  41.807 -13.549  0.00  0.00    +0.000 OA
ATOM     12  N   UNL     1     -18.903  43.211 -15.053  0.00  0.00    +0.000 N 
ATOM     13  C   UNL     1     -18.940  42.402 -13.911  0.00  0.00    +0.000 C 
ATOM     14  C   UNL     1     -20.044  43.435 -15.912  0.00  0.00    +0.000 C 
ATOM     15  H   UNL     1     -18.067  43.744 -15.269  0.00  0.00    +0.000 HD
ENDBRANCH   7  13
BRANCH   4  16
ATOM     16  C   UNL     1     -12.146  42.337  -9.794  0.00  0.00    +0.000 C 
ATOM     17  C   UNL     1     -11.144  43.439  -9.452  0.00  0.00    +0.000 C 
ATOM     18  C   UNL     1     -11.442  41.177 -10.498  0.00  0.00    +0.000 C 
ENDBRANCH   4  16
TORSDOF 2
ENDMDL
