MODEL 1
REMARK VINA RESULT:    -5.497      0.000      0.000
REMARK INTER + INTRA:          -6.683
REMARK INTER:                  -6.782
REMARK INTRA:                   0.099
REMARK UNBOUND:                 0.099
REMARK  Name = 132457727
REMARK  9 active torsions:
REMARK  status: ('A' for Active; 'I' for Inactive)
REMARK    1  A    between atoms: N_2  and  C_5
REMARK    2  A    between atoms: N_3  and  C_12
REMARK    3  A    between atoms: C_5  and  C_6
REMARK    4  A    between atoms: C_5  and  C_7
REMARK    5  A    between atoms: C_5  and  C_8
REMARK    6  A    between atoms: C_6  and  C_9
REMARK    7  A    between atoms: C_10  and  C_11
REMARK    8  A    between atoms: C_12  and  C_17
REMARK    9  A    between atoms: C_12  and  C_18
REMARK                            x       y       z     vdW  Elec       q    Type
REMARK                         _______ _______ _______ _____ _____    ______ ____
ROOT
ATOM      1  N   UNL     1     -17.968  42.097 -11.210  0.00  0.00    +0.000 N 
ATOM      2  N   UNL     1     -19.421  42.063 -13.099  0.00  0.00    +0.000 NA
ATOM      3  C   UNL     1     -19.279  43.834 -14.738  0.00  0.00    +0.000 A 
ATOM      4  C   UNL     1     -18.427  42.677 -12.417  0.00  0.00    +0.000 A 
ATOM      5  C   UNL     1     -18.259  44.436 -14.010  0.00  0.00    +0.000 A 
ATOM      6  C   UNL     1     -19.822  42.659 -14.244  0.00  0.00    +0.000 A 
ATOM      7  C   UNL     1     -17.819  43.854 -12.826  0.00  0.00    +0.000 A 
ATOM      8  H   UNL     1     -17.486  42.723 -10.572  0.00  0.00    +0.000 HD
ENDROOT
BRANCH   3  11
ATOM      9  O   UNL     1     -18.959  44.860 -16.823  0.00  0.00    +0.000 OA
ATOM     10  N   UNL     1     -21.142  44.431 -16.172  0.00  0.00    +0.000 N 
ATOM     11  C   UNL     1     -19.770  44.431 -16.006  0.00  0.00    +0.000 C 
ATOM     12  H   UNL     1     -21.741  43.987 -15.484  0.00  0.00    +0.000 HD
BRANCH  10  13
ATOM     13  C   UNL     1     -21.777  44.957 -17.369  0.00  0.00    +0.000 C 
ATOM     14  C   UNL     1     -23.300  44.863 -17.190  0.00  0.00    +0.000 C 
ATOM     15  C   UNL     1     -21.387  46.431 -17.542  0.00  0.00    +0.000 C 
BRANCH  13  16
ATOM     16  C   UNL     1     -21.368  44.114 -18.601  0.00  0.00    +0.000 C 
ATOM     17  C   UNL     1     -20.884  44.917 -19.802  0.00  0.00    +0.000 C 
ENDBRANCH  13  16
ENDBRANCH  10  13
ENDBRANCH   3  11
BRANCH   1  18
ATOM     18  C   UNL     1     -18.512  40.888 -10.681  0.00  0.00    +0.000 C 
ATOM     19  C   UNL     1     -17.753  39.697 -11.251  0.00  0.00    +0.000 C 
ATOM     20  C   UNL     1     -18.430  40.923  -9.161  0.00  0.00    +0.000 C 
ENDBRANCH   1  18
TORSDOF 4
ENDMDL
MODEL 2
REMARK VINA RESULT:    -5.280      2.723      7.318
REMARK INTER + INTRA:          -6.416
REMARK INTER:                  -6.495
REMARK INTRA:                   0.079
REMARK UNBOUND:                 0.099
REMARK  Name = 132457727
REMARK  9 active torsions:
REMARK  status: ('A' for Active; 'I' for Inactive)
REMARK    1  A    between atoms: N_2  and  C_5
REMARK    2  A    between atoms: N_3  and  C_12
REMARK    3  A    between atoms: C_5  and  C_6
REMARK    4  A    between atoms: C_5  and  C_7
REMARK    5  A    between atoms: C_5  and  C_8
REMARK    6  A    between atoms: C_6  and  C_9
REMARK    7  A    between atoms: C_10  and  C_11
REMARK    8  A    between atoms: C_12  and  C_17
REMARK    9  A    between atoms: C_12  and  C_18
REMARK                            x       y       z     vdW  Elec       q    Type
REMARK                         _______ _______ _______ _____ _____    ______ ____
ROOT
ATOM      1  N   UNL     1     -18.878  47.013 -15.103  0.00  0.00    +0.000 N 
ATOM      2  N   UNL     1     -18.715  44.676 -14.665  0.00  0.00    +0.000 NA
ATOM      3  C   UNL     1     -18.022  43.922 -12.476  0.00  0.00    +0.000 A 
ATOM      4  C   UNL     1     -18.589  45.946 -14.218  0.00  0.00    +0.000 A 
ATOM      5  C   UNL     1     -17.903  45.241 -12.051  0.00  0.00    +0.000 A 
ATOM      6  C   UNL     1     -18.427  43.695 -13.781  0.00  0.00    +0.000 A 
ATOM      7  C   UNL     1     -18.190  46.278 -12.933  0.00  0.00    +0.000 A 
ATOM      8  H   UNL     1     -18.466  47.911 -14.864  0.00  0.00    +0.000 HD
ENDROOT
BRANCH   3  11
ATOM      9  O   UNL     1     -16.893  42.947 -10.666  0.00  0.00    +0.000 OA
ATOM     10  N   UNL     1     -18.444  41.635 -11.784  0.00  0.00    +0.000 N 
ATOM     11  C   UNL     1     -17.723  42.793 -11.559  0.00  0.00    +0.000 C 
ATOM     12  H   UNL     1     -19.167  41.614 -12.495  0.00  0.00    +0.000 HD
BRANCH  10  13
ATOM     13  C   UNL     1     -18.283  40.451 -10.957  0.00  0.00    +0.000 C 
ATOM     14  C   UNL     1     -19.157  39.331 -11.543  0.00  0.00    +0.000 C 
ATOM     15  C   UNL     1     -16.815  40.006 -10.989  0.00  0.00    +0.000 C 
BRANCH  13  16
ATOM     16  C   UNL     1     -18.756  40.745  -9.513  0.00  0.00    +0.000 C 
ATOM     17  C   UNL     1     -20.110  40.151  -9.143  0.00  0.00    +0.000 C 
ENDBRANCH  13  16
ENDBRANCH  10  13
ENDBRANCH   3  11
BRANCH   1  18
ATOM     18  C   UNL     1     -19.297  46.804 -16.451  0.00  0.00    +0.000 C 
ATOM     19  C   UNL     1     -20.514  47.670 -16.746  0.00  0.00    +0.000 C 
ATOM     20  C   UNL     1     -18.144  47.128 -17.391  0.00  0.00    +0.000 C 
ENDBRANCH   1  18
TORSDOF 4
ENDMDL
MODEL 3
REMARK VINA RESULT:    -5.206      1.620      7.229
REMARK INTER + INTRA:          -6.324
REMARK INTER:                  -6.535
REMARK INTRA:                   0.211
REMARK UNBOUND:                 0.099
REMARK  Name = 132457727
REMARK  9 active torsions:
REMARK  status: ('A' for Active; 'I' for Inactive)
REMARK    1  A    between atoms: N_2  and  C_5
REMARK    2  A    between atoms: N_3  and  C_12
REMARK    3  A    between atoms: C_5  and  C_6
REMARK    4  A    between atoms: C_5  and  C_7
REMARK    5  A    between atoms: C_5  and  C_8
REMARK    6  A    between atoms: C_6  and  C_9
REMARK    7  A    between atoms: C_10  and  C_11
REMARK    8  A    between atoms: C_12  and  C_17
REMARK    9  A    between atoms: C_12  and  C_18
REMARK                            x       y       z     vdW  Elec       q    Type
REMARK                         _______ _______ _______ _____ _____    ______ ____
ROOT
ATOM      1  N   UNL     1     -20.262  45.771 -17.139  0.00  0.00    +0.000 N 
ATOM      2  N   UNL     1     -20.079  43.723 -15.935  0.00  0.00    +0.000 NA
ATOM      3  C   UNL     1     -18.556  43.576 -14.063  0.00  0.00    +0.000 A 
ATOM      4  C   UNL     1     -19.688  45.007 -16.093  0.00  0.00    +0.000 A 
ATOM      5  C   UNL     1     -18.179  44.901 -14.257  0.00  0.00    +0.000 A 
ATOM      6  C   UNL     1     -19.500  43.039 -14.922  0.00  0.00    +0.000 A 
ATOM      7  C   UNL     1     -18.751  45.637 -15.289  0.00  0.00    +0.000 A 
ATOM      8  H   UNL     1     -19.730  46.583 -17.438  0.00  0.00    +0.000 HD
ENDROOT
BRANCH   3  11
ATOM      9  O   UNL     1     -16.749  42.801 -12.784  0.00  0.00    +0.000 OA
ATOM     10  N   UNL     1     -18.861  42.030 -12.219  0.00  0.00    +0.000 N 
ATOM     11  C   UNL     1     -17.963  42.764 -12.970  0.00  0.00    +0.000 C 
ATOM     12  H   UNL     1     -19.858  42.113 -12.388  0.00  0.00    +0.000 HD
BRANCH  10  13
ATOM     13  C   UNL     1     -18.440  41.204 -11.100  0.00  0.00    +0.000 C 
ATOM     14  C   UNL     1     -17.347  40.244 -11.593  0.00  0.00    +0.000 C 
ATOM     15  C   UNL     1     -17.855  42.101 -10.001  0.00  0.00    +0.000 C 
BRANCH  13  16
ATOM     16  C   UNL     1     -19.635  40.371 -10.577  0.00  0.00    +0.000 C 
ATOM     17  C   UNL     1     -19.807  40.371  -9.062  0.00  0.00    +0.000 C 
ENDBRANCH  13  16
ENDBRANCH  10  13
ENDBRANCH   3  11
BRANCH   1  18
ATOM     18  C   UNL     1     -21.236  45.239 -18.035  0.00  0.00    +0.000 C 
ATOM     19  C   UNL     1     -22.615  45.767 -17.660  0.00  0.00    +0.000 C 
ATOM     20  C   UNL     1     -20.866  45.618 -19.463  0.00  0.00    +0.000 C 
ENDBRANCH   1  18
TORSDOF 4
ENDMDL
MODEL 4
REMARK VINA RESULT:    -5.199      2.072      7.314
REMARK INTER + INTRA:          -6.316
REMARK INTER:                  -6.465
REMARK INTRA:                   0.149
REMARK UNBOUND:                 0.099
REMARK  Name = 132457727
REMARK  9 active torsions:
REMARK  status: ('A' for Active; 'I' for Inactive)
REMARK    1  A    between atoms: N_2  and  C_5
REMARK    2  A    between atoms: N_3  and  C_12
REMARK    3  A    between atoms: C_5  and  C_6
REMARK    4  A    between atoms: C_5  and  C_7
REMARK    5  A    between atoms: C_5  and  C_8
REMARK    6  A    between atoms: C_6  and  C_9
REMARK    7  A    between atoms: C_10  and  C_11
REMARK    8  A    between atoms: C_12  and  C_17
REMARK    9  A    between atoms: C_12  and  C_18
REMARK                            x       y       z     vdW  Elec       q    Type
REMARK                         _______ _______ _______ _____ _____    ______ ____
ROOT
ATOM      1  N   UNL     1     -21.779  45.544 -18.592  0.00  0.00    +0.000 N 
ATOM      2  N   UNL     1     -19.990  45.376 -17.025  0.00  0.00    +0.000 NA
ATOM      3  C   UNL     1     -19.966  43.552 -15.440  0.00  0.00    +0.000 A 
ATOM      4  C   UNL     1     -21.147  44.875 -17.514  0.00  0.00    +0.000 A 
ATOM      5  C   UNL     1     -21.157  43.066 -15.970  0.00  0.00    +0.000 A 
ATOM      6  C   UNL     1     -19.429  44.700 -15.998  0.00  0.00    +0.000 A 
ATOM      7  C   UNL     1     -21.765  43.735 -17.026  0.00  0.00    +0.000 A 
ATOM      8  H   UNL     1     -22.770  45.356 -18.709  0.00  0.00    +0.000 HD
ENDROOT
BRANCH   3  11
ATOM      9  O   UNL     1     -19.858  41.921 -13.759  0.00  0.00    +0.000 OA
ATOM     10  N   UNL     1     -18.037  43.337 -13.984  0.00  0.00    +0.000 N 
ATOM     11  C   UNL     1     -19.293  42.861 -14.311  0.00  0.00    +0.000 C 
ATOM     12  H   UNL     1     -17.607  44.069 -14.541  0.00  0.00    +0.000 HD
BRANCH  10  13
ATOM     13  C   UNL     1     -17.240  42.751 -12.920  0.00  0.00    +0.000 C 
ATOM     14  C   UNL     1     -17.945  43.024 -11.583  0.00  0.00    +0.000 C 
ATOM     15  C   UNL     1     -17.147  41.234 -13.133  0.00  0.00    +0.000 C 
BRANCH  13  16
ATOM     16  C   UNL     1     -15.838  43.406 -12.886  0.00  0.00    +0.000 C 
ATOM     17  C   UNL     1     -15.775  44.825 -13.439  0.00  0.00    +0.000 C 
ENDBRANCH  13  16
ENDBRANCH  10  13
ENDBRANCH   3  11
BRANCH   1  18
ATOM     18  C   UNL     1     -21.244  46.728 -19.182  0.00  0.00    +0.000 C 
ATOM     19  C   UNL     1     -21.003  46.491 -20.667  0.00  0.00    +0.000 C 
ATOM     20  C   UNL     1     -22.210  47.883 -18.954  0.00  0.00    +0.000 C 
ENDBRANCH   1  18
TORSDOF 4
ENDMDL
MODEL 5
REMARK VINA RESULT:    -4.728      4.782      7.356
REMARK INTER + INTRA:          -5.734
REMARK INTER:                  -5.890
REMARK INTRA:                   0.156
REMARK UNBOUND:                 0.099
REMARK  Name = 132457727
REMARK  9 active torsions:
REMARK  status: ('A' for Active; 'I' for Inactive)
REMARK    1  A    between atoms: N_2  and  C_5
REMARK    2  A    between atoms: N_3  and  C_12
REMARK    3  A    between atoms: C_5  and  C_6
REMARK    4  A    between atoms: C_5  and  C_7
REMARK    5  A    between atoms: C_5  and  C_8
REMARK    6  A    between atoms: C_6  and  C_9
REMARK    7  A    between atoms: C_10  and  C_11
REMARK    8  A    between atoms: C_12  and  C_17
REMARK    9  A    between atoms: C_12  and  C_18
REMARK                            x       y       z     vdW  Elec       q    Type
REMARK                         _______ _______ _______ _____ _____    ______ ____
ROOT
ATOM      1  N   UNL     1     -12.978  46.244 -11.460  0.00  0.00    +0.000 N 
ATOM      2  N   UNL     1     -13.631  43.954 -11.369  0.00  0.00    +0.000 NA
ATOM      3  C   UNL     1     -15.863  43.326 -12.053  0.00  0.00    +0.000 A 
ATOM      4  C   UNL     1     -13.953  45.235 -11.657  0.00  0.00    +0.000 A 
ATOM      5  C   UNL     1     -16.157  44.655 -12.338  0.00  0.00    +0.000 A 
ATOM      6  C   UNL     1     -14.597  43.031 -11.575  0.00  0.00    +0.000 A 
ATOM      7  C   UNL     1     -15.190  45.634 -12.139  0.00  0.00    +0.000 A 
ATOM      8  H   UNL     1     -13.334  47.190 -11.361  0.00  0.00    +0.000 HD
ENDROOT
BRANCH   3  11
ATOM      9  O   UNL     1     -16.984  41.735 -13.361  0.00  0.00    +0.000 OA
ATOM     10  N   UNL     1     -17.612  41.917 -11.137  0.00  0.00    +0.000 N 
ATOM     11  C   UNL     1     -16.874  42.257 -12.255  0.00  0.00    +0.000 C 
ATOM     12  H   UNL     1     -17.407  42.343 -10.239  0.00  0.00    +0.000 HD
BRANCH  10  13
ATOM     13  C   UNL     1     -18.623  40.873 -11.166  0.00  0.00    +0.000 C 
ATOM     14  C   UNL     1     -19.626  41.203 -12.282  0.00  0.00    +0.000 C 
ATOM     15  C   UNL     1     -17.953  39.528 -11.480  0.00  0.00    +0.000 C 
BRANCH  13  16
ATOM     16  C   UNL     1     -19.379  40.829  -9.816  0.00  0.00    +0.000 C 
ATOM     17  C   UNL     1     -18.665  41.511  -8.654  0.00  0.00    +0.000 C 
ENDBRANCH  13  16
ENDBRANCH  10  13
ENDBRANCH   3  11
BRANCH   1  18
ATOM     18  C   UNL     1     -11.668  45.964 -10.969  0.00  0.00    +0.000 C 
ATOM     19  C   UNL     1     -10.645  46.238 -12.062  0.00  0.00    +0.000 C 
ATOM     20  C   UNL     1     -11.403  46.815  -9.734  0.00  0.00    +0.000 C 
ENDBRANCH   1  18
TORSDOF 4
ENDMDL
