MODEL 1
REMARK VINA RESULT:    -5.474      0.000      0.000
REMARK INTER + INTRA:          -8.386
REMARK INTER:                  -7.394
REMARK INTRA:                  -0.992
REMARK UNBOUND:                -0.992
REMARK  Name = 132456165
REMARK  11 active torsions:
REMARK  status: ('A' for Active; 'I' for Inactive)
REMARK    1  A    between atoms: N_2  and  C_7
REMARK    2  A    between atoms: N_3  and  C_13
REMARK    3  A    between atoms: N_3  and  C_14
REMARK    4  A    between atoms: C_5  and  C_6
REMARK    5  A    between atoms: C_5  and  C_7
REMARK    6  A    between atoms: C_6  and  C_9
REMARK    7  A    between atoms: C_6  and  C_10
REMARK    8  A    between atoms: C_7  and  C_8
REMARK    9  A    between atoms: C_11  and  C_12
REMARK   10  A    between atoms: C_13  and  C_16
REMARK   11  A    between atoms: C_13  and  C_17
REMARK                            x       y       z     vdW  Elec       q    Type
REMARK                         _______ _______ _______ _____ _____    ______ ____
ROOT
ATOM      1  N   UNL     1     -16.885  41.234 -11.861  0.00  0.00    +0.000 NA
ATOM      2  C   UNL     1     -18.742  42.192 -13.078  0.00  0.00    +0.000 A 
ATOM      3  C   UNL     1     -17.398  42.116 -12.748  0.00  0.00    +0.000 A 
ATOM      4  C   UNL     1     -19.616  41.306 -12.457  0.00  0.00    +0.000 A 
ATOM      5  C   UNL     1     -19.125  40.384 -11.539  0.00  0.00    +0.000 A 
ATOM      6  C   UNL     1     -17.764  40.388 -11.278  0.00  0.00    +0.000 A 
ENDROOT
BRANCH   2   9
ATOM      7  O   UNL     1     -19.042  44.366 -13.902  0.00  0.00    +0.000 OA
ATOM      8  N   UNL     1     -19.994  42.637 -15.118  0.00  0.00    +0.000 N 
ATOM      9  C   UNL     1     -19.275  43.170 -14.060  0.00  0.00    +0.000 C 
ATOM     10  H   UNL     1     -20.178  41.637 -15.137  0.00  0.00    +0.000 HD
BRANCH   8  11
ATOM     11  C   UNL     1     -20.555  43.456 -16.166  0.00  0.00    +0.000 C 
ATOM     12  C   UNL     1     -22.079  43.398 -16.103  0.00  0.00    +0.000 C 
BRANCH  11  13
ATOM     13  C   UNL     1     -20.052  43.016 -17.551  0.00  0.00    +0.000 C 
BRANCH  13  14
ATOM     14  C   UNL     1     -19.396  44.130 -18.392  0.00  0.00    +0.000 C 
ATOM     15  C   UNL     1     -19.028  45.356 -17.555  0.00  0.00    +0.000 C 
ATOM     16  C   UNL     1     -20.341  44.546 -19.525  0.00  0.00    +0.000 C 
ENDBRANCH  13  14
ENDBRANCH  11  13
ENDBRANCH   8  11
ENDBRANCH   2   9
BRANCH   3  17
ATOM     17  N   UNL     1     -16.502  43.015 -13.380  0.00  0.00    +0.000 N 
ATOM     18  H   UNL     1     -16.527  43.044 -14.393  0.00  0.00    +0.000 HD
BRANCH  17  19
ATOM     19  C   UNL     1     -15.880  44.096 -12.685  0.00  0.00    +0.000 C 
ATOM     20  C   UNL     1     -15.860  45.324 -13.587  0.00  0.00    +0.000 C 
ATOM     21  C   UNL     1     -14.474  43.691 -12.267  0.00  0.00    +0.000 C 
ENDBRANCH  17  19
ENDBRANCH   3  17
TORSDOF 6
ENDMDL
MODEL 2
REMARK VINA RESULT:    -5.317      2.403      6.729
REMARK INTER + INTRA:          -8.174
REMARK INTER:                  -7.384
REMARK INTRA:                  -0.791
REMARK UNBOUND:                -0.992
REMARK  Name = 132456165
REMARK  11 active torsions:
REMARK  status: ('A' for Active; 'I' for Inactive)
REMARK    1  A    between atoms: N_2  and  C_7
REMARK    2  A    between atoms: N_3  and  C_13
REMARK    3  A    between atoms: N_3  and  C_14
REMARK    4  A    between atoms: C_5  and  C_6
REMARK    5  A    between atoms: C_5  and  C_7
REMARK    6  A    between atoms: C_6  and  C_9
REMARK    7  A    between atoms: C_6  and  C_10
REMARK    8  A    between atoms: C_7  and  C_8
REMARK    9  A    between atoms: C_11  and  C_12
REMARK   10  A    between atoms: C_13  and  C_16
REMARK   11  A    between atoms: C_13  and  C_17
REMARK                            x       y       z     vdW  Elec       q    Type
REMARK                         _______ _______ _______ _____ _____    ______ ____
ROOT
ATOM      1  N   UNL     1     -19.133  40.524 -13.184  0.00  0.00    +0.000 NA
ATOM      2  C   UNL     1     -17.410  41.329 -11.691  0.00  0.00    +0.000 A 
ATOM      3  C   UNL     1     -18.165  41.406 -12.851  0.00  0.00    +0.000 A 
ATOM      4  C   UNL     1     -17.667  40.279 -10.816  0.00  0.00    +0.000 A 
ATOM      5  C   UNL     1     -18.655  39.351 -11.124  0.00  0.00    +0.000 A 
ATOM      6  C   UNL     1     -19.354  39.516 -12.309  0.00  0.00    +0.000 A 
ENDROOT
BRANCH   2   9
ATOM      7  O   UNL     1     -16.676  43.472 -11.088  0.00  0.00    +0.000 OA
ATOM      8  N   UNL     1     -15.055  41.834 -11.337  0.00  0.00    +0.000 N 
ATOM      9  C   UNL     1     -16.354  42.317 -11.352  0.00  0.00    +0.000 C 
ATOM     10  H   UNL     1     -14.881  40.873 -11.619  0.00  0.00    +0.000 HD
BRANCH   8  11
ATOM     11  C   UNL     1     -13.923  42.665 -11.002  0.00  0.00    +0.000 C 
ATOM     12  C   UNL     1     -13.659  43.654 -12.134  0.00  0.00    +0.000 C 
BRANCH  11  13
ATOM     13  C   UNL     1     -12.670  41.818 -10.720  0.00  0.00    +0.000 C 
BRANCH  13  14
ATOM     14  C   UNL     1     -11.774  42.340  -9.578  0.00  0.00    +0.000 C 
ATOM     15  C   UNL     1     -12.411  43.504  -8.818  0.00  0.00    +0.000 C 
ATOM     16  C   UNL     1     -10.418  42.775 -10.143  0.00  0.00    +0.000 C 
ENDBRANCH  13  14
ENDBRANCH  11  13
ENDBRANCH   8  11
ENDBRANCH   2   9
BRANCH   3  17
ATOM     17  N   UNL     1     -17.910  42.476 -13.746  0.00  0.00    +0.000 N 
ATOM     18  H   UNL     1     -17.186  42.325 -14.439  0.00  0.00    +0.000 HD
BRANCH  17  19
ATOM     19  C   UNL     1     -18.837  43.541 -13.954  0.00  0.00    +0.000 C 
ATOM     20  C   UNL     1     -19.585  43.305 -15.260  0.00  0.00    +0.000 C 
ATOM     21  C   UNL     1     -18.091  44.868 -13.974  0.00  0.00    +0.000 C 
ENDBRANCH  17  19
ENDBRANCH   3  17
TORSDOF 6
ENDMDL
MODEL 3
REMARK VINA RESULT:    -4.985      1.736      5.442
REMARK INTER + INTRA:          -7.726
REMARK INTER:                  -6.587
REMARK INTRA:                  -1.138
REMARK UNBOUND:                -0.992
REMARK  Name = 132456165
REMARK  11 active torsions:
REMARK  status: ('A' for Active; 'I' for Inactive)
REMARK    1  A    between atoms: N_2  and  C_7
REMARK    2  A    between atoms: N_3  and  C_13
REMARK    3  A    between atoms: N_3  and  C_14
REMARK    4  A    between atoms: C_5  and  C_6
REMARK    5  A    between atoms: C_5  and  C_7
REMARK    6  A    between atoms: C_6  and  C_9
REMARK    7  A    between atoms: C_6  and  C_10
REMARK    8  A    between atoms: C_7  and  C_8
REMARK    9  A    between atoms: C_11  and  C_12
REMARK   10  A    between atoms: C_13  and  C_16
REMARK   11  A    between atoms: C_13  and  C_17
REMARK                            x       y       z     vdW  Elec       q    Type
REMARK                         _______ _______ _______ _____ _____    ______ ____
ROOT
ATOM      1  N   UNL     1     -19.479  41.505 -13.552  0.00  0.00    +0.000 NA
ATOM      2  C   UNL     1     -18.052  43.456 -13.555  0.00  0.00    +0.000 A 
ATOM      3  C   UNL     1     -19.222  42.790 -13.884  0.00  0.00    +0.000 A 
ATOM      4  C   UNL     1     -17.084  42.759 -12.840  0.00  0.00    +0.000 A 
ATOM      5  C   UNL     1     -17.313  41.436 -12.481  0.00  0.00    +0.000 A 
ATOM      6  C   UNL     1     -18.515  40.859 -12.857  0.00  0.00    +0.000 A 
ENDROOT
BRANCH   2   9
ATOM      7  O   UNL     1     -18.688  45.704 -13.763  0.00  0.00    +0.000 OA
ATOM      8  N   UNL     1     -16.539  45.149 -14.434  0.00  0.00    +0.000 N 
ATOM      9  C   UNL     1     -17.800  44.871 -13.931  0.00  0.00    +0.000 C 
ATOM     10  H   UNL     1     -15.886  44.384 -14.583  0.00  0.00    +0.000 HD
BRANCH   8  11
ATOM     11  C   UNL     1     -16.134  46.480 -14.820  0.00  0.00    +0.000 C 
ATOM     12  C   UNL     1     -15.526  46.446 -16.220  0.00  0.00    +0.000 C 
BRANCH  11  13
ATOM     13  C   UNL     1     -15.139  47.079 -13.812  0.00  0.00    +0.000 C 
BRANCH  13  14
ATOM     14  C   UNL     1     -15.212  46.483 -12.390  0.00  0.00    +0.000 C 
ATOM     15  C   UNL     1     -16.178  47.247 -11.484  0.00  0.00    +0.000 C 
ATOM     16  C   UNL     1     -13.815  46.474 -11.762  0.00  0.00    +0.000 C 
ENDBRANCH  13  14
ENDBRANCH  11  13
ENDBRANCH   8  11
ENDBRANCH   2   9
BRANCH   3  17
ATOM     17  N   UNL     1     -20.214  43.496 -14.610  0.00  0.00    +0.000 N 
ATOM     18  H   UNL     1     -20.413  44.442 -14.305  0.00  0.00    +0.000 HD
BRANCH  17  19
ATOM     19  C   UNL     1     -20.641  43.099 -15.913  0.00  0.00    +0.000 C 
ATOM     20  C   UNL     1     -19.689  43.681 -16.950  0.00  0.00    +0.000 C 
ATOM     21  C   UNL     1     -22.070  43.569 -16.145  0.00  0.00    +0.000 C 
ENDBRANCH  17  19
ENDBRANCH   3  17
TORSDOF 6
ENDMDL
MODEL 4
REMARK VINA RESULT:    -4.868      1.858      5.685
REMARK INTER + INTRA:          -7.567
REMARK INTER:                  -6.183
REMARK INTRA:                  -1.384
REMARK UNBOUND:                -0.992
REMARK  Name = 132456165
REMARK  11 active torsions:
REMARK  status: ('A' for Active; 'I' for Inactive)
REMARK    1  A    between atoms: N_2  and  C_7
REMARK    2  A    between atoms: N_3  and  C_13
REMARK    3  A    between atoms: N_3  and  C_14
REMARK    4  A    between atoms: C_5  and  C_6
REMARK    5  A    between atoms: C_5  and  C_7
REMARK    6  A    between atoms: C_6  and  C_9
REMARK    7  A    between atoms: C_6  and  C_10
REMARK    8  A    between atoms: C_7  and  C_8
REMARK    9  A    between atoms: C_11  and  C_12
REMARK   10  A    between atoms: C_13  and  C_16
REMARK   11  A    between atoms: C_13  and  C_17
REMARK                            x       y       z     vdW  Elec       q    Type
REMARK                         _______ _______ _______ _____ _____    ______ ____
ROOT
ATOM      1  N   UNL     1     -20.511  42.690 -16.111  0.00  0.00    +0.000 NA
ATOM      2  C   UNL     1     -19.304  44.785 -16.068  0.00  0.00    +0.000 A 
ATOM      3  C   UNL     1     -19.772  43.625 -15.472  0.00  0.00    +0.000 A 
ATOM      4  C   UNL     1     -19.613  45.000 -17.406  0.00  0.00    +0.000 A 
ATOM      5  C   UNL     1     -20.371  44.062 -18.098  0.00  0.00    +0.000 A 
ATOM      6  C   UNL     1     -20.792  42.934 -17.412  0.00  0.00    +0.000 A 
ENDROOT
BRANCH   2   9
ATOM      7  O   UNL     1     -19.055  46.618 -14.628  0.00  0.00    +0.000 OA
ATOM      8  N   UNL     1     -17.118  45.698 -15.506  0.00  0.00    +0.000 N 
ATOM      9  C   UNL     1     -18.490  45.791 -15.338  0.00  0.00    +0.000 C 
ATOM     10  H   UNL     1     -16.744  45.010 -16.155  0.00  0.00    +0.000 HD
BRANCH   8  11
ATOM     11  C   UNL     1     -16.193  46.587 -14.844  0.00  0.00    +0.000 C 
ATOM     12  C   UNL     1     -15.047  46.934 -15.792  0.00  0.00    +0.000 C 
BRANCH  11  13
ATOM     13  C   UNL     1     -15.653  45.969 -13.544  0.00  0.00    +0.000 C 
BRANCH  13  14
ATOM     14  C   UNL     1     -16.131  46.655 -12.247  0.00  0.00    +0.000 C 
ATOM     15  C   UNL     1     -17.328  45.944 -11.616  0.00  0.00    +0.000 C 
ATOM     16  C   UNL     1     -16.493  48.114 -12.539  0.00  0.00    +0.000 C 
ENDBRANCH  13  14
ENDBRANCH  11  13
ENDBRANCH   8  11
ENDBRANCH   2   9
BRANCH   3  17
ATOM     17  N   UNL     1     -19.458  43.397 -14.108  0.00  0.00    +0.000 N 
ATOM     18  H   UNL     1     -19.989  43.927 -13.426  0.00  0.00    +0.000 HD
BRANCH  17  19
ATOM     19  C   UNL     1     -18.745  42.244 -13.665  0.00  0.00    +0.000 C 
ATOM     20  C   UNL     1     -19.530  41.568 -12.548  0.00  0.00    +0.000 C 
ATOM     21  C   UNL     1     -17.355  42.652 -13.198  0.00  0.00    +0.000 C 
ENDBRANCH  17  19
ENDBRANCH   3  17
TORSDOF 6
ENDMDL
MODEL 5
REMARK VINA RESULT:    -4.601     17.412     19.369
REMARK INTER + INTRA:          -7.207
REMARK INTER:                  -6.194
REMARK INTRA:                  -1.013
REMARK UNBOUND:                -0.992
REMARK  Name = 132456165
REMARK  11 active torsions:
REMARK  status: ('A' for Active; 'I' for Inactive)
REMARK    1  A    between atoms: N_2  and  C_7
REMARK    2  A    between atoms: N_3  and  C_13
REMARK    3  A    between atoms: N_3  and  C_14
REMARK    4  A    between atoms: C_5  and  C_6
REMARK    5  A    between atoms: C_5  and  C_7
REMARK    6  A    between atoms: C_6  and  C_9
REMARK    7  A    between atoms: C_6  and  C_10
REMARK    8  A    between atoms: C_7  and  C_8
REMARK    9  A    between atoms: C_11  and  C_12
REMARK   10  A    between atoms: C_13  and  C_16
REMARK   11  A    between atoms: C_13  and  C_17
REMARK                            x       y       z     vdW  Elec       q    Type
REMARK                         _______ _______ _______ _____ _____    ______ ____
ROOT
ATOM      1  N   UNL     1     -27.686  47.193   0.116  0.00  0.00    +0.000 NA
ATOM      2  C   UNL     1     -27.263  45.027   1.102  0.00  0.00    +0.000 A 
ATOM      3  C   UNL     1     -28.108  46.005   0.605  0.00  0.00    +0.000 A 
ATOM      4  C   UNL     1     -25.896  45.283   1.098  0.00  0.00    +0.000 A 
ATOM      5  C   UNL     1     -25.423  46.493   0.604  0.00  0.00    +0.000 A 
ATOM      6  C   UNL     1     -26.350  47.406   0.128  0.00  0.00    +0.000 A 
ENDROOT
BRANCH   2   9
ATOM      7  O   UNL     1     -28.252  43.687   2.754  0.00  0.00    +0.000 OA
ATOM      8  N   UNL     1     -27.640  42.643   0.776  0.00  0.00    +0.000 N 
ATOM      9  C   UNL     1     -27.758  43.729   1.630  0.00  0.00    +0.000 C 
ATOM     10  H   UNL     1     -27.171  42.765  -0.117  0.00  0.00    +0.000 HD
BRANCH   8  11
ATOM     11  C   UNL     1     -28.098  41.322   1.135  0.00  0.00    +0.000 C 
ATOM     12  C   UNL     1     -27.228  40.273   0.446  0.00  0.00    +0.000 C 
BRANCH  11  13
ATOM     13  C   UNL     1     -29.578  41.123   0.770  0.00  0.00    +0.000 C 
BRANCH  13  14
ATOM     14  C   UNL     1     -30.419  40.386   1.833  0.00  0.00    +0.000 C 
ATOM     15  C   UNL     1     -30.134  40.880   3.251  0.00  0.00    +0.000 C 
ATOM     16  C   UNL     1     -30.153  38.880   1.749  0.00  0.00    +0.000 C 
ENDBRANCH  13  14
ENDBRANCH  11  13
ENDBRANCH   8  11
ENDBRANCH   2   9
BRANCH   3  17
ATOM     17  N   UNL     1     -29.503  45.750   0.604  0.00  0.00    +0.000 N 
ATOM     18  H   UNL     1     -29.793  44.818   0.329  0.00  0.00    +0.000 HD
BRANCH  17  19
ATOM     19  C   UNL     1     -30.436  46.572   1.303  0.00  0.00    +0.000 C 
ATOM     20  C   UNL     1     -31.150  45.735   2.356  0.00  0.00    +0.000 C 
ATOM     21  C   UNL     1     -31.421  47.179   0.314  0.00  0.00    +0.000 C 
ENDBRANCH  17  19
ENDBRANCH   3  17
TORSDOF 6
ENDMDL
