MODEL 1
REMARK VINA RESULT:    -5.237      0.000      0.000
REMARK INTER + INTRA:          -6.224
REMARK INTER:                  -5.850
REMARK INTRA:                  -0.375
REMARK UNBOUND:                -0.375
REMARK  Name = 13425159
REMARK  4 active torsions:
REMARK  status: ('A' for Active; 'I' for Inactive)
REMARK    1  A    between atoms: N_2  and  C_6
REMARK    2  A    between atoms: N_2  and  C_11
REMARK    3  A    between atoms: N_4  and  C_12
REMARK    4  A    between atoms: C_5  and  C_8
REMARK                            x       y       z     vdW  Elec       q    Type
REMARK                         _______ _______ _______ _____ _____    ______ ____
ROOT
ATOM      1  N   UNL     1     -20.317  40.154  -9.592  0.00  0.00    +0.000 NA
ATOM      2  C   UNL     1     -18.553  41.744 -10.045  0.00  0.00    +0.000 A 
ATOM      3  C   UNL     1     -19.499  40.813 -10.443  0.00  0.00    +0.000 A 
ATOM      4  C   UNL     1     -18.439  42.014  -8.686  0.00  0.00    +0.000 A 
ATOM      5  C   UNL     1     -19.262  41.357  -7.780  0.00  0.00    +0.000 A 
ATOM      6  C   UNL     1     -20.177  40.443  -8.280  0.00  0.00    +0.000 A 
ENDROOT
BRANCH   2   9
ATOM      7  O   UNL     1     -18.172  43.101 -11.919  0.00  0.00    +0.000 OA
ATOM      8  N   UNL     1     -16.307  42.338 -10.771  0.00  0.00    +0.000 N 
ATOM      9  C   UNL     1     -17.686  42.438 -10.987  0.00  0.00    +0.000 C 
ATOM     10  C   UNL     1     -15.320  42.988 -11.602  0.00  0.00    +0.000 C 
ATOM     11  H   UNL     1     -15.957  41.857  -9.948  0.00  0.00    +0.000 HD
ENDBRANCH   2   9
BRANCH   3  12
ATOM     12  N   UNL     1     -19.621  40.530 -11.827  0.00  0.00    +0.000 N 
ATOM     13  C   UNL     1     -19.202  39.303 -12.396  0.00  0.00    +0.000 C 
ATOM     14  H   UNL     1     -20.296  41.077 -12.350  0.00  0.00    +0.000 HD
ENDBRANCH   3  12
TORSDOF 2
ENDMDL
MODEL 2
REMARK VINA RESULT:    -5.165      1.641      3.287
REMARK INTER + INTRA:          -6.144
REMARK INTER:                  -5.870
REMARK INTRA:                  -0.274
REMARK UNBOUND:                -0.375
REMARK  Name = 13425159
REMARK  4 active torsions:
REMARK  status: ('A' for Active; 'I' for Inactive)
REMARK    1  A    between atoms: N_2  and  C_6
REMARK    2  A    between atoms: N_2  and  C_11
REMARK    3  A    between atoms: N_4  and  C_12
REMARK    4  A    between atoms: C_5  and  C_8
REMARK                            x       y       z     vdW  Elec       q    Type
REMARK                         _______ _______ _______ _____ _____    ______ ____
ROOT
ATOM      1  N   UNL     1     -18.856  42.522  -7.878  0.00  0.00    +0.000 NA
ATOM      2  C   UNL     1     -19.046  40.793  -9.558  0.00  0.00    +0.000 A 
ATOM      3  C   UNL     1     -18.443  41.917  -9.015  0.00  0.00    +0.000 A 
ATOM      4  C   UNL     1     -20.142  40.258  -8.892  0.00  0.00    +0.000 A 
ATOM      5  C   UNL     1     -20.596  40.852  -7.720  0.00  0.00    +0.000 A 
ATOM      6  C   UNL     1     -19.924  41.973  -7.259  0.00  0.00    +0.000 A 
ENDROOT
BRANCH   2   9
ATOM      7  O   UNL     1     -17.414  39.738 -10.870  0.00  0.00    +0.000 OA
ATOM      8  N   UNL     1     -19.502  40.046 -11.829  0.00  0.00    +0.000 N 
ATOM      9  C   UNL     1     -18.578  40.163 -10.785  0.00  0.00    +0.000 C 
ATOM     10  C   UNL     1     -19.197  39.425 -13.098  0.00  0.00    +0.000 C 
ATOM     11  H   UNL     1     -20.466  40.330 -11.687  0.00  0.00    +0.000 HD
ENDBRANCH   2   9
BRANCH   3  12
ATOM     12  N   UNL     1     -17.326  42.470  -9.689  0.00  0.00    +0.000 N 
ATOM     13  C   UNL     1     -17.456  43.398 -10.751  0.00  0.00    +0.000 C 
ATOM     14  H   UNL     1     -16.437  42.445  -9.201  0.00  0.00    +0.000 HD
ENDBRANCH   3  12
TORSDOF 2
ENDMDL
MODEL 3
REMARK VINA RESULT:    -4.976      1.786      4.249
REMARK INTER + INTRA:          -5.933
REMARK INTER:                  -5.612
REMARK INTRA:                  -0.320
REMARK UNBOUND:                -0.375
REMARK  Name = 13425159
REMARK  4 active torsions:
REMARK  status: ('A' for Active; 'I' for Inactive)
REMARK    1  A    between atoms: N_2  and  C_6
REMARK    2  A    between atoms: N_2  and  C_11
REMARK    3  A    between atoms: N_4  and  C_12
REMARK    4  A    between atoms: C_5  and  C_8
REMARK                            x       y       z     vdW  Elec       q    Type
REMARK                         _______ _______ _______ _____ _____    ______ ____
ROOT
ATOM      1  N   UNL     1     -17.679  41.373 -12.214  0.00  0.00    +0.000 NA
ATOM      2  C   UNL     1     -18.854  40.999 -10.134  0.00  0.00    +0.000 A 
ATOM      3  C   UNL     1     -18.070  41.767 -10.981  0.00  0.00    +0.000 A 
ATOM      4  C   UNL     1     -19.261  39.748 -10.581  0.00  0.00    +0.000 A 
ATOM      5  C   UNL     1     -18.879  39.307 -11.843  0.00  0.00    +0.000 A 
ATOM      6  C   UNL     1     -18.094  40.151 -12.614  0.00  0.00    +0.000 A 
ENDROOT
BRANCH   2   9
ATOM      7  O   UNL     1     -18.441  42.004  -8.056  0.00  0.00    +0.000 OA
ATOM      8  N   UNL     1     -20.599  41.254  -8.456  0.00  0.00    +0.000 N 
ATOM      9  C   UNL     1     -19.259  41.452  -8.810  0.00  0.00    +0.000 C 
ATOM     10  C   UNL     1     -21.159  41.668  -7.190  0.00  0.00    +0.000 C 
ATOM     11  H   UNL     1     -21.251  40.876  -9.135  0.00  0.00    +0.000 HD
ENDBRANCH   2   9
BRANCH   3  12
ATOM     12  N   UNL     1     -17.649  43.044 -10.532  0.00  0.00    +0.000 N 
ATOM     13  C   UNL     1     -17.402  44.122 -11.416  0.00  0.00    +0.000 C 
ATOM     14  H   UNL     1     -17.834  43.273  -9.561  0.00  0.00    +0.000 HD
ENDBRANCH   3  12
TORSDOF 2
ENDMDL
MODEL 4
REMARK VINA RESULT:    -4.957      2.353      3.049
REMARK INTER + INTRA:          -5.911
REMARK INTER:                  -5.534
REMARK INTRA:                  -0.377
REMARK UNBOUND:                -0.375
REMARK  Name = 13425159
REMARK  4 active torsions:
REMARK  status: ('A' for Active; 'I' for Inactive)
REMARK    1  A    between atoms: N_2  and  C_6
REMARK    2  A    between atoms: N_2  and  C_11
REMARK    3  A    between atoms: N_4  and  C_12
REMARK    4  A    between atoms: C_5  and  C_8
REMARK                            x       y       z     vdW  Elec       q    Type
REMARK                         _______ _______ _______ _____ _____    ______ ____
ROOT
ATOM      1  N   UNL     1     -19.121  40.680 -13.222  0.00  0.00    +0.000 NA
ATOM      2  C   UNL     1     -17.351  41.548 -11.823  0.00  0.00    +0.000 A 
ATOM      3  C   UNL     1     -18.174  41.602 -12.936  0.00  0.00    +0.000 A 
ATOM      4  C   UNL     1     -17.509  40.479 -10.948  0.00  0.00    +0.000 A 
ATOM      5  C   UNL     1     -18.471  39.511 -11.208  0.00  0.00    +0.000 A 
ATOM      6  C   UNL     1     -19.245  39.656 -12.349  0.00  0.00    +0.000 A 
ENDROOT
BRANCH   2   9
ATOM      7  O   UNL     1     -16.651  43.759 -11.475  0.00  0.00    +0.000 OA
ATOM      8  N   UNL     1     -15.032  42.104 -11.332  0.00  0.00    +0.000 N 
ATOM      9  C   UNL     1     -16.339  42.558 -11.541  0.00  0.00    +0.000 C 
ATOM     10  C   UNL     1     -13.925  42.978 -11.020  0.00  0.00    +0.000 C 
ATOM     11  H   UNL     1     -14.839  41.108 -11.311  0.00  0.00    +0.000 HD
ENDBRANCH   2   9
BRANCH   3  12
ATOM     12  N   UNL     1     -18.018  42.687 -13.833  0.00  0.00    +0.000 N 
ATOM     13  C   UNL     1     -19.119  43.382 -14.392  0.00  0.00    +0.000 C 
ATOM     14  H   UNL     1     -17.124  43.167 -13.823  0.00  0.00    +0.000 HD
ENDBRANCH   3  12
TORSDOF 2
ENDMDL
MODEL 5
REMARK VINA RESULT:    -4.891      2.750      4.245
REMARK INTER + INTRA:          -5.837
REMARK INTER:                  -5.440
REMARK INTRA:                  -0.397
REMARK UNBOUND:                -0.375
REMARK  Name = 13425159
REMARK  4 active torsions:
REMARK  status: ('A' for Active; 'I' for Inactive)
REMARK    1  A    between atoms: N_2  and  C_6
REMARK    2  A    between atoms: N_2  and  C_11
REMARK    3  A    between atoms: N_4  and  C_12
REMARK    4  A    between atoms: C_5  and  C_8
REMARK                            x       y       z     vdW  Elec       q    Type
REMARK                         _______ _______ _______ _____ _____    ______ ____
ROOT
ATOM      1  N   UNL     1     -16.771  40.562 -11.830  0.00  0.00    +0.000 NA
ATOM      2  C   UNL     1     -18.623  41.705 -12.883  0.00  0.00    +0.000 A 
ATOM      3  C   UNL     1     -17.276  41.556 -12.596  0.00  0.00    +0.000 A 
ATOM      4  C   UNL     1     -19.508  40.776 -12.349  0.00  0.00    +0.000 A 
ATOM      5  C   UNL     1     -19.028  39.740 -11.557  0.00  0.00    +0.000 A 
ATOM      6  C   UNL     1     -17.662  39.678 -11.329  0.00  0.00    +0.000 A 
ENDROOT
BRANCH   2   9
ATOM      7  O   UNL     1     -18.990  43.971 -13.364  0.00  0.00    +0.000 OA
ATOM      8  N   UNL     1     -19.769  42.424 -14.906  0.00  0.00    +0.000 N 
ATOM      9  C   UNL     1     -19.137  42.787 -13.712  0.00  0.00    +0.000 C 
ATOM     10  C   UNL     1     -20.309  43.381 -15.845  0.00  0.00    +0.000 C 
ATOM     11  H   UNL     1     -19.791  41.451 -15.192  0.00  0.00    +0.000 HD
ENDBRANCH   2   9
BRANCH   3  12
ATOM     12  N   UNL     1     -16.366  42.500 -13.134  0.00  0.00    +0.000 N 
ATOM     13  C   UNL     1     -15.587  43.361 -12.323  0.00  0.00    +0.000 C 
ATOM     14  H   UNL     1     -16.042  42.336 -14.081  0.00  0.00    +0.000 HD
ENDBRANCH   3  12
TORSDOF 2
ENDMDL
