MODEL 1
REMARK VINA RESULT:    -5.889      0.000      0.000
REMARK INTER + INTRA:          -6.882
REMARK INTER:                  -6.578
REMARK INTRA:                  -0.304
REMARK UNBOUND:                -0.304
REMARK  Name = 13466149
REMARK  3 active torsions:
REMARK  status: ('A' for Active; 'I' for Inactive)
REMARK    1  A    between atoms: N_2  and  C_6
REMARK    2  A    between atoms: N_2  and  C_11
REMARK    3  A    between atoms: C_5  and  C_9
REMARK                            x       y       z     vdW  Elec       q    Type
REMARK                         _______ _______ _______ _____ _____    ______ ____
ROOT
ATOM      1  N   UNL     1     -18.539  42.282  -8.285  0.00  0.00    +0.000 NA
ATOM      2  C   UNL     1     -19.373  40.681  -9.894  0.00  0.00    +0.000 A 
ATOM      3  C   UNL     1     -18.446  41.613  -9.457  0.00  0.00    +0.000 A 
ATOM      4  C   UNL     1     -20.467  40.419  -9.076  0.00  0.00    +0.000 A 
ATOM      5  C   UNL     1     -20.598  41.086  -7.863  0.00  0.00    +0.000 A 
ATOM      6  C   UNL     1     -19.615  42.000  -7.518  0.00  0.00    +0.000 A 
ENDROOT
BRANCH   2   9
ATOM      7  O   UNL     1     -18.495  38.993 -11.282  0.00  0.00    +0.000 OA
ATOM      8  N   UNL     1     -20.010  40.429 -12.232  0.00  0.00    +0.000 N 
ATOM      9  C   UNL     1     -19.246  39.976 -11.162  0.00  0.00    +0.000 C 
ATOM     10  H   UNL     1     -20.635  41.225 -12.149  0.00  0.00    +0.000 HD
ATOM     11  H   UNL     1     -19.967  39.970 -13.135  0.00  0.00    +0.000 HD
ENDBRANCH   2   9
BRANCH   3  12
ATOM     12  N   UNL     1     -17.329  41.887 -10.286  0.00  0.00    +0.000 N 
ATOM     13  C   UNL     1     -17.222  43.077 -11.063  0.00  0.00    +0.000 C 
ATOM     14  H   UNL     1     -16.476  41.372 -10.097  0.00  0.00    +0.000 HD
ENDBRANCH   3  12
TORSDOF 2
ENDMDL
MODEL 2
REMARK VINA RESULT:    -4.983      1.735      3.003
REMARK INTER + INTRA:          -5.869
REMARK INTER:                  -5.529
REMARK INTRA:                  -0.340
REMARK UNBOUND:                -0.304
REMARK  Name = 13466149
REMARK  3 active torsions:
REMARK  status: ('A' for Active; 'I' for Inactive)
REMARK    1  A    between atoms: N_2  and  C_6
REMARK    2  A    between atoms: N_2  and  C_11
REMARK    3  A    between atoms: C_5  and  C_9
REMARK                            x       y       z     vdW  Elec       q    Type
REMARK                         _______ _______ _______ _____ _____    ______ ____
ROOT
ATOM      1  N   UNL     1     -20.377  40.186  -9.554  0.00  0.00    +0.000 NA
ATOM      2  C   UNL     1     -18.554  41.700 -10.034  0.00  0.00    +0.000 A 
ATOM      3  C   UNL     1     -19.535  40.800 -10.416  0.00  0.00    +0.000 A 
ATOM      4  C   UNL     1     -18.428  41.988  -8.679  0.00  0.00    +0.000 A 
ATOM      5  C   UNL     1     -19.275  41.377  -7.761  0.00  0.00    +0.000 A 
ATOM      6  C   UNL     1     -20.224  40.492  -8.246  0.00  0.00    +0.000 A 
ENDROOT
BRANCH   2   9
ATOM      7  O   UNL     1     -18.099  43.092 -11.878  0.00  0.00    +0.000 OA
ATOM      8  N   UNL     1     -16.296  42.116 -10.850  0.00  0.00    +0.000 N 
ATOM      9  C   UNL     1     -17.661  42.346 -10.986  0.00  0.00    +0.000 C 
ATOM     10  H   UNL     1     -15.921  41.516 -10.122  0.00  0.00    +0.000 HD
ATOM     11  H   UNL     1     -15.629  42.546 -11.481  0.00  0.00    +0.000 HD
ENDBRANCH   2   9
BRANCH   3  12
ATOM     12  N   UNL     1     -19.669  40.501 -11.795  0.00  0.00    +0.000 N 
ATOM     13  C   UNL     1     -19.171  39.296 -12.372  0.00  0.00    +0.000 C 
ATOM     14  H   UNL     1     -20.377  41.010 -12.313  0.00  0.00    +0.000 HD
ENDBRANCH   3  12
TORSDOF 2
ENDMDL
MODEL 3
REMARK VINA RESULT:    -4.842      2.699      3.686
REMARK INTER + INTRA:          -5.712
REMARK INTER:                  -5.428
REMARK INTRA:                  -0.284
REMARK UNBOUND:                -0.304
REMARK  Name = 13466149
REMARK  3 active torsions:
REMARK  status: ('A' for Active; 'I' for Inactive)
REMARK    1  A    between atoms: N_2  and  C_6
REMARK    2  A    between atoms: N_2  and  C_11
REMARK    3  A    between atoms: C_5  and  C_9
REMARK                            x       y       z     vdW  Elec       q    Type
REMARK                         _______ _______ _______ _____ _____    ______ ____
ROOT
ATOM      1  N   UNL     1     -18.372  43.780 -12.778  0.00  0.00    +0.000 NA
ATOM      2  C   UNL     1     -18.664  41.549 -11.891  0.00  0.00    +0.000 A 
ATOM      3  C   UNL     1     -18.865  42.523 -12.856  0.00  0.00    +0.000 A 
ATOM      4  C   UNL     1     -17.908  41.887 -10.774  0.00  0.00    +0.000 A 
ATOM      5  C   UNL     1     -17.382  43.169 -10.658  0.00  0.00    +0.000 A 
ATOM      6  C   UNL     1     -17.641  44.070 -11.679  0.00  0.00    +0.000 A 
ENDROOT
BRANCH   2   9
ATOM      7  O   UNL     1     -19.176  39.580 -13.077  0.00  0.00    +0.000 OA
ATOM      8  N   UNL     1     -19.752  39.630 -10.858  0.00  0.00    +0.000 N 
ATOM      9  C   UNL     1     -19.209  40.203 -12.003  0.00  0.00    +0.000 C 
ATOM     10  H   UNL     1     -19.780  40.122  -9.970  0.00  0.00    +0.000 HD
ATOM     11  H   UNL     1     -20.139  38.693 -10.876  0.00  0.00    +0.000 HD
ENDBRANCH   2   9
BRANCH   3  12
ATOM     12  N   UNL     1     -19.636  42.187 -13.997  0.00  0.00    +0.000 N 
ATOM     13  C   UNL     1     -19.930  43.125 -15.030  0.00  0.00    +0.000 C 
ATOM     14  H   UNL     1     -19.730  41.202 -14.219  0.00  0.00    +0.000 HD
ENDBRANCH   3  12
TORSDOF 2
ENDMDL
MODEL 4
REMARK VINA RESULT:    -4.760      3.632      4.360
REMARK INTER + INTRA:          -5.621
REMARK INTER:                  -5.289
REMARK INTRA:                  -0.331
REMARK UNBOUND:                -0.304
REMARK  Name = 13466149
REMARK  3 active torsions:
REMARK  status: ('A' for Active; 'I' for Inactive)
REMARK    1  A    between atoms: N_2  and  C_6
REMARK    2  A    between atoms: N_2  and  C_11
REMARK    3  A    between atoms: C_5  and  C_9
REMARK                            x       y       z     vdW  Elec       q    Type
REMARK                         _______ _______ _______ _____ _____    ______ ____
ROOT
ATOM      1  N   UNL     1     -18.441  44.126 -13.276  0.00  0.00    +0.000 NA
ATOM      2  C   UNL     1     -17.886  41.842 -12.709  0.00  0.00    +0.000 A 
ATOM      3  C   UNL     1     -18.440  42.800 -13.542  0.00  0.00    +0.000 A 
ATOM      4  C   UNL     1     -17.294  42.272 -11.526  0.00  0.00    +0.000 A 
ATOM      5  C   UNL     1     -17.275  43.628 -11.217  0.00  0.00    +0.000 A 
ATOM      6  C   UNL     1     -17.856  44.505 -12.118  0.00  0.00    +0.000 A 
ENDROOT
BRANCH   2   9
ATOM      7  O   UNL     1     -18.969  39.803 -13.172  0.00  0.00    +0.000 OA
ATOM      8  N   UNL     1     -16.675  39.777 -13.166  0.00  0.00    +0.000 N 
ATOM      9  C   UNL     1     -17.901  40.419 -13.022  0.00  0.00    +0.000 C 
ATOM     10  H   UNL     1     -15.793  40.267 -13.054  0.00  0.00    +0.000 HD
ATOM     11  H   UNL     1     -16.627  38.789 -13.391  0.00  0.00    +0.000 HD
ENDBRANCH   2   9
BRANCH   3  12
ATOM     12  N   UNL     1     -19.045  42.369 -14.749  0.00  0.00    +0.000 N 
ATOM     13  C   UNL     1     -20.039  43.134 -15.427  0.00  0.00    +0.000 C 
ATOM     14  H   UNL     1     -18.560  41.656 -15.282  0.00  0.00    +0.000 HD
ENDBRANCH   3  12
TORSDOF 2
ENDMDL
MODEL 5
REMARK VINA RESULT:    -4.712      2.862      4.194
REMARK INTER + INTRA:          -5.567
REMARK INTER:                  -5.204
REMARK INTRA:                  -0.363
REMARK UNBOUND:                -0.304
REMARK  Name = 13466149
REMARK  3 active torsions:
REMARK  status: ('A' for Active; 'I' for Inactive)
REMARK    1  A    between atoms: N_2  and  C_6
REMARK    2  A    between atoms: N_2  and  C_11
REMARK    3  A    between atoms: C_5  and  C_9
REMARK                            x       y       z     vdW  Elec       q    Type
REMARK                         _______ _______ _______ _____ _____    ______ ____
ROOT
ATOM      1  N   UNL     1     -19.019  40.379 -13.201  0.00  0.00    +0.000 NA
ATOM      2  C   UNL     1     -17.732  41.650 -11.596  0.00  0.00    +0.000 A 
ATOM      3  C   UNL     1     -18.290  41.463 -12.850  0.00  0.00    +0.000 A 
ATOM      4  C   UNL     1     -17.935  40.661 -10.640  0.00  0.00    +0.000 A 
ATOM      5  C   UNL     1     -18.680  39.532 -10.962  0.00  0.00    +0.000 A 
ATOM      6  C   UNL     1     -19.195  39.440 -12.245  0.00  0.00    +0.000 A 
ENDROOT
BRANCH   2   9
ATOM      7  O   UNL     1     -17.466  43.958 -11.214  0.00  0.00    +0.000 OA
ATOM      8  N   UNL     1     -15.608  42.643 -10.934  0.00  0.00    +0.000 N 
ATOM      9  C   UNL     1     -16.950  42.828 -11.247  0.00  0.00    +0.000 C 
ATOM     10  H   UNL     1     -15.173  41.726 -10.949  0.00  0.00    +0.000 HD
ATOM     11  H   UNL     1     -15.019  43.428 -10.677  0.00  0.00    +0.000 HD
ENDBRANCH   2   9
BRANCH   3  12
ATOM     12  N   UNL     1     -18.086  42.466 -13.830  0.00  0.00    +0.000 N 
ATOM     13  C   UNL     1     -19.162  43.182 -14.433  0.00  0.00    +0.000 C 
ATOM     14  H   UNL     1     -17.161  42.877 -13.888  0.00  0.00    +0.000 HD
ENDBRANCH   3  12
TORSDOF 2
ENDMDL
