MODEL 1
REMARK VINA RESULT:    -6.311      0.000      0.000
REMARK INTER + INTRA:          -8.004
REMARK INTER:                  -7.417
REMARK INTRA:                  -0.587
REMARK UNBOUND:                -0.587
REMARK  Name = 135307746
REMARK  4 active torsions:
REMARK  status: ('A' for Active; 'I' for Inactive)
REMARK    1  A    between atoms: S_1  and  N_5
REMARK    2  A    between atoms: S_1  and  C_10
REMARK    3  A    between atoms: N_5  and  C_8
REMARK    4  A    between atoms: C_9  and  C_13
REMARK                            x       y       z     vdW  Elec       q    Type
REMARK                         _______ _______ _______ _____ _____    ______ ____
ROOT
ATOM      1  N   UNL     1     -18.462  42.206  -8.286  0.00  0.00    +0.000 NA
ATOM      2  C   UNL     1     -18.386  41.520  -9.449  0.00  0.00    +0.000 A 
ATOM      3  C   UNL     1     -19.374  40.665  -9.910  0.00  0.00    +0.000 A 
ATOM      4  C   UNL     1     -20.513  40.504  -9.129  0.00  0.00    +0.000 A 
ATOM      5  C   UNL     1     -20.627  41.193  -7.926  0.00  0.00    +0.000 A 
ATOM      6  C   UNL     1     -19.584  42.024  -7.553  0.00  0.00    +0.000 A 
ENDROOT
BRANCH   3   9
ATOM      7  O   UNL     1     -18.506  38.957 -11.281  0.00  0.00    +0.000 OA
ATOM      8  N   UNL     1     -20.026  40.381 -12.240  0.00  0.00    +0.000 N 
ATOM      9  C   UNL     1     -19.255  39.942 -11.168  0.00  0.00    +0.000 C 
ATOM     10  H   UNL     1     -20.651  41.178 -12.165  0.00  0.00    +0.000 HD
ATOM     11  H   UNL     1     -19.986  39.911 -13.138  0.00  0.00    +0.000 HD
ENDBRANCH   3   9
BRANCH   2  12
ATOM     12  N   UNL     1     -17.190  41.730 -10.204  0.00  0.00    +0.000 N 
ATOM     13  H   UNL     1     -16.306  41.542  -9.718  0.00  0.00    +0.000 HD
BRANCH  12  14
ATOM     14  S   UNL     1     -17.179  42.996 -11.370  0.00  0.00    +0.000 S 
ATOM     15  O   UNL     1     -17.738  42.483 -12.606  0.00  0.00    +0.000 OA
ATOM     16  O   UNL     1     -17.667  44.235 -10.797  0.00  0.00    +0.000 OA
ATOM     17  C   UNL     1     -15.427  43.168 -11.630  0.00  0.00    +0.000 C 
ENDBRANCH  12  14
ENDBRANCH   2  12
TORSDOF 3
ENDMDL
MODEL 2
REMARK VINA RESULT:    -5.113      2.921      4.859
REMARK INTER + INTRA:          -6.597
REMARK INTER:                  -6.369
REMARK INTRA:                  -0.228
REMARK UNBOUND:                -0.587
REMARK  Name = 135307746
REMARK  4 active torsions:
REMARK  status: ('A' for Active; 'I' for Inactive)
REMARK    1  A    between atoms: S_1  and  N_5
REMARK    2  A    between atoms: S_1  and  C_10
REMARK    3  A    between atoms: N_5  and  C_8
REMARK    4  A    between atoms: C_9  and  C_13
REMARK                            x       y       z     vdW  Elec       q    Type
REMARK                         _______ _______ _______ _____ _____    ______ ____
ROOT
ATOM      1  N   UNL     1     -19.756  42.299 -13.587  0.00  0.00    +0.000 NA
ATOM      2  C   UNL     1     -19.088  42.160 -12.420  0.00  0.00    +0.000 A 
ATOM      3  C   UNL     1     -18.029  42.966 -12.032  0.00  0.00    +0.000 A 
ATOM      4  C   UNL     1     -17.632  43.980 -12.897  0.00  0.00    +0.000 A 
ATOM      5  C   UNL     1     -18.294  44.153 -14.107  0.00  0.00    +0.000 A 
ATOM      6  C   UNL     1     -19.340  43.295 -14.403  0.00  0.00    +0.000 A 
ENDROOT
BRANCH   3   9
ATOM      7  O   UNL     1     -17.908  42.974  -9.680  0.00  0.00    +0.000 OA
ATOM      8  N   UNL     1     -16.006  42.374 -10.812  0.00  0.00    +0.000 N 
ATOM      9  C   UNL     1     -17.334  42.785 -10.766  0.00  0.00    +0.000 C 
ATOM     10  H   UNL     1     -15.524  42.205 -11.689  0.00  0.00    +0.000 HD
ATOM     11  H   UNL     1     -15.476  42.226  -9.959  0.00  0.00    +0.000 HD
ENDBRANCH   3   9
BRANCH   2  12
ATOM     12  N   UNL     1     -19.546  41.100 -11.577  0.00  0.00    +0.000 N 
ATOM     13  H   UNL     1     -19.963  41.379 -10.681  0.00  0.00    +0.000 HD
BRANCH  12  14
ATOM     14  S   UNL     1     -18.677  39.615 -11.597  0.00  0.00    +0.000 S 
ATOM     15  O   UNL     1     -17.694  39.647 -10.531  0.00  0.00    +0.000 OA
ATOM     16  O   UNL     1     -19.577  38.487 -11.736  0.00  0.00    +0.000 OA
ATOM     17  C   UNL     1     -17.786  39.793 -13.126  0.00  0.00    +0.000 C 
ENDBRANCH  12  14
ENDBRANCH   2  12
TORSDOF 3
ENDMDL
MODEL 3
REMARK VINA RESULT:    -5.061      3.391      5.406
REMARK INTER + INTRA:          -6.535
REMARK INTER:                  -5.933
REMARK INTRA:                  -0.603
REMARK UNBOUND:                -0.587
REMARK  Name = 135307746
REMARK  4 active torsions:
REMARK  status: ('A' for Active; 'I' for Inactive)
REMARK    1  A    between atoms: S_1  and  N_5
REMARK    2  A    between atoms: S_1  and  C_10
REMARK    3  A    between atoms: N_5  and  C_8
REMARK    4  A    between atoms: C_9  and  C_13
REMARK                            x       y       z     vdW  Elec       q    Type
REMARK                         _______ _______ _______ _____ _____    ______ ____
ROOT
ATOM      1  N   UNL     1     -19.965  42.419 -14.427  0.00  0.00    +0.000 NA
ATOM      2  C   UNL     1     -19.216  42.731 -13.346  0.00  0.00    +0.000 A 
ATOM      3  C   UNL     1     -18.444  43.877 -13.242  0.00  0.00    +0.000 A 
ATOM      4  C   UNL     1     -18.440  44.759 -14.316  0.00  0.00    +0.000 A 
ATOM      5  C   UNL     1     -19.198  44.473 -15.446  0.00  0.00    +0.000 A 
ATOM      6  C   UNL     1     -19.936  43.301 -15.453  0.00  0.00    +0.000 A 
ENDROOT
BRANCH   3   9
ATOM      7  O   UNL     1     -16.887  43.332 -11.560  0.00  0.00    +0.000 OA
ATOM      8  N   UNL     1     -17.758  45.453 -11.516  0.00  0.00    +0.000 N 
ATOM      9  C   UNL     1     -17.650  44.177 -12.060  0.00  0.00    +0.000 C 
ATOM     10  H   UNL     1     -18.367  46.160 -11.916  0.00  0.00    +0.000 HD
ATOM     11  H   UNL     1     -17.223  45.718 -10.696  0.00  0.00    +0.000 HD
ENDBRANCH   3   9
BRANCH   2  12
ATOM     12  N   UNL     1     -19.264  41.782 -12.277  0.00  0.00    +0.000 N 
ATOM     13  H   UNL     1     -19.229  42.167 -11.325  0.00  0.00    +0.000 HD
BRANCH  12  14
ATOM     14  S   UNL     1     -18.521  40.249 -12.520  0.00  0.00    +0.000 S 
ATOM     15  O   UNL     1     -19.561  39.276 -12.794  0.00  0.00    +0.000 OA
ATOM     16  O   UNL     1     -17.368  40.362 -13.392  0.00  0.00    +0.000 OA
ATOM     17  C   UNL     1     -17.930  39.922 -10.874  0.00  0.00    +0.000 C 
ENDBRANCH  12  14
ENDBRANCH   2  12
TORSDOF 3
ENDMDL
MODEL 4
REMARK VINA RESULT:    -4.667      3.011      3.681
REMARK INTER + INTRA:          -6.073
REMARK INTER:                  -5.529
REMARK INTRA:                  -0.544
REMARK UNBOUND:                -0.587
REMARK  Name = 135307746
REMARK  4 active torsions:
REMARK  status: ('A' for Active; 'I' for Inactive)
REMARK    1  A    between atoms: S_1  and  N_5
REMARK    2  A    between atoms: S_1  and  C_10
REMARK    3  A    between atoms: N_5  and  C_8
REMARK    4  A    between atoms: C_9  and  C_13
REMARK                            x       y       z     vdW  Elec       q    Type
REMARK                         _______ _______ _______ _____ _____    ______ ____
ROOT
ATOM      1  N   UNL     1     -16.600  41.331 -11.753  0.00  0.00    +0.000 NA
ATOM      2  C   UNL     1     -17.269  42.090 -12.650  0.00  0.00    +0.000 A 
ATOM      3  C   UNL     1     -18.629  41.982 -12.895  0.00  0.00    +0.000 A 
ATOM      4  C   UNL     1     -19.348  41.036 -12.172  0.00  0.00    +0.000 A 
ATOM      5  C   UNL     1     -18.694  40.237 -11.241  0.00  0.00    +0.000 A 
ATOM      6  C   UNL     1     -17.332  40.421 -11.070  0.00  0.00    +0.000 A 
ENDROOT
BRANCH   3   9
ATOM      7  O   UNL     1     -19.615  42.385 -14.996  0.00  0.00    +0.000 OA
ATOM      8  N   UNL     1     -19.641  44.116 -13.492  0.00  0.00    +0.000 N 
ATOM      9  C   UNL     1     -19.315  42.818 -13.870  0.00  0.00    +0.000 C 
ATOM     10  H   UNL     1     -19.413  44.484 -12.574  0.00  0.00    +0.000 HD
ATOM     11  H   UNL     1     -20.125  44.739 -14.130  0.00  0.00    +0.000 HD
ENDBRANCH   3   9
BRANCH   2  12
ATOM     12  N   UNL     1     -16.473  43.043 -13.359  0.00  0.00    +0.000 N 
ATOM     13  H   UNL     1     -15.801  42.661 -14.035  0.00  0.00    +0.000 HD
BRANCH  12  14
ATOM     14  S   UNL     1     -16.010  44.483 -12.538  0.00  0.00    +0.000 S 
ATOM     15  O   UNL     1     -17.130  44.928 -11.731  0.00  0.00    +0.000 OA
ATOM     16  O   UNL     1     -14.689  44.350 -11.957  0.00  0.00    +0.000 OA
ATOM     17  C   UNL     1     -15.890  45.604 -13.915  0.00  0.00    +0.000 C 
ENDBRANCH  12  14
ENDBRANCH   2  12
TORSDOF 3
ENDMDL
MODEL 5
REMARK VINA RESULT:    -4.488      5.556      6.891
REMARK INTER + INTRA:          -5.862
REMARK INTER:                  -5.388
REMARK INTRA:                  -0.475
REMARK UNBOUND:                -0.587
REMARK  Name = 135307746
REMARK  4 active torsions:
REMARK  status: ('A' for Active; 'I' for Inactive)
REMARK    1  A    between atoms: S_1  and  N_5
REMARK    2  A    between atoms: S_1  and  C_10
REMARK    3  A    between atoms: N_5  and  C_8
REMARK    4  A    between atoms: C_9  and  C_13
REMARK                            x       y       z     vdW  Elec       q    Type
REMARK                         _______ _______ _______ _____ _____    ______ ____
ROOT
ATOM      1  N   UNL     1     -19.123  45.684 -16.259  0.00  0.00    +0.000 NA
ATOM      2  C   UNL     1     -19.064  44.424 -15.772  0.00  0.00    +0.000 A 
ATOM      3  C   UNL     1     -18.749  44.116 -14.457  0.00  0.00    +0.000 A 
ATOM      4  C   UNL     1     -18.480  45.168 -13.588  0.00  0.00    +0.000 A 
ATOM      5  C   UNL     1     -18.531  46.477 -14.053  0.00  0.00    +0.000 A 
ATOM      6  C   UNL     1     -18.855  46.681 -15.385  0.00  0.00    +0.000 A 
ENDROOT
BRANCH   3   9
ATOM      7  O   UNL     1     -19.700  42.016 -13.977  0.00  0.00    +0.000 OA
ATOM      8  N   UNL     1     -17.470  42.272 -13.512  0.00  0.00    +0.000 N 
ATOM      9  C   UNL     1     -18.694  42.745 -13.970  0.00  0.00    +0.000 C 
ATOM     10  H   UNL     1     -16.635  42.849 -13.508  0.00  0.00    +0.000 HD
ATOM     11  H   UNL     1     -17.373  41.322 -13.167  0.00  0.00    +0.000 HD
ENDBRANCH   3   9
BRANCH   2  12
ATOM     12  N   UNL     1     -19.351  43.390 -16.716  0.00  0.00    +0.000 N 
ATOM     13  H   UNL     1     -18.662  43.254 -17.465  0.00  0.00    +0.000 HD
BRANCH  12  14
ATOM     14  S   UNL     1     -20.998  43.092 -17.116  0.00  0.00    +0.000 S 
ATOM     15  O   UNL     1     -21.097  41.757 -17.676  0.00  0.00    +0.000 OA
ATOM     16  O   UNL     1     -21.878  43.508 -16.041  0.00  0.00    +0.000 OA
ATOM     17  C   UNL     1     -21.206  44.234 -18.464  0.00  0.00    +0.000 C 
ENDBRANCH  12  14
ENDBRANCH   2  12
TORSDOF 3
ENDMDL
