MODEL 1
REMARK VINA RESULT:    -7.147      0.000      0.000
REMARK INTER + INTRA:          -8.231
REMARK INTER:                  -7.982
REMARK INTRA:                  -0.249
REMARK UNBOUND:                -0.249
REMARK  Name = 135434856
REMARK  2 active torsions:
REMARK  status: ('A' for Active; 'I' for Inactive)
REMARK    1  A    between atoms: N_5  and  C_14
REMARK    2  A    between atoms: C_7  and  C_8
REMARK                            x       y       z     vdW  Elec       q    Type
REMARK                         _______ _______ _______ _____ _____    ______ ____
ROOT
ATOM      1  O   UNL     1     -18.370  40.752  -8.504  0.00  0.00    +0.000 OA
ATOM      2  N   UNL     1     -20.051  40.709 -10.128  0.00  0.00    +0.000 N 
ATOM      3  N   UNL     1     -20.109  40.291 -12.418  0.00  0.00    +0.000 N 
ATOM      4  N   UNL     1     -18.047  40.204 -11.193  0.00  0.00    +0.000 NA
ATOM      5  C   UNL     1     -19.547  40.872  -8.833  0.00  0.00    +0.000 C 
ATOM      6  C   UNL     1     -19.332  40.384 -11.285  0.00  0.00    +0.000 C 
ATOM      7  H   UNL     1     -21.052  40.803 -10.271  0.00  0.00    +0.000 HD
ATOM      8  H   UNL     1     -19.714  40.062 -13.324  0.00  0.00    +0.000 HD
ATOM      9  H   UNL     1     -21.110  40.452 -12.383  0.00  0.00    +0.000 HD
ENDROOT
BRANCH   5  11
ATOM     10  N   UNL     1     -22.851  41.297  -7.075  0.00  0.00    +0.000 NA
ATOM     11  C   UNL     1     -20.546  41.256  -7.803  0.00  0.00    +0.000 A 
ATOM     12  C   UNL     1     -20.159  41.907  -6.636  0.00  0.00    +0.000 A 
ATOM     13  C   UNL     1     -21.892  40.976  -7.973  0.00  0.00    +0.000 A 
ATOM     14  C   UNL     1     -21.116  42.253  -5.689  0.00  0.00    +0.000 A 
ATOM     15  C   UNL     1     -22.437  41.929  -5.954  0.00  0.00    +0.000 A 
ENDBRANCH   5  11
BRANCH   4  17
ATOM     16  N   UNL     1     -16.766  39.621 -13.261  0.00  0.00    +0.000 NA
ATOM     17  C   UNL     1     -17.356  39.891 -12.298  0.00  0.00    +0.000 C 
ENDBRANCH   4  17
TORSDOF 2
ENDMDL
MODEL 2
REMARK VINA RESULT:    -5.811      3.483      4.625
REMARK INTER + INTRA:          -6.739
REMARK INTER:                  -6.493
REMARK INTRA:                  -0.246
REMARK UNBOUND:                -0.249
REMARK  Name = 135434856
REMARK  2 active torsions:
REMARK  status: ('A' for Active; 'I' for Inactive)
REMARK    1  A    between atoms: N_5  and  C_14
REMARK    2  A    between atoms: C_7  and  C_8
REMARK                            x       y       z     vdW  Elec       q    Type
REMARK                         _______ _______ _______ _____ _____    ______ ____
ROOT
ATOM      1  O   UNL     1     -19.710  40.600 -13.110  0.00  0.00    +0.000 OA
ATOM      2  N   UNL     1     -19.229  42.874 -12.852  0.00  0.00    +0.000 N 
ATOM      3  N   UNL     1     -19.126  44.701 -14.291  0.00  0.00    +0.000 N 
ATOM      4  N   UNL     1     -19.684  42.513 -15.104  0.00  0.00    +0.000 NA
ATOM      5  C   UNL     1     -19.406  41.559 -12.406  0.00  0.00    +0.000 C 
ATOM      6  C   UNL     1     -19.362  43.351 -14.162  0.00  0.00    +0.000 C 
ATOM      7  H   UNL     1     -19.008  43.590 -12.167  0.00  0.00    +0.000 HD
ATOM      8  H   UNL     1     -19.189  45.176 -15.185  0.00  0.00    +0.000 HD
ATOM      9  H   UNL     1     -18.879  45.270 -13.488  0.00  0.00    +0.000 HD
ENDROOT
BRANCH   5  11
ATOM     10  N   UNL     1     -17.975  41.962  -8.945  0.00  0.00    +0.000 NA
ATOM     11  C   UNL     1     -19.161  41.339 -10.957  0.00  0.00    +0.000 A 
ATOM     12  C   UNL     1     -19.846  40.352 -10.257  0.00  0.00    +0.000 A 
ATOM     13  C   UNL     1     -18.244  42.110 -10.261  0.00  0.00    +0.000 A 
ATOM     14  C   UNL     1     -19.596  40.169  -8.901  0.00  0.00    +0.000 A 
ATOM     15  C   UNL     1     -18.660  40.993  -8.298  0.00  0.00    +0.000 A 
ENDBRANCH   5  11
BRANCH   4  17
ATOM     16  N   UNL     1     -19.919  43.369 -17.443  0.00  0.00    +0.000 NA
ATOM     17  C   UNL     1     -19.813  42.967 -16.359  0.00  0.00    +0.000 C 
ENDBRANCH   4  17
TORSDOF 2
ENDMDL
MODEL 3
REMARK VINA RESULT:    -5.478      5.301      6.536
REMARK INTER + INTRA:          -6.367
REMARK INTER:                  -6.132
REMARK INTRA:                  -0.235
REMARK UNBOUND:                -0.249
REMARK  Name = 135434856
REMARK  2 active torsions:
REMARK  status: ('A' for Active; 'I' for Inactive)
REMARK    1  A    between atoms: N_5  and  C_14
REMARK    2  A    between atoms: C_7  and  C_8
REMARK                            x       y       z     vdW  Elec       q    Type
REMARK                         _______ _______ _______ _____ _____    ______ ____
ROOT
ATOM      1  O   UNL     1     -20.003  41.312 -13.354  0.00  0.00    +0.000 OA
ATOM      2  N   UNL     1     -18.673  42.869 -14.482  0.00  0.00    +0.000 N 
ATOM      3  N   UNL     1     -19.039  44.399 -16.200  0.00  0.00    +0.000 N 
ATOM      4  N   UNL     1     -20.809  42.994 -15.393  0.00  0.00    +0.000 NA
ATOM      5  C   UNL     1     -18.924  41.869 -13.536  0.00  0.00    +0.000 C 
ATOM      6  C   UNL     1     -19.582  43.425 -15.391  0.00  0.00    +0.000 C 
ATOM      7  H   UNL     1     -17.744  43.277 -14.518  0.00  0.00    +0.000 HD
ATOM      8  H   UNL     1     -19.587  44.884 -16.901  0.00  0.00    +0.000 HD
ATOM      9  H   UNL     1     -18.063  44.664 -16.118  0.00  0.00    +0.000 HD
ENDROOT
BRANCH   5  11
ATOM     10  N   UNL     1     -16.392  39.656 -11.838  0.00  0.00    +0.000 NA
ATOM     11  C   UNL     1     -17.751  41.447 -12.728  0.00  0.00    +0.000 A 
ATOM     12  C   UNL     1     -16.927  42.385 -12.116  0.00  0.00    +0.000 A 
ATOM     13  C   UNL     1     -17.443  40.106 -12.559  0.00  0.00    +0.000 A 
ATOM     14  C   UNL     1     -15.836  41.961 -11.366  0.00  0.00    +0.000 A 
ATOM     15  C   UNL     1     -15.614  40.598 -11.259  0.00  0.00    +0.000 A 
ENDBRANCH   5  11
BRANCH   4  17
ATOM     16  N   UNL     1     -22.433  43.980 -17.020  0.00  0.00    +0.000 NA
ATOM     17  C   UNL     1     -21.682  43.525 -16.261  0.00  0.00    +0.000 C 
ENDBRANCH   4  17
TORSDOF 2
ENDMDL
MODEL 4
REMARK VINA RESULT:    -5.390      4.587      6.652
REMARK INTER + INTRA:          -6.269
REMARK INTER:                  -6.043
REMARK INTRA:                  -0.227
REMARK UNBOUND:                -0.249
REMARK  Name = 135434856
REMARK  2 active torsions:
REMARK  status: ('A' for Active; 'I' for Inactive)
REMARK    1  A    between atoms: N_5  and  C_14
REMARK    2  A    between atoms: C_7  and  C_8
REMARK                            x       y       z     vdW  Elec       q    Type
REMARK                         _______ _______ _______ _____ _____    ______ ____
ROOT
ATOM      1  O   UNL     1     -18.741  43.935 -13.744  0.00  0.00    +0.000 OA
ATOM      2  N   UNL     1     -19.515  42.352 -15.281  0.00  0.00    +0.000 N 
ATOM      3  N   UNL     1     -20.487  42.456 -17.394  0.00  0.00    +0.000 N 
ATOM      4  N   UNL     1     -19.864  44.452 -16.216  0.00  0.00    +0.000 NA
ATOM      5  C   UNL     1     -18.940  42.770 -14.075  0.00  0.00    +0.000 C 
ATOM      6  C   UNL     1     -19.968  43.160 -16.331  0.00  0.00    +0.000 C 
ATOM      7  H   UNL     1     -19.600  41.355 -15.454  0.00  0.00    +0.000 HD
ATOM      8  H   UNL     1     -20.849  42.918 -18.220  0.00  0.00    +0.000 HD
ATOM      9  H   UNL     1     -20.523  41.442 -17.385  0.00  0.00    +0.000 HD
ENDROOT
BRANCH   5  11
ATOM     10  N   UNL     1     -16.907  40.203 -12.213  0.00  0.00    +0.000 NA
ATOM     11  C   UNL     1     -18.587  41.683 -13.126  0.00  0.00    +0.000 A 
ATOM     12  C   UNL     1     -19.543  41.129 -12.282  0.00  0.00    +0.000 A 
ATOM     13  C   UNL     1     -17.294  41.189 -13.054  0.00  0.00    +0.000 A 
ATOM     14  C   UNL     1     -19.183  40.113 -11.403  0.00  0.00    +0.000 A 
ATOM     15  C   UNL     1     -17.864  39.690 -11.408  0.00  0.00    +0.000 A 
ENDBRANCH   5  11
BRANCH   4  17
ATOM     16  N   UNL     1     -20.668  45.894 -18.096  0.00  0.00    +0.000 NA
ATOM     17  C   UNL     1     -20.297  45.228 -17.220  0.00  0.00    +0.000 C 
ENDBRANCH   4  17
TORSDOF 2
ENDMDL
MODEL 5
REMARK VINA RESULT:    -5.334      4.802      7.376
REMARK INTER + INTRA:          -6.206
REMARK INTER:                  -5.956
REMARK INTRA:                  -0.250
REMARK UNBOUND:                -0.249
REMARK  Name = 135434856
REMARK  2 active torsions:
REMARK  status: ('A' for Active; 'I' for Inactive)
REMARK    1  A    between atoms: N_5  and  C_14
REMARK    2  A    between atoms: C_7  and  C_8
REMARK                            x       y       z     vdW  Elec       q    Type
REMARK                         _______ _______ _______ _____ _____    ______ ____
ROOT
ATOM      1  O   UNL     1     -18.511  43.957 -13.275  0.00  0.00    +0.000 OA
ATOM      2  N   UNL     1     -19.631  41.945 -13.674  0.00  0.00    +0.000 N 
ATOM      3  N   UNL     1     -19.900  39.955 -12.494  0.00  0.00    +0.000 N 
ATOM      4  N   UNL     1     -18.604  41.764 -11.596  0.00  0.00    +0.000 NA
ATOM      5  C   UNL     1     -19.212  43.243 -13.985  0.00  0.00    +0.000 C 
ATOM      6  C   UNL     1     -19.342  41.214 -12.515  0.00  0.00    +0.000 C 
ATOM      7  H   UNL     1     -20.237  41.463 -14.332  0.00  0.00    +0.000 HD
ATOM      8  H   UNL     1     -19.770  39.322 -11.714  0.00  0.00    +0.000 HD
ATOM      9  H   UNL     1     -20.464  39.618 -13.268  0.00  0.00    +0.000 HD
ENDROOT
BRANCH   5  11
ATOM     10  N   UNL     1     -19.481  45.450 -17.026  0.00  0.00    +0.000 NA
ATOM     11  C   UNL     1     -19.644  43.752 -15.313  0.00  0.00    +0.000 A 
ATOM     12  C   UNL     1     -20.573  43.058 -16.079  0.00  0.00    +0.000 A 
ATOM     13  C   UNL     1     -19.132  44.933 -15.827  0.00  0.00    +0.000 A 
ATOM     14  C   UNL     1     -20.957  43.558 -17.319  0.00  0.00    +0.000 A 
ATOM     15  C   UNL     1     -20.387  44.747 -17.742  0.00  0.00    +0.000 A 
ENDBRANCH   5  11
BRANCH   4  17
ATOM     16  N   UNL     1     -18.083  40.457  -9.528  0.00  0.00    +0.000 NA
ATOM     17  C   UNL     1     -18.327  41.068 -10.485  0.00  0.00    +0.000 C 
ENDBRANCH   4  17
TORSDOF 2
ENDMDL
