MODEL 1
REMARK VINA RESULT:    -6.024      0.000      0.000
REMARK INTER + INTRA:          -6.024
REMARK INTER:                  -6.024
REMARK INTRA:                   0.000
REMARK UNBOUND:                 0.000
REMARK  Name = 135440277
REMARK  0 active torsions:
REMARK  status: ('A' for Active; 'I' for Inactive)
REMARK                            x       y       z     vdW  Elec       q    Type
REMARK                         _______ _______ _______ _____ _____    ______ ____
ROOT
ATOM      1  O   UNL     1     -19.581  38.549 -11.635  0.00  0.00    +0.000 OA
ATOM      2  N   UNL     1     -17.715  39.857 -12.017  0.00  0.00    +0.000 N 
ATOM      3  N   UNL     1     -17.094  41.616 -10.563  0.00  0.00    +0.000 NA
ATOM      4  N   UNL     1     -18.380  42.076  -8.671  0.00  0.00    +0.000 NA
ATOM      5  C   UNL     1     -19.089  40.268 -10.093  0.00  0.00    +0.000 A 
ATOM      6  C   UNL     1     -18.214  41.303  -9.769  0.00  0.00    +0.000 A 
ATOM      7  C   UNL     1     -18.839  39.468 -11.310  0.00  0.00    +0.000 A 
ATOM      8  C   UNL     1     -20.178  40.011  -9.263  0.00  0.00    +0.000 A 
ATOM      9  C   UNL     1     -20.362  40.795  -8.131  0.00  0.00    +0.000 A 
ATOM     10  C   UNL     1     -16.906  40.898 -11.619  0.00  0.00    +0.000 A 
ATOM     11  C   UNL     1     -19.446  41.804  -7.882  0.00  0.00    +0.000 A 
ATOM     12  H   UNL     1     -17.480  39.352 -12.867  0.00  0.00    +0.000 HD
ENDROOT
TORSDOF 0
ENDMDL
MODEL 2
REMARK VINA RESULT:    -5.482      2.219      2.821
REMARK INTER + INTRA:          -5.482
REMARK INTER:                  -5.482
REMARK INTRA:                   0.000
REMARK UNBOUND:                 0.000
REMARK  Name = 135440277
REMARK  0 active torsions:
REMARK  status: ('A' for Active; 'I' for Inactive)
REMARK                            x       y       z     vdW  Elec       q    Type
REMARK                         _______ _______ _______ _____ _____    ______ ____
ROOT
ATOM      1  O   UNL     1     -16.361  43.165 -11.738  0.00  0.00    +0.000 OA
ATOM      2  N   UNL     1     -16.850  41.270 -12.967  0.00  0.00    +0.000 N 
ATOM      3  N   UNL     1     -18.255  39.560 -12.133  0.00  0.00    +0.000 NA
ATOM      4  N   UNL     1     -19.198  39.756 -10.008  0.00  0.00    +0.000 NA
ATOM      5  C   UNL     1     -17.781  41.545 -10.772  0.00  0.00    +0.000 A 
ATOM      6  C   UNL     1     -18.406  40.313 -10.953  0.00  0.00    +0.000 A 
ATOM      7  C   UNL     1     -16.930  42.086 -11.852  0.00  0.00    +0.000 A 
ATOM      8  C   UNL     1     -17.972  42.238  -9.579  0.00  0.00    +0.000 A 
ATOM      9  C   UNL     1     -18.784  41.681  -8.599  0.00  0.00    +0.000 A 
ATOM     10  C   UNL     1     -17.505  40.063 -13.056  0.00  0.00    +0.000 A 
ATOM     11  C   UNL     1     -19.367  40.451  -8.858  0.00  0.00    +0.000 A 
ATOM     12  H   UNL     1     -16.281  41.578 -13.751  0.00  0.00    +0.000 HD
ENDROOT
TORSDOF 0
ENDMDL
MODEL 3
REMARK VINA RESULT:    -5.433      1.559      3.275
REMARK INTER + INTRA:          -5.433
REMARK INTER:                  -5.433
REMARK INTRA:                   0.000
REMARK UNBOUND:                 0.000
REMARK  Name = 135440277
REMARK  0 active torsions:
REMARK  status: ('A' for Active; 'I' for Inactive)
REMARK                            x       y       z     vdW  Elec       q    Type
REMARK                         _______ _______ _______ _____ _____    ______ ____
ROOT
ATOM      1  O   UNL     1     -19.224  38.956 -11.242  0.00  0.00    +0.000 OA
ATOM      2  N   UNL     1     -19.123  40.039  -9.203  0.00  0.00    +0.000 N 
ATOM      3  N   UNL     1     -18.223  42.216  -8.981  0.00  0.00    +0.000 NA
ATOM      4  N   UNL     1     -17.404  43.338 -10.855  0.00  0.00    +0.000 NA
ATOM      5  C   UNL     1     -18.299  41.127 -11.178  0.00  0.00    +0.000 A 
ATOM      6  C   UNL     1     -17.976  42.214 -10.367  0.00  0.00    +0.000 A 
ATOM      7  C   UNL     1     -18.923  39.934 -10.569  0.00  0.00    +0.000 A 
ATOM      8  C   UNL     1     -18.028  41.191 -12.543  0.00  0.00    +0.000 A 
ATOM      9  C   UNL     1     -17.441  42.339 -13.060  0.00  0.00    +0.000 A 
ATOM     10  C   UNL     1     -18.769  41.157  -8.482  0.00  0.00    +0.000 A 
ATOM     11  C   UNL     1     -17.151  43.373 -12.185  0.00  0.00    +0.000 A 
ATOM     12  H   UNL     1     -19.548  39.255  -8.716  0.00  0.00    +0.000 HD
ENDROOT
TORSDOF 0
ENDMDL
MODEL 4
REMARK VINA RESULT:    -5.357      2.264      3.671
REMARK INTER + INTRA:          -5.357
REMARK INTER:                  -5.357
REMARK INTRA:                   0.000
REMARK UNBOUND:                 0.000
REMARK  Name = 135440277
REMARK  0 active torsions:
REMARK  status: ('A' for Active; 'I' for Inactive)
REMARK                            x       y       z     vdW  Elec       q    Type
REMARK                         _______ _______ _______ _____ _____    ______ ____
ROOT
ATOM      1  O   UNL     1     -19.372  40.799  -9.137  0.00  0.00    +0.000 OA
ATOM      2  N   UNL     1     -19.659  39.488 -11.018  0.00  0.00    +0.000 N 
ATOM      3  N   UNL     1     -18.634  40.013 -13.084  0.00  0.00    +0.000 NA
ATOM      4  N   UNL     1     -17.283  41.906 -13.270  0.00  0.00    +0.000 NA
ATOM      5  C   UNL     1     -18.284  41.452 -11.128  0.00  0.00    +0.000 A 
ATOM      6  C   UNL     1     -18.062  41.143 -12.469  0.00  0.00    +0.000 A 
ATOM      7  C   UNL     1     -19.148  40.568 -10.319  0.00  0.00    +0.000 A 
ATOM      8  C   UNL     1     -17.687  42.586 -10.582  0.00  0.00    +0.000 A 
ATOM      9  C   UNL     1     -16.883  43.380 -11.391  0.00  0.00    +0.000 A 
ATOM     10  C   UNL     1     -19.384  39.263 -12.348  0.00  0.00    +0.000 A 
ATOM     11  C   UNL     1     -16.715  43.002 -12.713  0.00  0.00    +0.000 A 
ATOM     12  H   UNL     1     -20.263  38.836 -10.525  0.00  0.00    +0.000 HD
ENDROOT
TORSDOF 0
ENDMDL
MODEL 5
REMARK VINA RESULT:    -5.280      3.393      4.337
REMARK INTER + INTRA:          -5.280
REMARK INTER:                  -5.280
REMARK INTRA:                   0.000
REMARK UNBOUND:                 0.000
REMARK  Name = 135440277
REMARK  0 active torsions:
REMARK  status: ('A' for Active; 'I' for Inactive)
REMARK                            x       y       z     vdW  Elec       q    Type
REMARK                         _______ _______ _______ _____ _____    ______ ____
ROOT
ATOM      1  O   UNL     1     -15.922  43.279 -12.674  0.00  0.00    +0.000 OA
ATOM      2  N   UNL     1     -17.800  43.653 -13.967  0.00  0.00    +0.000 N 
ATOM      3  N   UNL     1     -19.635  42.160 -13.978  0.00  0.00    +0.000 NA
ATOM      4  N   UNL     1     -19.587  40.240 -12.654  0.00  0.00    +0.000 NA
ATOM      5  C   UNL     1     -17.673  41.699 -12.578  0.00  0.00    +0.000 A 
ATOM      6  C   UNL     1     -18.940  41.360 -13.051  0.00  0.00    +0.000 A 
ATOM      7  C   UNL     1     -17.033  42.940 -13.061  0.00  0.00    +0.000 A 
ATOM      8  C   UNL     1     -17.041  40.862 -11.662  0.00  0.00    +0.000 A 
ATOM      9  C   UNL     1     -17.692  39.709 -11.242  0.00  0.00    +0.000 A 
ATOM     10  C   UNL     1     -19.046  43.237 -14.379  0.00  0.00    +0.000 A 
ATOM     11  C   UNL     1     -18.949  39.445 -11.763  0.00  0.00    +0.000 A 
ATOM     12  H   UNL     1     -17.423  44.519 -14.343  0.00  0.00    +0.000 HD
ENDROOT
TORSDOF 0
ENDMDL
