MODEL 1
REMARK VINA RESULT:    -6.520      0.000      0.000
REMARK INTER + INTRA:          -6.520
REMARK INTER:                  -6.520
REMARK INTRA:                   0.000
REMARK UNBOUND:                 0.000
REMARK  Name = 135404215
REMARK  0 active torsions:
REMARK  status: ('A' for Active; 'I' for Inactive)
REMARK                            x       y       z     vdW  Elec       q    Type
REMARK                         _______ _______ _______ _____ _____    ______ ____
ROOT
ATOM      1  O   UNL     1     -19.471  38.608 -11.523  0.00  0.00    +0.000 OA
ATOM      2  N   UNL     1     -17.896  40.200 -12.095  0.00  0.00    +0.000 N 
ATOM      3  N   UNL     1     -17.374  42.011 -10.685  0.00  0.00    +0.000 NA
ATOM      4  N   UNL     1     -18.461  42.249  -8.637  0.00  0.00    +0.000 NA
ATOM      5  N   UNL     1     -16.287  41.765 -12.748  0.00  0.00    +0.000 N 
ATOM      6  C   UNL     1     -19.060  40.366 -10.007  0.00  0.00    +0.000 A 
ATOM      7  C   UNL     1     -18.319  41.520  -9.769  0.00  0.00    +0.000 A 
ATOM      8  C   UNL     1     -18.847  39.630 -11.265  0.00  0.00    +0.000 A 
ATOM      9  C   UNL     1     -19.981  39.936  -9.055  0.00  0.00    +0.000 A 
ATOM     10  C   UNL     1     -17.187  41.359 -11.799  0.00  0.00    +0.000 A 
ATOM     11  C   UNL     1     -20.138  40.673  -7.889  0.00  0.00    +0.000 A 
ATOM     12  C   UNL     1     -19.362  41.809  -7.729  0.00  0.00    +0.000 A 
ATOM     13  H   UNL     1     -17.703  39.739 -12.979  0.00  0.00    +0.000 HD
ATOM     14  H   UNL     1     -15.725  42.600 -12.617  0.00  0.00    +0.000 HD
ATOM     15  H   UNL     1     -16.155  41.245 -13.608  0.00  0.00    +0.000 HD
ENDROOT
TORSDOF 0
ENDMDL
MODEL 2
REMARK VINA RESULT:    -6.132      2.959      5.113
REMARK INTER + INTRA:          -6.132
REMARK INTER:                  -6.132
REMARK INTRA:                   0.000
REMARK UNBOUND:                 0.000
REMARK  Name = 135404215
REMARK  0 active torsions:
REMARK  status: ('A' for Active; 'I' for Inactive)
REMARK                            x       y       z     vdW  Elec       q    Type
REMARK                         _______ _______ _______ _____ _____    ______ ____
ROOT
ATOM      1  O   UNL     1     -23.300  40.250  -7.953  0.00  0.00    +0.000 OA
ATOM      2  N   UNL     1     -22.496  41.809  -6.447  0.00  0.00    +0.000 N 
ATOM      3  N   UNL     1     -20.247  42.504  -6.441  0.00  0.00    +0.000 NA
ATOM      4  N   UNL     1     -18.744  41.612  -7.983  0.00  0.00    +0.000 NA
ATOM      5  N   UNL     1     -21.765  43.394  -4.892  0.00  0.00    +0.000 N 
ATOM      6  C   UNL     1     -21.021  40.842  -8.069  0.00  0.00    +0.000 A 
ATOM      7  C   UNL     1     -20.016  41.632  -7.519  0.00  0.00    +0.000 A 
ATOM      8  C   UNL     1     -22.379  40.922  -7.505  0.00  0.00    +0.000 A 
ATOM      9  C   UNL     1     -20.721  40.000  -9.137  0.00  0.00    +0.000 A 
ATOM     10  C   UNL     1     -21.450  42.572  -5.941  0.00  0.00    +0.000 A 
ATOM     11  C   UNL     1     -19.422  39.968  -9.626  0.00  0.00    +0.000 A 
ATOM     12  C   UNL     1     -18.480  40.785  -9.021  0.00  0.00    +0.000 A 
ATOM     13  H   UNL     1     -23.410  41.909  -6.014  0.00  0.00    +0.000 HD
ATOM     14  H   UNL     1     -21.064  43.986  -4.459  0.00  0.00    +0.000 HD
ATOM     15  H   UNL     1     -22.706  43.434  -4.516  0.00  0.00    +0.000 HD
ENDROOT
TORSDOF 0
ENDMDL
MODEL 3
REMARK VINA RESULT:    -5.910      1.640      3.677
REMARK INTER + INTRA:          -5.910
REMARK INTER:                  -5.910
REMARK INTRA:                   0.000
REMARK UNBOUND:                 0.000
REMARK  Name = 135404215
REMARK  0 active torsions:
REMARK  status: ('A' for Active; 'I' for Inactive)
REMARK                            x       y       z     vdW  Elec       q    Type
REMARK                         _______ _______ _______ _____ _____    ______ ____
ROOT
ATOM      1  O   UNL     1     -19.550  39.381 -12.802  0.00  0.00    +0.000 OA
ATOM      2  N   UNL     1     -19.612  39.687 -10.511  0.00  0.00    +0.000 N 
ATOM      3  N   UNL     1     -18.528  41.491  -9.458  0.00  0.00    +0.000 NA
ATOM      4  N   UNL     1     -17.337  43.042 -10.726  0.00  0.00    +0.000 NA
ATOM      5  N   UNL     1     -19.727  39.925  -8.189  0.00  0.00    +0.000 N 
ATOM      6  C   UNL     1     -18.412  41.234 -11.893  0.00  0.00    +0.000 A 
ATOM      7  C   UNL     1     -18.092  41.918 -10.724  0.00  0.00    +0.000 A 
ATOM      8  C   UNL     1     -19.238  40.019 -11.804  0.00  0.00    +0.000 A 
ATOM      9  C   UNL     1     -17.946  41.714 -13.115  0.00  0.00    +0.000 A 
ATOM     10  C   UNL     1     -19.259  40.413  -9.380  0.00  0.00    +0.000 A 
ATOM     11  C   UNL     1     -17.170  42.865 -13.134  0.00  0.00    +0.000 A 
ATOM     12  C   UNL     1     -16.898  43.486 -11.926  0.00  0.00    +0.000 A 
ATOM     13  H   UNL     1     -20.184  38.857 -10.384  0.00  0.00    +0.000 HD
ATOM     14  H   UNL     1     -19.518  40.391  -7.312  0.00  0.00    +0.000 HD
ATOM     15  H   UNL     1     -20.294  39.086  -8.149  0.00  0.00    +0.000 HD
ENDROOT
TORSDOF 0
ENDMDL
MODEL 4
REMARK VINA RESULT:    -5.733      3.146      4.391
REMARK INTER + INTRA:          -5.733
REMARK INTER:                  -5.733
REMARK INTRA:                   0.000
REMARK UNBOUND:                 0.000
REMARK  Name = 135404215
REMARK  0 active torsions:
REMARK  status: ('A' for Active; 'I' for Inactive)
REMARK                            x       y       z     vdW  Elec       q    Type
REMARK                         _______ _______ _______ _____ _____    ______ ____
ROOT
ATOM      1  O   UNL     1     -15.711  40.298 -11.282  0.00  0.00    +0.000 OA
ATOM      2  N   UNL     1     -17.828  39.418 -11.581  0.00  0.00    +0.000 N 
ATOM      3  N   UNL     1     -19.540  40.610 -12.671  0.00  0.00    +0.000 NA
ATOM      4  N   UNL     1     -19.133  42.755 -13.488  0.00  0.00    +0.000 NA
ATOM      5  N   UNL     1     -19.941  38.453 -11.844  0.00  0.00    +0.000 N 
ATOM      6  C   UNL     1     -17.321  41.615 -12.391  0.00  0.00    +0.000 A 
ATOM      7  C   UNL     1     -18.635  41.672 -12.846  0.00  0.00    +0.000 A 
ATOM      8  C   UNL     1     -16.858  40.400 -11.701  0.00  0.00    +0.000 A 
ATOM      9  C   UNL     1     -16.478  42.705 -12.599  0.00  0.00    +0.000 A 
ATOM     10  C   UNL     1     -19.128  39.535 -12.058  0.00  0.00    +0.000 A 
ATOM     11  C   UNL     1     -16.973  43.823 -13.256  0.00  0.00    +0.000 A 
ATOM     12  C   UNL     1     -18.293  43.799 -13.677  0.00  0.00    +0.000 A 
ATOM     13  H   UNL     1     -17.570  38.554 -11.113  0.00  0.00    +0.000 HD
ATOM     14  H   UNL     1     -20.906  38.451 -12.157  0.00  0.00    +0.000 HD
ATOM     15  H   UNL     1     -19.604  37.626 -11.365  0.00  0.00    +0.000 HD
ENDROOT
TORSDOF 0
ENDMDL
MODEL 5
REMARK VINA RESULT:    -5.727      3.410      4.330
REMARK INTER + INTRA:          -5.727
REMARK INTER:                  -5.727
REMARK INTRA:                   0.000
REMARK UNBOUND:                 0.000
REMARK  Name = 135404215
REMARK  0 active torsions:
REMARK  status: ('A' for Active; 'I' for Inactive)
REMARK                            x       y       z     vdW  Elec       q    Type
REMARK                         _______ _______ _______ _____ _____    ______ ____
ROOT
ATOM      1  O   UNL     1     -15.912  43.296 -12.594  0.00  0.00    +0.000 OA
ATOM      2  N   UNL     1     -17.769  43.746 -13.896  0.00  0.00    +0.000 N 
ATOM      3  N   UNL     1     -19.614  42.288 -13.996  0.00  0.00    +0.000 NA
ATOM      4  N   UNL     1     -19.609  40.311 -12.761  0.00  0.00    +0.000 NA
ATOM      5  N   UNL     1     -19.609  44.278 -15.236  0.00  0.00    +0.000 N 
ATOM      6  C   UNL     1     -17.680  41.737 -12.592  0.00  0.00    +0.000 A 
ATOM      7  C   UNL     1     -18.942  41.439 -13.098  0.00  0.00    +0.000 A 
ATOM      8  C   UNL     1     -17.022  42.986 -13.010  0.00  0.00    +0.000 A 
ATOM      9  C   UNL     1     -17.073  40.851 -11.706  0.00  0.00    +0.000 A 
ATOM     10  C   UNL     1     -19.029  43.393 -14.366  0.00  0.00    +0.000 A 
ATOM     11  C   UNL     1     -17.743  39.688 -11.350  0.00  0.00    +0.000 A 
ATOM     12  C   UNL     1     -18.996  39.467 -11.898  0.00  0.00    +0.000 A 
ATOM     13  H   UNL     1     -17.368  44.621 -14.222  0.00  0.00    +0.000 HD
ATOM     14  H   UNL     1     -20.527  44.101 -15.630  0.00  0.00    +0.000 HD
ATOM     15  H   UNL     1     -19.139  45.132 -15.512  0.00  0.00    +0.000 HD
ENDROOT
TORSDOF 0
ENDMDL
