MODEL 1
REMARK VINA RESULT:    -5.912      0.000      0.000
REMARK INTER + INTRA:          -5.912
REMARK INTER:                  -5.912
REMARK INTRA:                   0.000
REMARK UNBOUND:                 0.000
REMARK  Name = 135502605
REMARK  1 active torsions:
REMARK  status: ('A' for Active; 'I' for Inactive)
REMARK    1  A    between atoms: C_7  and  C_10
REMARK                            x       y       z     vdW  Elec       q    Type
REMARK                         _______ _______ _______ _____ _____    ______ ____
ROOT
ATOM      1  O   UNL     1     -19.222  39.519 -13.195  0.00  0.00    +0.000 OA
ATOM      2  N   UNL     1     -19.794  39.826 -10.978  0.00  0.00    +0.000 N 
ATOM      3  N   UNL     1     -18.810  41.522  -9.654  0.00  0.00    +0.000 NA
ATOM      4  N   UNL     1     -17.210  42.944 -10.576  0.00  0.00    +0.000 NA
ATOM      5  C   UNL     1     -18.154  41.250 -12.001  0.00  0.00    +0.000 A 
ATOM      6  C   UNL     1     -18.049  41.903 -10.774  0.00  0.00    +0.000 A 
ATOM      7  C   UNL     1     -19.628  40.526  -9.799  0.00  0.00    +0.000 A 
ATOM      8  C   UNL     1     -19.094  40.122 -12.136  0.00  0.00    +0.000 A 
ATOM      9  C   UNL     1     -17.369  41.679 -13.070  0.00  0.00    +0.000 A 
ATOM     10  C   UNL     1     -20.478  40.049  -8.659  0.00  0.00    +0.000 C 
ATOM     11  C   UNL     1     -16.502  42.747 -12.882  0.00  0.00    +0.000 A 
ATOM     12  C   UNL     1     -16.460  43.340 -11.631  0.00  0.00    +0.000 A 
ATOM     13  H   UNL     1     -20.456  39.057 -11.014  0.00  0.00    +0.000 HD
ENDROOT
TORSDOF 0
ENDMDL
MODEL 2
REMARK VINA RESULT:    -5.453      2.523      4.257
REMARK INTER + INTRA:          -5.453
REMARK INTER:                  -5.453
REMARK INTRA:                   0.000
REMARK UNBOUND:                 0.000
REMARK  Name = 135502605
REMARK  1 active torsions:
REMARK  status: ('A' for Active; 'I' for Inactive)
REMARK    1  A    between atoms: C_7  and  C_10
REMARK                            x       y       z     vdW  Elec       q    Type
REMARK                         _______ _______ _______ _____ _____    ______ ____
ROOT
ATOM      1  O   UNL     1     -16.074  43.390 -12.649  0.00  0.00    +0.000 OA
ATOM      2  N   UNL     1     -17.934  43.287 -14.016  0.00  0.00    +0.000 N 
ATOM      3  N   UNL     1     -19.759  41.857 -13.543  0.00  0.00    +0.000 NA
ATOM      4  N   UNL     1     -19.716  40.494 -11.652  0.00  0.00    +0.000 NA
ATOM      5  C   UNL     1     -17.814  41.914 -12.050  0.00  0.00    +0.000 A 
ATOM      6  C   UNL     1     -19.071  41.422 -12.395  0.00  0.00    +0.000 A 
ATOM      7  C   UNL     1     -19.176  42.747 -14.285  0.00  0.00    +0.000 A 
ATOM      8  C   UNL     1     -17.177  42.927 -12.913  0.00  0.00    +0.000 A 
ATOM      9  C   UNL     1     -17.189  41.440 -10.899  0.00  0.00    +0.000 A 
ATOM     10  C   UNL     1     -19.833  43.267 -15.529  0.00  0.00    +0.000 C 
ATOM     11  C   UNL     1     -17.837  40.486 -10.125  0.00  0.00    +0.000 A 
ATOM     12  C   UNL     1     -19.085  40.050 -10.539  0.00  0.00    +0.000 A 
ATOM     13  H   UNL     1     -17.544  43.982 -14.646  0.00  0.00    +0.000 HD
ENDROOT
TORSDOF 0
ENDMDL
MODEL 3
REMARK VINA RESULT:    -5.276      2.129      2.712
REMARK INTER + INTRA:          -5.276
REMARK INTER:                  -5.276
REMARK INTRA:                   0.000
REMARK UNBOUND:                 0.000
REMARK  Name = 135502605
REMARK  1 active torsions:
REMARK  status: ('A' for Active; 'I' for Inactive)
REMARK    1  A    between atoms: C_7  and  C_10
REMARK                            x       y       z     vdW  Elec       q    Type
REMARK                         _______ _______ _______ _____ _____    ______ ____
ROOT
ATOM      1  O   UNL     1     -20.401  39.018  -9.541  0.00  0.00    +0.000 OA
ATOM      2  N   UNL     1     -20.536  40.533  -7.802  0.00  0.00    +0.000 N 
ATOM      3  N   UNL     1     -19.161  42.456  -7.706  0.00  0.00    +0.000 NA
ATOM      4  N   UNL     1     -17.609  42.869  -9.395  0.00  0.00    +0.000 NA
ATOM      5  C   UNL     1     -18.963  40.888  -9.581  0.00  0.00    +0.000 A 
ATOM      6  C   UNL     1     -18.575  42.051  -8.919  0.00  0.00    +0.000 A 
ATOM      7  C   UNL     1     -20.091  41.700  -7.212  0.00  0.00    +0.000 A 
ATOM      8  C   UNL     1     -20.025  40.049  -8.995  0.00  0.00    +0.000 A 
ATOM      9  C   UNL     1     -18.339  40.546 -10.779  0.00  0.00    +0.000 A 
ATOM     10  C   UNL     1     -20.771  42.051  -5.922  0.00  0.00    +0.000 C 
ATOM     11  C   UNL     1     -17.345  41.375 -11.282  0.00  0.00    +0.000 A 
ATOM     12  C   UNL     1     -17.020  42.513 -10.561  0.00  0.00    +0.000 A 
ATOM     13  H   UNL     1     -21.271  39.994  -7.354  0.00  0.00    +0.000 HD
ENDROOT
TORSDOF 0
ENDMDL
MODEL 4
REMARK VINA RESULT:    -4.842      2.155      2.487
REMARK INTER + INTRA:          -4.842
REMARK INTER:                  -4.842
REMARK INTRA:                   0.000
REMARK UNBOUND:                 0.000
REMARK  Name = 135502605
REMARK  1 active torsions:
REMARK  status: ('A' for Active; 'I' for Inactive)
REMARK    1  A    between atoms: C_7  and  C_10
REMARK                            x       y       z     vdW  Elec       q    Type
REMARK                         _______ _______ _______ _____ _____    ______ ____
ROOT
ATOM      1  O   UNL     1     -19.998  43.047 -14.252  0.00  0.00    +0.000 OA
ATOM      2  N   UNL     1     -19.573  41.161 -12.986  0.00  0.00    +0.000 N 
ATOM      3  N   UNL     1     -17.541  40.873 -11.811  0.00  0.00    +0.000 NA
ATOM      4  N   UNL     1     -15.891  42.518 -11.908  0.00  0.00    +0.000 NA
ATOM      5  C   UNL     1     -17.924  42.900 -13.137  0.00  0.00    +0.000 A 
ATOM      6  C   UNL     1     -17.123  42.123 -12.302  0.00  0.00    +0.000 A 
ATOM      7  C   UNL     1     -18.716  40.456 -12.165  0.00  0.00    +0.000 A 
ATOM      8  C   UNL     1     -19.258  42.399 -13.522  0.00  0.00    +0.000 A 
ATOM      9  C   UNL     1     -17.449  44.129 -13.589  0.00  0.00    +0.000 A 
ATOM     10  C   UNL     1     -19.243  39.134 -11.691  0.00  0.00    +0.000 C 
ATOM     11  C   UNL     1     -16.185  44.548 -13.193  0.00  0.00    +0.000 A 
ATOM     12  C   UNL     1     -15.454  43.716 -12.362  0.00  0.00    +0.000 A 
ATOM     13  H   UNL     1     -20.480  40.767 -13.219  0.00  0.00    +0.000 HD
ENDROOT
TORSDOF 0
ENDMDL
MODEL 5
REMARK VINA RESULT:    -4.730      2.209      4.232
REMARK INTER + INTRA:          -4.730
REMARK INTER:                  -4.730
REMARK INTRA:                   0.000
REMARK UNBOUND:                 0.000
REMARK  Name = 135502605
REMARK  1 active torsions:
REMARK  status: ('A' for Active; 'I' for Inactive)
REMARK    1  A    between atoms: C_7  and  C_10
REMARK                            x       y       z     vdW  Elec       q    Type
REMARK                         _______ _______ _______ _____ _____    ______ ____
ROOT
ATOM      1  O   UNL     1     -18.689  43.635 -14.096  0.00  0.00    +0.000 OA
ATOM      2  N   UNL     1     -16.630  43.814 -13.061  0.00  0.00    +0.000 N 
ATOM      3  N   UNL     1     -15.830  42.160 -11.571  0.00  0.00    +0.000 NA
ATOM      4  N   UNL     1     -17.128  40.281 -11.103  0.00  0.00    +0.000 NA
ATOM      5  C   UNL     1     -18.027  41.908 -12.632  0.00  0.00    +0.000 A 
ATOM      6  C   UNL     1     -17.023  41.446 -11.782  0.00  0.00    +0.000 A 
ATOM      7  C   UNL     1     -15.688  43.284 -12.202  0.00  0.00    +0.000 A 
ATOM      8  C   UNL     1     -17.836  43.189 -13.337  0.00  0.00    +0.000 A 
ATOM      9  C   UNL     1     -19.184  41.150 -12.796  0.00  0.00    +0.000 A 
ATOM     10  C   UNL     1     -14.451  44.114 -12.036  0.00  0.00    +0.000 C 
ATOM     11  C   UNL     1     -19.307  39.951 -12.105  0.00  0.00    +0.000 A 
ATOM     12  C   UNL     1     -18.263  39.565 -11.281  0.00  0.00    +0.000 A 
ATOM     13  H   UNL     1     -16.446  44.701 -13.521  0.00  0.00    +0.000 HD
ENDROOT
TORSDOF 0
ENDMDL
