MODEL 1
REMARK VINA RESULT:    -6.764      0.000      0.000
REMARK INTER + INTRA:          -7.853
REMARK INTER:                  -7.554
REMARK INTRA:                  -0.298
REMARK UNBOUND:                -0.298
REMARK  Name = 135754398
REMARK  2 active torsions:
REMARK  status: ('A' for Active; 'I' for Inactive)
REMARK    1  A    between atoms: C_6  and  C_10
REMARK    2  A    between atoms: C_11  and  C_12
REMARK                            x       y       z     vdW  Elec       q    Type
REMARK                         _______ _______ _______ _____ _____    ______ ____
ROOT
ATOM      1  O   UNL     1     -20.818  41.939 -17.572  0.00  0.00    +0.000 OA
ATOM      2  N   UNL     1     -20.017  42.708 -15.544  0.00  0.00    +0.000 N 
ATOM      3  N   UNL     1     -18.931  44.798 -15.339  0.00  0.00    +0.000 NA
ATOM      4  N   UNL     1     -18.637  46.153 -17.215  0.00  0.00    +0.000 NA
ATOM      5  C   UNL     1     -19.754  44.044 -17.523  0.00  0.00    +0.000 A 
ATOM      6  C   UNL     1     -19.376  43.697 -14.821  0.00  0.00    +0.000 A 
ATOM      7  C   UNL     1     -19.118  44.988 -16.720  0.00  0.00    +0.000 A 
ATOM      8  C   UNL     1     -20.251  42.798 -16.907  0.00  0.00    +0.000 A 
ATOM      9  C   UNL     1     -19.906  44.296 -18.883  0.00  0.00    +0.000 A 
ATOM     10  C   UNL     1     -19.418  45.487 -19.407  0.00  0.00    +0.000 A 
ATOM     11  C   UNL     1     -18.798  46.373 -18.540  0.00  0.00    +0.000 A 
ATOM     12  H   UNL     1     -20.339  41.868 -15.070  0.00  0.00    +0.000 HD
ENDROOT
BRANCH   6  13
ATOM     13  C   UNL     1     -19.237  43.391 -13.388  0.00  0.00    +0.000 C 
ATOM     14  C   UNL     1     -19.032  42.120 -13.035  0.00  0.00    +0.000 C 
BRANCH  14  15
ATOM     15  C   UNL     1     -18.884  41.656 -11.645  0.00  0.00    +0.000 A 
ATOM     16  C   UNL     1     -18.086  42.371 -10.752  0.00  0.00    +0.000 A 
ATOM     17  C   UNL     1     -19.542  40.502 -11.221  0.00  0.00    +0.000 A 
ATOM     18  C   UNL     1     -17.946  41.931  -9.436  0.00  0.00    +0.000 A 
ATOM     19  C   UNL     1     -19.402  40.062  -9.905  0.00  0.00    +0.000 A 
ATOM     20  C   UNL     1     -18.604  40.777  -9.012  0.00  0.00    +0.000 A 
ENDBRANCH  14  15
ENDBRANCH   6  13
TORSDOF 2
ENDMDL
MODEL 2
REMARK VINA RESULT:    -6.697      2.364      7.666
REMARK INTER + INTRA:          -7.779
REMARK INTER:                  -7.501
REMARK INTRA:                  -0.278
REMARK UNBOUND:                -0.298
REMARK  Name = 135754398
REMARK  2 active torsions:
REMARK  status: ('A' for Active; 'I' for Inactive)
REMARK    1  A    between atoms: C_6  and  C_10
REMARK    2  A    between atoms: C_11  and  C_12
REMARK                            x       y       z     vdW  Elec       q    Type
REMARK                         _______ _______ _______ _____ _____    ______ ____
ROOT
ATOM      1  O   UNL     1     -17.393  44.185 -11.322  0.00  0.00    +0.000 OA
ATOM      2  N   UNL     1     -18.510  43.928 -13.330  0.00  0.00    +0.000 N 
ATOM      3  N   UNL     1     -19.555  41.893 -13.929  0.00  0.00    +0.000 NA
ATOM      4  N   UNL     1     -19.476  40.066 -12.481  0.00  0.00    +0.000 NA
ATOM      5  C   UNL     1     -18.384  42.094 -11.783  0.00  0.00    +0.000 A 
ATOM      6  C   UNL     1     -19.241  43.123 -14.186  0.00  0.00    +0.000 A 
ATOM      7  C   UNL     1     -19.123  41.354 -12.704  0.00  0.00    +0.000 A 
ATOM      8  C   UNL     1     -18.040  43.493 -12.101  0.00  0.00    +0.000 A 
ATOM      9  C   UNL     1     -17.989  41.499 -10.589  0.00  0.00    +0.000 A 
ATOM     10  C   UNL     1     -18.343  40.178 -10.344  0.00  0.00    +0.000 A 
ATOM     11  C   UNL     1     -19.079  39.512 -11.311  0.00  0.00    +0.000 A 
ATOM     12  H   UNL     1     -18.300  44.885 -13.599  0.00  0.00    +0.000 HD
ENDROOT
BRANCH   6  13
ATOM     13  C   UNL     1     -19.639  43.791 -15.435  0.00  0.00    +0.000 C 
ATOM     14  C   UNL     1     -19.555  43.096 -16.572  0.00  0.00    +0.000 C 
BRANCH  14  15
ATOM     15  C   UNL     1     -19.905  43.628 -17.901  0.00  0.00    +0.000 A 
ATOM     16  C   UNL     1     -21.244  43.742 -18.275  0.00  0.00    +0.000 A 
ATOM     17  C   UNL     1     -18.899  44.017 -18.784  0.00  0.00    +0.000 A 
ATOM     18  C   UNL     1     -21.577  44.245 -19.532  0.00  0.00    +0.000 A 
ATOM     19  C   UNL     1     -19.231  44.519 -20.043  0.00  0.00    +0.000 A 
ATOM     20  C   UNL     1     -20.571  44.634 -20.417  0.00  0.00    +0.000 A 
ENDBRANCH  14  15
ENDBRANCH   6  13
TORSDOF 2
ENDMDL
MODEL 3
REMARK VINA RESULT:    -6.355      4.188      7.583
REMARK INTER + INTRA:          -7.397
REMARK INTER:                  -7.107
REMARK INTRA:                  -0.290
REMARK UNBOUND:                -0.298
REMARK  Name = 135754398
REMARK  2 active torsions:
REMARK  status: ('A' for Active; 'I' for Inactive)
REMARK    1  A    between atoms: C_6  and  C_10
REMARK    2  A    between atoms: C_11  and  C_12
REMARK                            x       y       z     vdW  Elec       q    Type
REMARK                         _______ _______ _______ _____ _____    ______ ____
ROOT
ATOM      1  O   UNL     1     -19.637  40.085 -12.778  0.00  0.00    +0.000 OA
ATOM      2  N   UNL     1     -18.236  41.921 -12.664  0.00  0.00    +0.000 N 
ATOM      3  N   UNL     1     -17.605  42.888 -10.601  0.00  0.00    +0.000 NA
ATOM      4  N   UNL     1     -18.401  41.994  -8.598  0.00  0.00    +0.000 NA
ATOM      5  C   UNL     1     -19.098  40.942 -10.647  0.00  0.00    +0.000 A 
ATOM      6  C   UNL     1     -17.562  42.852 -11.895  0.00  0.00    +0.000 A 
ATOM      7  C   UNL     1     -18.388  41.916  -9.949  0.00  0.00    +0.000 A 
ATOM      8  C   UNL     1     -19.031  40.924 -12.121  0.00  0.00    +0.000 A 
ATOM      9  C   UNL     1     -19.852  40.010  -9.940  0.00  0.00    +0.000 A 
ATOM     10  C   UNL     1     -19.877  40.075  -8.553  0.00  0.00    +0.000 A 
ATOM     11  C   UNL     1     -19.142  41.075  -7.936  0.00  0.00    +0.000 A 
ATOM     12  H   UNL     1     -18.157  41.955 -13.677  0.00  0.00    +0.000 HD
ENDROOT
BRANCH   6  13
ATOM     13  C   UNL     1     -16.777  43.817 -12.681  0.00  0.00    +0.000 C 
ATOM     14  C   UNL     1     -16.358  44.929 -12.072  0.00  0.00    +0.000 C 
BRANCH  14  15
ATOM     15  C   UNL     1     -15.575  45.992 -12.726  0.00  0.00    +0.000 A 
ATOM     16  C   UNL     1     -14.522  46.602 -12.043  0.00  0.00    +0.000 A 
ATOM     17  C   UNL     1     -15.885  46.388 -14.026  0.00  0.00    +0.000 A 
ATOM     18  C   UNL     1     -13.781  47.608 -12.661  0.00  0.00    +0.000 A 
ATOM     19  C   UNL     1     -15.143  47.395 -14.644  0.00  0.00    +0.000 A 
ATOM     20  C   UNL     1     -14.090  48.005 -13.961  0.00  0.00    +0.000 A 
ENDBRANCH  14  15
ENDBRANCH   6  13
TORSDOF 2
ENDMDL
MODEL 4
REMARK VINA RESULT:    -6.138      1.575      2.375
REMARK INTER + INTRA:          -7.154
REMARK INTER:                  -6.837
REMARK INTRA:                  -0.316
REMARK UNBOUND:                -0.298
REMARK  Name = 135754398
REMARK  2 active torsions:
REMARK  status: ('A' for Active; 'I' for Inactive)
REMARK    1  A    between atoms: C_6  and  C_10
REMARK    2  A    between atoms: C_11  and  C_12
REMARK                            x       y       z     vdW  Elec       q    Type
REMARK                         _______ _______ _______ _____ _____    ______ ____
ROOT
ATOM      1  O   UNL     1     -17.997  46.271 -16.021  0.00  0.00    +0.000 OA
ATOM      2  N   UNL     1     -18.838  44.360 -15.027  0.00  0.00    +0.000 N 
ATOM      3  N   UNL     1     -20.390  42.956 -16.128  0.00  0.00    +0.000 NA
ATOM      4  N   UNL     1     -21.121  43.482 -18.280  0.00  0.00    +0.000 NA
ATOM      5  C   UNL     1     -19.541  44.970 -17.241  0.00  0.00    +0.000 A 
ATOM      6  C   UNL     1     -19.658  43.249 -15.100  0.00  0.00    +0.000 A 
ATOM      7  C   UNL     1     -20.340  43.829 -17.231  0.00  0.00    +0.000 A 
ATOM      8  C   UNL     1     -18.717  45.279 -16.057  0.00  0.00    +0.000 A 
ATOM      9  C   UNL     1     -19.538  45.790 -18.366  0.00  0.00    +0.000 A 
ATOM     10  C   UNL     1     -20.334  45.449 -19.452  0.00  0.00    +0.000 A 
ATOM     11  C   UNL     1     -21.099  44.297 -19.360  0.00  0.00    +0.000 A 
ATOM     12  H   UNL     1     -18.292  44.527 -14.186  0.00  0.00    +0.000 HD
ENDROOT
BRANCH   6  13
ATOM     13  C   UNL     1     -19.630  42.409 -13.892  0.00  0.00    +0.000 C 
ATOM     14  C   UNL     1     -18.839  42.784 -12.885  0.00  0.00    +0.000 C 
BRANCH  14  15
ATOM     15  C   UNL     1     -18.694  42.045 -11.619  0.00  0.00    +0.000 A 
ATOM     16  C   UNL     1     -19.309  40.803 -11.463  0.00  0.00    +0.000 A 
ATOM     17  C   UNL     1     -17.943  42.586 -10.577  0.00  0.00    +0.000 A 
ATOM     18  C   UNL     1     -19.174  40.103 -10.265  0.00  0.00    +0.000 A 
ATOM     19  C   UNL     1     -17.806  41.886  -9.378  0.00  0.00    +0.000 A 
ATOM     20  C   UNL     1     -18.422  40.644  -9.222  0.00  0.00    +0.000 A 
ENDBRANCH  14  15
ENDBRANCH   6  13
TORSDOF 2
ENDMDL
MODEL 5
REMARK VINA RESULT:    -5.997      4.421      6.921
REMARK INTER + INTRA:          -6.996
REMARK INTER:                  -6.713
REMARK INTRA:                  -0.283
REMARK UNBOUND:                -0.298
REMARK  Name = 135754398
REMARK  2 active torsions:
REMARK  status: ('A' for Active; 'I' for Inactive)
REMARK    1  A    between atoms: C_6  and  C_10
REMARK    2  A    between atoms: C_11  and  C_12
REMARK                            x       y       z     vdW  Elec       q    Type
REMARK                         _______ _______ _______ _____ _____    ______ ____
ROOT
ATOM      1  O   UNL     1     -19.531  42.380 -14.635  0.00  0.00    +0.000 OA
ATOM      2  N   UNL     1     -18.408  43.821 -13.218  0.00  0.00    +0.000 N 
ATOM      3  N   UNL     1     -17.653  43.140 -11.083  0.00  0.00    +0.000 NA
ATOM      4  N   UNL     1     -18.036  40.960 -10.346  0.00  0.00    +0.000 NA
ATOM      5  C   UNL     1     -18.841  41.559 -12.534  0.00  0.00    +0.000 A 
ATOM      6  C   UNL     1     -17.779  44.041 -12.006  0.00  0.00    +0.000 A 
ATOM      7  C   UNL     1     -18.193  41.866 -11.340  0.00  0.00    +0.000 A 
ATOM      8  C   UNL     1     -18.970  42.603 -13.568  0.00  0.00    +0.000 A 
ATOM      9  C   UNL     1     -19.351  40.278 -12.723  0.00  0.00    +0.000 A 
ATOM     10  C   UNL     1     -19.200  39.336 -11.714  0.00  0.00    +0.000 A 
ATOM     11  C   UNL     1     -18.542  39.723 -10.557  0.00  0.00    +0.000 A 
ATOM     12  H   UNL     1     -18.470  44.576 -13.896  0.00  0.00    +0.000 HD
ENDROOT
BRANCH   6  13
ATOM     13  C   UNL     1     -17.253  45.406 -11.847  0.00  0.00    +0.000 C 
ATOM     14  C   UNL     1     -18.079  46.345 -11.379  0.00  0.00    +0.000 C 
BRANCH  14  15
ATOM     15  C   UNL     1     -17.706  47.756 -11.176  0.00  0.00    +0.000 A 
ATOM     16  C   UNL     1     -16.388  48.165 -11.382  0.00  0.00    +0.000 A 
ATOM     17  C   UNL     1     -18.669  48.682 -10.779  0.00  0.00    +0.000 A 
ATOM     18  C   UNL     1     -16.033  49.500 -11.189  0.00  0.00    +0.000 A 
ATOM     19  C   UNL     1     -18.315  50.018 -10.586  0.00  0.00    +0.000 A 
ATOM     20  C   UNL     1     -16.997  50.427 -10.791  0.00  0.00    +0.000 A 
ENDBRANCH  14  15
ENDBRANCH   6  13
TORSDOF 2
ENDMDL
