MODEL 1
REMARK VINA RESULT:    -6.078      0.000      0.000
REMARK INTER + INTRA:          -6.078
REMARK INTER:                  -6.078
REMARK INTRA:                   0.000
REMARK UNBOUND:                 0.000
REMARK  Name = 135883858
REMARK  0 active torsions:
REMARK  status: ('A' for Active; 'I' for Inactive)
REMARK                            x       y       z     vdW  Elec       q    Type
REMARK                         _______ _______ _______ _____ _____    ______ ____
ROOT
ATOM      1 CL   UNL     1     -15.893  42.699 -11.948  0.00  0.00    +0.000 Cl
ATOM      2  O   UNL     1     -19.135  39.009 -11.274  0.00  0.00    +0.000 OA
ATOM      3  N   UNL     1     -17.651  40.764 -11.513  0.00  0.00    +0.000 N 
ATOM      4  N   UNL     1     -17.476  42.491  -9.907  0.00  0.00    +0.000 NA
ATOM      5  N   UNL     1     -18.829  42.458  -8.006  0.00  0.00    +0.000 NA
ATOM      6  C   UNL     1     -19.076  40.658  -9.586  0.00  0.00    +0.000 A 
ATOM      7  C   UNL     1     -18.481  41.846  -9.162  0.00  0.00    +0.000 A 
ATOM      8  C   UNL     1     -18.642  40.051 -10.859  0.00  0.00    +0.000 A 
ATOM      9  C   UNL     1     -20.065  40.072  -8.800  0.00  0.00    +0.000 A 
ATOM     10  C   UNL     1     -17.115  41.936 -11.019  0.00  0.00    +0.000 A 
ATOM     11  C   UNL     1     -20.434  40.689  -7.610  0.00  0.00    +0.000 A 
ATOM     12  C   UNL     1     -19.792  41.867  -7.262  0.00  0.00    +0.000 A 
ATOM     13  H   UNL     1     -17.301  40.406 -12.397  0.00  0.00    +0.000 HD
ENDROOT
TORSDOF 0
ENDMDL
MODEL 2
REMARK VINA RESULT:    -5.870      2.335      3.823
REMARK INTER + INTRA:          -5.870
REMARK INTER:                  -5.870
REMARK INTRA:                   0.000
REMARK UNBOUND:                 0.000
REMARK  Name = 135883858
REMARK  0 active torsions:
REMARK  status: ('A' for Active; 'I' for Inactive)
REMARK                            x       y       z     vdW  Elec       q    Type
REMARK                         _______ _______ _______ _____ _____    ______ ____
ROOT
ATOM      1 CL   UNL     1     -19.686  41.237  -7.051  0.00  0.00    +0.000 Cl
ATOM      2  O   UNL     1     -19.334  38.855 -11.386  0.00  0.00    +0.000 OA
ATOM      3  N   UNL     1     -19.449  40.029  -9.399  0.00  0.00    +0.000 N 
ATOM      4  N   UNL     1     -18.380  42.119  -9.109  0.00  0.00    +0.000 NA
ATOM      5  N   UNL     1     -17.162  43.059 -10.863  0.00  0.00    +0.000 NA
ATOM      6  C   UNL     1     -18.215  40.928 -11.249  0.00  0.00    +0.000 A 
ATOM      7  C   UNL     1     -17.917  42.020 -10.435  0.00  0.00    +0.000 A 
ATOM      8  C   UNL     1     -19.046  39.834 -10.708  0.00  0.00    +0.000 A 
ATOM      9  C   UNL     1     -17.724  40.895 -12.552  0.00  0.00    +0.000 A 
ATOM     10  C   UNL     1     -19.106  41.145  -8.662  0.00  0.00    +0.000 A 
ATOM     11  C   UNL     1     -16.947  41.953 -13.007  0.00  0.00    +0.000 A 
ATOM     12  C   UNL     1     -16.698  43.000 -12.133  0.00  0.00    +0.000 A 
ATOM     13  H   UNL     1     -20.024  39.316  -8.959  0.00  0.00    +0.000 HD
ENDROOT
TORSDOF 0
ENDMDL
MODEL 3
REMARK VINA RESULT:    -5.462      3.937      4.576
REMARK INTER + INTRA:          -5.462
REMARK INTER:                  -5.462
REMARK INTRA:                   0.000
REMARK UNBOUND:                 0.000
REMARK  Name = 135883858
REMARK  0 active torsions:
REMARK  status: ('A' for Active; 'I' for Inactive)
REMARK                            x       y       z     vdW  Elec       q    Type
REMARK                         _______ _______ _______ _____ _____    ______ ____
ROOT
ATOM      1 CL   UNL     1     -19.636  44.314 -15.596  0.00  0.00    +0.000 Cl
ATOM      2  O   UNL     1     -15.878  43.232 -12.547  0.00  0.00    +0.000 OA
ATOM      3  N   UNL     1     -17.670  43.663 -13.942  0.00  0.00    +0.000 N 
ATOM      4  N   UNL     1     -19.531  42.212 -14.084  0.00  0.00    +0.000 NA
ATOM      5  N   UNL     1     -19.599  40.272 -12.790  0.00  0.00    +0.000 NA
ATOM      6  C   UNL     1     -17.664  41.689 -12.579  0.00  0.00    +0.000 A 
ATOM      7  C   UNL     1     -18.908  41.383 -13.131  0.00  0.00    +0.000 A 
ATOM      8  C   UNL     1     -16.972  42.921 -13.004  0.00  0.00    +0.000 A 
ATOM      9  C   UNL     1     -17.104  40.825 -11.641  0.00  0.00    +0.000 A 
ATOM     10  C   UNL     1     -18.901  43.285 -14.437  0.00  0.00    +0.000 A 
ATOM     11  C   UNL     1     -17.802  39.679 -11.279  0.00  0.00    +0.000 A 
ATOM     12  C   UNL     1     -19.032  39.450 -11.876  0.00  0.00    +0.000 A 
ATOM     13  H   UNL     1     -17.255  44.526 -14.282  0.00  0.00    +0.000 HD
ENDROOT
TORSDOF 0
ENDMDL
MODEL 4
REMARK VINA RESULT:    -5.381      2.781      4.241
REMARK INTER + INTRA:          -5.381
REMARK INTER:                  -5.381
REMARK INTRA:                   0.000
REMARK UNBOUND:                 0.000
REMARK  Name = 135883858
REMARK  0 active torsions:
REMARK  status: ('A' for Active; 'I' for Inactive)
REMARK                            x       y       z     vdW  Elec       q    Type
REMARK                         _______ _______ _______ _____ _____    ______ ____
ROOT
ATOM      1 CL   UNL     1     -19.742  41.765  -6.837  0.00  0.00    +0.000 Cl
ATOM      2  O   UNL     1     -16.866  43.188 -10.618  0.00  0.00    +0.000 OA
ATOM      3  N   UNL     1     -18.234  42.458  -8.905  0.00  0.00    +0.000 N 
ATOM      4  N   UNL     1     -19.600  40.539  -9.116  0.00  0.00    +0.000 NA
ATOM      5  N   UNL     1     -19.593  39.316 -11.103  0.00  0.00    +0.000 NA
ATOM      6  C   UNL     1     -18.171  41.255 -10.979  0.00  0.00    +0.000 A 
ATOM      7  C   UNL     1     -19.103  40.378 -10.424  0.00  0.00    +0.000 A 
ATOM      8  C   UNL     1     -17.685  42.392 -10.173  0.00  0.00    +0.000 A 
ATOM      9  C   UNL     1     -17.722  41.038 -12.279  0.00  0.00    +0.000 A 
ATOM     10  C   UNL     1     -19.155  41.544  -8.433  0.00  0.00    +0.000 A 
ATOM     11  C   UNL     1     -18.215  39.951 -12.990  0.00  0.00    +0.000 A 
ATOM     12  C   UNL     1     -19.139  39.129 -12.364  0.00  0.00    +0.000 A 
ATOM     13  H   UNL     1     -17.946  43.215  -8.292  0.00  0.00    +0.000 HD
ENDROOT
TORSDOF 0
ENDMDL
MODEL 5
REMARK VINA RESULT:    -5.239      2.631      3.407
REMARK INTER + INTRA:          -5.239
REMARK INTER:                  -5.239
REMARK INTRA:                   0.000
REMARK UNBOUND:                 0.000
REMARK  Name = 135883858
REMARK  0 active torsions:
REMARK  status: ('A' for Active; 'I' for Inactive)
REMARK                            x       y       z     vdW  Elec       q    Type
REMARK                         _______ _______ _______ _____ _____    ______ ____
ROOT
ATOM      1 CL   UNL     1     -15.838  44.964 -13.638  0.00  0.00    +0.000 Cl
ATOM      2  O   UNL     1     -19.858  42.188 -14.489  0.00  0.00    +0.000 OA
ATOM      3  N   UNL     1     -17.970  43.436 -14.020  0.00  0.00    +0.000 N 
ATOM      4  N   UNL     1     -16.631  43.022 -12.115  0.00  0.00    +0.000 NA
ATOM      5  N   UNL     1     -17.201  41.310 -10.637  0.00  0.00    +0.000 NA
ATOM      6  C   UNL     1     -18.623  41.656 -12.549  0.00  0.00    +0.000 A 
ATOM      7  C   UNL     1     -17.510  41.978 -11.772  0.00  0.00    +0.000 A 
ATOM      8  C   UNL     1     -18.893  42.434 -13.774  0.00  0.00    +0.000 A 
ATOM      9  C   UNL     1     -19.452  40.611 -12.152  0.00  0.00    +0.000 A 
ATOM     10  C   UNL     1     -16.892  43.687 -13.195  0.00  0.00    +0.000 A 
ATOM     11  C   UNL     1     -19.148  39.914 -10.988  0.00  0.00    +0.000 A 
ATOM     12  C   UNL     1     -18.024  40.299 -10.275  0.00  0.00    +0.000 A 
ATOM     13  H   UNL     1     -18.091  44.013 -14.847  0.00  0.00    +0.000 HD
ENDROOT
TORSDOF 0
ENDMDL
