MODEL 1
REMARK VINA RESULT:    -6.739      0.000      0.000
REMARK INTER + INTRA:          -7.200
REMARK INTER:                  -7.133
REMARK INTRA:                  -0.067
REMARK UNBOUND:                -0.067
REMARK  Name = 136089013
REMARK  2 active torsions:
REMARK  status: ('A' for Active; 'I' for Inactive)
REMARK    1  A    between atoms: N_2  and  C_9
REMARK    2  A    between atoms: C_9  and  C_12
REMARK                            x       y       z     vdW  Elec       q    Type
REMARK                         _______ _______ _______ _____ _____    ______ ____
ROOT
ATOM      1  O   UNL     1     -19.370  38.798 -11.404  0.00  0.00    +0.000 OA
ATOM      2  N   UNL     1     -16.110  41.990 -12.295  0.00  0.00    +0.000 N 
ATOM      3  N   UNL     1     -17.760  40.406 -11.810  0.00  0.00    +0.000 N 
ATOM      4  N   UNL     1     -17.354  42.181 -10.317  0.00  0.00    +0.000 NA
ATOM      5  N   UNL     1     -18.596  42.364  -8.354  0.00  0.00    +0.000 NA
ATOM      6  C   UNL     1     -19.082  40.516  -9.815  0.00  0.00    +0.000 A 
ATOM      7  C   UNL     1     -17.079  41.559 -11.429  0.00  0.00    +0.000 A 
ATOM      8  C   UNL     1     -18.367  41.665  -9.490  0.00  0.00    +0.000 A 
ATOM      9  C   UNL     1     -18.771  39.814 -11.071  0.00  0.00    +0.000 A 
ATOM     10  C   UNL     1     -20.073  40.060  -8.949  0.00  0.00    +0.000 A 
ATOM     11  C   UNL     1     -20.322  40.767  -7.779  0.00  0.00    +0.000 A 
ATOM     12  C   UNL     1     -19.564  41.899  -7.530  0.00  0.00    +0.000 A 
ATOM     13  H   UNL     1     -15.939  41.467 -13.150  0.00  0.00    +0.000 HD
ATOM     14  H   UNL     1     -17.498  39.968 -12.688  0.00  0.00    +0.000 HD
ENDROOT
BRANCH   2  15
ATOM     15  C   UNL     1     -15.326  43.159 -12.044  0.00  0.00    +0.000 C 
ATOM     16  C   UNL     1     -15.518  44.168 -13.160  0.00  0.00    +0.000 C 
ENDBRANCH   2  15
TORSDOF 1
ENDMDL
MODEL 2
REMARK VINA RESULT:    -6.466      1.543      4.641
REMARK INTER + INTRA:          -6.911
REMARK INTER:                  -6.838
REMARK INTRA:                  -0.073
REMARK UNBOUND:                -0.067
REMARK  Name = 136089013
REMARK  2 active torsions:
REMARK  status: ('A' for Active; 'I' for Inactive)
REMARK    1  A    between atoms: N_2  and  C_9
REMARK    2  A    between atoms: C_9  and  C_12
REMARK                            x       y       z     vdW  Elec       q    Type
REMARK                         _______ _______ _______ _____ _____    ______ ____
ROOT
ATOM      1  O   UNL     1     -19.459  39.363 -12.778  0.00  0.00    +0.000 OA
ATOM      2  N   UNL     1     -20.211  40.472  -8.326  0.00  0.00    +0.000 N 
ATOM      3  N   UNL     1     -19.803  39.946 -10.567  0.00  0.00    +0.000 N 
ATOM      4  N   UNL     1     -18.672  41.745  -9.553  0.00  0.00    +0.000 NA
ATOM      5  N   UNL     1     -17.142  43.004 -10.781  0.00  0.00    +0.000 NA
ATOM      6  C   UNL     1     -18.249  41.188 -11.903  0.00  0.00    +0.000 A 
ATOM      7  C   UNL     1     -19.528  40.765  -9.476  0.00  0.00    +0.000 A 
ATOM      8  C   UNL     1     -18.016  41.971 -10.776  0.00  0.00    +0.000 A 
ATOM      9  C   UNL     1     -19.216  40.082 -11.815  0.00  0.00    +0.000 A 
ATOM     10  C   UNL     1     -17.564  41.468 -13.084  0.00  0.00    +0.000 A 
ATOM     11  C   UNL     1     -16.663  42.525 -13.104  0.00  0.00    +0.000 A 
ATOM     12  C   UNL     1     -16.490  43.254 -11.939  0.00  0.00    +0.000 A 
ATOM     13  H   UNL     1     -20.866  39.694  -8.322  0.00  0.00    +0.000 HD
ATOM     14  H   UNL     1     -20.481  39.200 -10.442  0.00  0.00    +0.000 HD
ENDROOT
BRANCH   2  15
ATOM     15  C   UNL     1     -20.035  41.221  -7.121  0.00  0.00    +0.000 C 
ATOM     16  C   UNL     1     -21.280  42.037  -6.826  0.00  0.00    +0.000 C 
ENDBRANCH   2  15
TORSDOF 1
ENDMDL
MODEL 3
REMARK VINA RESULT:    -6.184      3.700      4.612
REMARK INTER + INTRA:          -6.613
REMARK INTER:                  -6.543
REMARK INTRA:                  -0.070
REMARK UNBOUND:                -0.067
REMARK  Name = 136089013
REMARK  2 active torsions:
REMARK  status: ('A' for Active; 'I' for Inactive)
REMARK    1  A    between atoms: N_2  and  C_9
REMARK    2  A    between atoms: C_9  and  C_12
REMARK                            x       y       z     vdW  Elec       q    Type
REMARK                         _______ _______ _______ _____ _____    ______ ____
ROOT
ATOM      1  O   UNL     1     -17.493  44.188 -11.275  0.00  0.00    +0.000 OA
ATOM      2  N   UNL     1     -19.343  43.785 -15.521  0.00  0.00    +0.000 N 
ATOM      3  N   UNL     1     -18.420  43.945 -13.379  0.00  0.00    +0.000 N 
ATOM      4  N   UNL     1     -19.339  41.907 -14.117  0.00  0.00    +0.000 NA
ATOM      5  N   UNL     1     -19.331  40.046 -12.715  0.00  0.00    +0.000 NA
ATOM      6  C   UNL     1     -18.371  42.083 -11.871  0.00  0.00    +0.000 A 
ATOM      7  C   UNL     1     -19.050  43.159 -14.338  0.00  0.00    +0.000 A 
ATOM      8  C   UNL     1     -19.001  41.349 -12.872  0.00  0.00    +0.000 A 
ATOM      9  C   UNL     1     -18.046  43.497 -12.122  0.00  0.00    +0.000 A 
ATOM     10  C   UNL     1     -18.064  41.466 -10.661  0.00  0.00    +0.000 A 
ATOM     11  C   UNL     1     -18.396  40.129 -10.484  0.00  0.00    +0.000 A 
ATOM     12  C   UNL     1     -19.022  39.471 -11.530  0.00  0.00    +0.000 A 
ATOM     13  H   UNL     1     -19.092  44.763 -15.640  0.00  0.00    +0.000 HD
ATOM     14  H   UNL     1     -18.223  44.914 -13.613  0.00  0.00    +0.000 HD
ENDROOT
BRANCH   2  15
ATOM     15  C   UNL     1     -19.987  43.110 -16.604  0.00  0.00    +0.000 C 
ATOM     16  C   UNL     1     -21.465  43.449 -16.627  0.00  0.00    +0.000 C 
ENDBRANCH   2  15
TORSDOF 1
ENDMDL
MODEL 4
REMARK VINA RESULT:    -5.711      2.703      5.222
REMARK INTER + INTRA:          -6.112
REMARK INTER:                  -6.038
REMARK INTRA:                  -0.074
REMARK UNBOUND:                -0.067
REMARK  Name = 136089013
REMARK  2 active torsions:
REMARK  status: ('A' for Active; 'I' for Inactive)
REMARK    1  A    between atoms: N_2  and  C_9
REMARK    2  A    between atoms: C_9  and  C_12
REMARK                            x       y       z     vdW  Elec       q    Type
REMARK                         _______ _______ _______ _____ _____    ______ ____
ROOT
ATOM      1  O   UNL     1     -19.983  42.830 -15.234  0.00  0.00    +0.000 OA
ATOM      2  N   UNL     1     -19.687  40.301 -11.345  0.00  0.00    +0.000 N 
ATOM      3  N   UNL     1     -19.806  41.601 -13.284  0.00  0.00    +0.000 N 
ATOM      4  N   UNL     1     -18.428  42.273 -11.498  0.00  0.00    +0.000 NA
ATOM      5  N   UNL     1     -17.179  44.234 -11.659  0.00  0.00    +0.000 NA
ATOM      6  C   UNL     1     -18.559  43.631 -13.535  0.00  0.00    +0.000 A 
ATOM      7  C   UNL     1     -19.271  41.422 -12.012  0.00  0.00    +0.000 A 
ATOM      8  C   UNL     1     -18.057  43.396 -12.258  0.00  0.00    +0.000 A 
ATOM      9  C   UNL     1     -19.511  42.670 -14.115  0.00  0.00    +0.000 A 
ATOM     10  C   UNL     1     -18.148  44.765 -14.232  0.00  0.00    +0.000 A 
ATOM     11  C   UNL     1     -17.247  45.635 -13.632  0.00  0.00    +0.000 A 
ATOM     12  C   UNL     1     -16.797  45.328 -12.358  0.00  0.00    +0.000 A 
ATOM     13  H   UNL     1     -20.345  39.670 -11.795  0.00  0.00    +0.000 HD
ATOM     14  H   UNL     1     -20.459  40.902 -13.627  0.00  0.00    +0.000 HD
ENDROOT
BRANCH   2  15
ATOM     15  C   UNL     1     -19.225  39.979 -10.030  0.00  0.00    +0.000 C 
ATOM     16  C   UNL     1     -20.336  40.188  -9.019  0.00  0.00    +0.000 C 
ENDBRANCH   2  15
TORSDOF 1
ENDMDL
MODEL 5
REMARK VINA RESULT:    -5.293      3.535      4.933
REMARK INTER + INTRA:          -5.670
REMARK INTER:                  -5.627
REMARK INTRA:                  -0.043
REMARK UNBOUND:                -0.067
REMARK  Name = 136089013
REMARK  2 active torsions:
REMARK  status: ('A' for Active; 'I' for Inactive)
REMARK    1  A    between atoms: N_2  and  C_9
REMARK    2  A    between atoms: C_9  and  C_12
REMARK                            x       y       z     vdW  Elec       q    Type
REMARK                         _______ _______ _______ _____ _____    ______ ____
ROOT
ATOM      1  O   UNL     1     -19.237  40.322 -11.659  0.00  0.00    +0.000 OA
ATOM      2  N   UNL     1     -20.705  42.922 -15.223  0.00  0.00    +0.000 N 
ATOM      3  N   UNL     1     -19.931  41.639 -13.427  0.00  0.00    +0.000 N 
ATOM      4  N   UNL     1     -18.626  43.416 -14.256  0.00  0.00    +0.000 NA
ATOM      5  N   UNL     1     -16.562  43.901 -13.288  0.00  0.00    +0.000 NA
ATOM      6  C   UNL     1     -17.821  42.067 -12.374  0.00  0.00    +0.000 A 
ATOM      7  C   UNL     1     -19.711  42.695 -14.307  0.00  0.00    +0.000 A 
ATOM      8  C   UNL     1     -17.661  43.110 -13.281  0.00  0.00    +0.000 A 
ATOM      9  C   UNL     1     -19.046  41.252 -12.433  0.00  0.00    +0.000 A 
ATOM     10  C   UNL     1     -16.823  41.819 -11.434  0.00  0.00    +0.000 A 
ATOM     11  C   UNL     1     -15.690  42.622 -11.427  0.00  0.00    +0.000 A 
ATOM     12  C   UNL     1     -15.609  43.639 -12.365  0.00  0.00    +0.000 A 
ATOM     13  H   UNL     1     -21.530  42.329 -15.216  0.00  0.00    +0.000 HD
ATOM     14  H   UNL     1     -20.796  41.116 -13.520  0.00  0.00    +0.000 HD
ENDROOT
BRANCH   2  15
ATOM     15  C   UNL     1     -20.626  43.970 -16.192  0.00  0.00    +0.000 C 
ATOM     16  C   UNL     1     -21.970  44.160 -16.868  0.00  0.00    +0.000 C 
ENDBRANCH   2  15
TORSDOF 1
ENDMDL
