MODEL 1
REMARK VINA RESULT:    -7.101      0.000      0.000
REMARK INTER + INTRA:          -7.623
REMARK INTER:                  -7.516
REMARK INTRA:                  -0.107
REMARK UNBOUND:                -0.107
REMARK  Name = 136127010
REMARK  1 active torsions:
REMARK  status: ('A' for Active; 'I' for Inactive)
REMARK    1  A    between atoms: C_9  and  C_13
REMARK                            x       y       z     vdW  Elec       q    Type
REMARK                         _______ _______ _______ _____ _____    ______ ____
ROOT
ATOM      1  O   UNL     1     -19.262  39.370 -12.947  0.00  0.00    +0.000 OA
ATOM      2  N   UNL     1     -19.806  39.906 -10.766  0.00  0.00    +0.000 N 
ATOM      3  N   UNL     1     -18.824  41.741  -9.645  0.00  0.00    +0.000 NA
ATOM      4  N   UNL     1     -17.255  43.076 -10.739  0.00  0.00    +0.000 NA
ATOM      5  C   UNL     1     -18.198  41.230 -11.961  0.00  0.00    +0.000 A 
ATOM      6  C   UNL     1     -19.631  40.728  -9.672  0.00  0.00    +0.000 A 
ATOM      7  C   UNL     1     -18.085  42.009 -10.811  0.00  0.00    +0.000 A 
ATOM      8  C   UNL     1     -19.126  40.083 -11.961  0.00  0.00    +0.000 A 
ATOM      9  C   UNL     1     -17.436  41.551 -13.080  0.00  0.00    +0.000 A 
ATOM     10  C   UNL     1     -16.580  42.643 -13.022  0.00  0.00    +0.000 A 
ATOM     11  C   UNL     1     -16.526  43.365 -11.841  0.00  0.00    +0.000 A 
ATOM     12  H   UNL     1     -20.461  39.131 -10.703  0.00  0.00    +0.000 HD
ENDROOT
BRANCH   6  16
ATOM     13  F   UNL     1     -19.676  40.137  -7.399  0.00  0.00    +0.000 F 
ATOM     14  F   UNL     1     -21.315  41.359  -8.156  0.00  0.00    +0.000 F 
ATOM     15  F   UNL     1     -21.184  39.252  -8.701  0.00  0.00    +0.000 F 
ATOM     16  C   UNL     1     -20.458  40.367  -8.474  0.00  0.00    +0.000 C 
ENDBRANCH   6  16
TORSDOF 1
ENDMDL
MODEL 2
REMARK VINA RESULT:    -6.602      3.314      4.759
REMARK INTER + INTRA:          -7.095
REMARK INTER:                  -6.988
REMARK INTRA:                  -0.106
REMARK UNBOUND:                -0.107
REMARK  Name = 136127010
REMARK  1 active torsions:
REMARK  status: ('A' for Active; 'I' for Inactive)
REMARK    1  A    between atoms: C_9  and  C_13
REMARK                            x       y       z     vdW  Elec       q    Type
REMARK                         _______ _______ _______ _____ _____    ______ ____
ROOT
ATOM      1  O   UNL     1     -19.219  39.045 -11.246  0.00  0.00    +0.000 OA
ATOM      2  N   UNL     1     -17.788  40.837 -11.527  0.00  0.00    +0.000 N 
ATOM      3  N   UNL     1     -17.592  42.549  -9.909  0.00  0.00    +0.000 NA
ATOM      4  N   UNL     1     -18.865  42.463  -7.956  0.00  0.00    +0.000 NA
ATOM      5  C   UNL     1     -19.133  40.676  -9.545  0.00  0.00    +0.000 A 
ATOM      6  C   UNL     1     -17.261  42.017 -11.043  0.00  0.00    +0.000 A 
ATOM      7  C   UNL     1     -18.550  41.872  -9.132  0.00  0.00    +0.000 A 
ATOM      8  C   UNL     1     -18.736  40.094 -10.841  0.00  0.00    +0.000 A 
ATOM      9  C   UNL     1     -20.076  40.059  -8.727  0.00  0.00    +0.000 A 
ATOM     10  C   UNL     1     -20.410  40.653  -7.517  0.00  0.00    +0.000 A 
ATOM     11  C   UNL     1     -19.783  41.842  -7.180  0.00  0.00    +0.000 A 
ATOM     12  H   UNL     1     -17.473  40.488 -12.429  0.00  0.00    +0.000 HD
ENDROOT
BRANCH   6  16
ATOM     13  F   UNL     1     -16.387  42.246 -13.210  0.00  0.00    +0.000 F 
ATOM     14  F   UNL     1     -16.387  44.011 -11.931  0.00  0.00    +0.000 F 
ATOM     15  F   UNL     1     -14.993  42.382 -11.541  0.00  0.00    +0.000 F 
ATOM     16  C   UNL     1     -16.250  42.670 -11.937  0.00  0.00    +0.000 C 
ENDBRANCH   6  16
TORSDOF 1
ENDMDL
MODEL 3
REMARK VINA RESULT:    -6.221      3.243      3.835
REMARK INTER + INTRA:          -6.692
REMARK INTER:                  -6.587
REMARK INTRA:                  -0.105
REMARK UNBOUND:                -0.107
REMARK  Name = 136127010
REMARK  1 active torsions:
REMARK  status: ('A' for Active; 'I' for Inactive)
REMARK    1  A    between atoms: C_9  and  C_13
REMARK                            x       y       z     vdW  Elec       q    Type
REMARK                         _______ _______ _______ _____ _____    ______ ____
ROOT
ATOM      1  O   UNL     1     -17.344  44.182 -11.331  0.00  0.00    +0.000 OA
ATOM      2  N   UNL     1     -18.174  42.028 -11.445  0.00  0.00    +0.000 N 
ATOM      3  N   UNL     1     -19.383  41.249 -13.321  0.00  0.00    +0.000 NA
ATOM      4  N   UNL     1     -19.771  42.666 -15.133  0.00  0.00    +0.000 NA
ATOM      5  C   UNL     1     -18.532  43.549 -13.268  0.00  0.00    +0.000 A 
ATOM      6  C   UNL     1     -18.868  41.064 -12.146  0.00  0.00    +0.000 A 
ATOM      7  C   UNL     1     -19.217  42.517 -13.907  0.00  0.00    +0.000 A 
ATOM      8  C   UNL     1     -17.956  43.308 -11.931  0.00  0.00    +0.000 A 
ATOM      9  C   UNL     1     -18.406  44.781 -13.905  0.00  0.00    +0.000 A 
ATOM     10  C   UNL     1     -18.968  44.949 -15.163  0.00  0.00    +0.000 A 
ATOM     11  C   UNL     1     -19.633  43.873 -15.729  0.00  0.00    +0.000 A 
ATOM     12  H   UNL     1     -17.802  41.800 -10.526  0.00  0.00    +0.000 HD
ENDROOT
BRANCH   6  16
ATOM     13  F   UNL     1     -17.785  39.258 -11.107  0.00  0.00    +0.000 F 
ATOM     14  F   UNL     1     -19.725  39.861 -10.317  0.00  0.00    +0.000 F 
ATOM     15  F   UNL     1     -19.601  38.831 -12.234  0.00  0.00    +0.000 F 
ATOM     16  C   UNL     1     -18.997  39.745 -11.446  0.00  0.00    +0.000 C 
ENDBRANCH   6  16
TORSDOF 1
ENDMDL
MODEL 4
REMARK VINA RESULT:    -6.189      4.352      5.457
REMARK INTER + INTRA:          -6.658
REMARK INTER:                  -6.552
REMARK INTRA:                  -0.106
REMARK UNBOUND:                -0.107
REMARK  Name = 136127010
REMARK  1 active torsions:
REMARK  status: ('A' for Active; 'I' for Inactive)
REMARK    1  A    between atoms: C_9  and  C_13
REMARK                            x       y       z     vdW  Elec       q    Type
REMARK                         _______ _______ _______ _____ _____    ______ ____
ROOT
ATOM      1  O   UNL     1     -16.216  43.627 -12.738  0.00  0.00    +0.000 OA
ATOM      2  N   UNL     1     -18.092  43.390 -14.066  0.00  0.00    +0.000 N 
ATOM      3  N   UNL     1     -19.776  41.803 -13.582  0.00  0.00    +0.000 NA
ATOM      4  N   UNL     1     -19.576  40.417 -11.717  0.00  0.00    +0.000 NA
ATOM      5  C   UNL     1     -17.810  42.000 -12.128  0.00  0.00    +0.000 A 
ATOM      6  C   UNL     1     -19.288  42.751 -14.319  0.00  0.00    +0.000 A 
ATOM      7  C   UNL     1     -19.029  41.409 -12.457  0.00  0.00    +0.000 A 
ATOM      8  C   UNL     1     -17.281  43.077 -12.986  0.00  0.00    +0.000 A 
ATOM      9  C   UNL     1     -17.122  41.561 -11.000  0.00  0.00    +0.000 A 
ATOM     10  C   UNL     1     -17.670  40.543 -10.230  0.00  0.00    +0.000 A 
ATOM     11  C   UNL     1     -18.886  40.010 -10.627  0.00  0.00    +0.000 A 
ATOM     12  H   UNL     1     -17.781  44.125 -14.696  0.00  0.00    +0.000 HD
ENDROOT
BRANCH   6  16
ATOM     13  F   UNL     1     -19.772  44.542 -15.758  0.00  0.00    +0.000 F 
ATOM     14  F   UNL     1     -19.632  42.552 -16.636  0.00  0.00    +0.000 F 
ATOM     15  F   UNL     1     -21.349  43.081 -15.402  0.00  0.00    +0.000 F 
ATOM     16  C   UNL     1     -20.016  43.234 -15.538  0.00  0.00    +0.000 C 
ENDBRANCH   6  16
TORSDOF 1
ENDMDL
MODEL 5
REMARK VINA RESULT:    -6.048      3.349      5.045
REMARK INTER + INTRA:          -6.508
REMARK INTER:                  -6.403
REMARK INTRA:                  -0.106
REMARK UNBOUND:                -0.107
REMARK  Name = 136127010
REMARK  1 active torsions:
REMARK  status: ('A' for Active; 'I' for Inactive)
REMARK    1  A    between atoms: C_9  and  C_13
REMARK                            x       y       z     vdW  Elec       q    Type
REMARK                         _______ _______ _______ _____ _____    ______ ____
ROOT
ATOM      1  O   UNL     1     -17.468  43.271  -9.063  0.00  0.00    +0.000 OA
ATOM      2  N   UNL     1     -17.482  41.687 -10.746  0.00  0.00    +0.000 N 
ATOM      3  N   UNL     1     -19.079  39.946 -10.814  0.00  0.00    +0.000 NA
ATOM      4  N   UNL     1     -20.707  39.787  -9.150  0.00  0.00    +0.000 NA
ATOM      5  C   UNL     1     -19.124  41.593  -8.996  0.00  0.00    +0.000 A 
ATOM      6  C   UNL     1     -18.053  40.564 -11.307  0.00  0.00    +0.000 A 
ATOM      7  C   UNL     1     -19.638  40.463  -9.630  0.00  0.00    +0.000 A 
ATOM      8  C   UNL     1     -17.954  42.275  -9.583  0.00  0.00    +0.000 A 
ATOM      9  C   UNL     1     -19.724  42.051  -7.827  0.00  0.00    +0.000 A 
ATOM     10  C   UNL     1     -20.823  41.368  -7.321  0.00  0.00    +0.000 A 
ATOM     11  C   UNL     1     -21.271  40.254  -8.013  0.00  0.00    +0.000 A 
ATOM     12  H   UNL     1     -16.676  42.111 -11.199  0.00  0.00    +0.000 HD
ENDROOT
BRANCH   6  16
ATOM     13  F   UNL     1     -16.384  39.233 -12.285  0.00  0.00    +0.000 F 
ATOM     14  F   UNL     1     -18.270  39.435 -13.359  0.00  0.00    +0.000 F 
ATOM     15  F   UNL     1     -16.880  41.112 -13.270  0.00  0.00    +0.000 F 
ATOM     16  C   UNL     1     -17.393  40.083 -12.565  0.00  0.00    +0.000 C 
ENDBRANCH   6  16
TORSDOF 1
ENDMDL
