MODEL 1
REMARK VINA RESULT:    -6.282      0.000      0.000
REMARK INTER + INTRA:          -6.282
REMARK INTER:                  -6.282
REMARK INTRA:                   0.000
REMARK UNBOUND:                 0.000
REMARK  Name = 136156976
REMARK  0 active torsions:
REMARK  status: ('A' for Active; 'I' for Inactive)
REMARK                            x       y       z     vdW  Elec       q    Type
REMARK                         _______ _______ _______ _____ _____    ______ ____
ROOT
ATOM      1  O   UNL     1     -23.676  40.475  -7.786  0.00  0.00    +0.000 OA
ATOM      2  N   UNL     1     -23.075  42.270  -6.476  0.00  0.00    +0.000 N 
ATOM      3  N   UNL     1     -19.219  42.011  -7.503  0.00  0.00    +0.000 NA
ATOM      4  N   UNL     1     -20.939  43.036  -6.316  0.00  0.00    +0.000 NA
ATOM      5  N   UNL     1     -22.144  43.129  -5.986  0.00  0.00    +0.000 NA
ATOM      6  C   UNL     1     -21.426  41.121  -7.747  0.00  0.00    +0.000 A 
ATOM      7  C   UNL     1     -20.539  42.032  -7.206  0.00  0.00    +0.000 A 
ATOM      8  C   UNL     1     -20.970  40.143  -8.627  0.00  0.00    +0.000 A 
ATOM      9  C   UNL     1     -22.825  41.242  -7.353  0.00  0.00    +0.000 A 
ATOM     10  C   UNL     1     -19.619  40.108  -8.943  0.00  0.00    +0.000 A 
ATOM     11  C   UNL     1     -18.793  41.054  -8.360  0.00  0.00    +0.000 A 
ATOM     12  H   UNL     1     -24.018  42.439  -6.140  0.00  0.00    +0.000 HD
ENDROOT
TORSDOF 0
ENDMDL
MODEL 2
REMARK VINA RESULT:    -6.020      3.292      4.949
REMARK INTER + INTRA:          -6.020
REMARK INTER:                  -6.020
REMARK INTRA:                   0.000
REMARK UNBOUND:                 0.000
REMARK  Name = 136156976
REMARK  0 active torsions:
REMARK  status: ('A' for Active; 'I' for Inactive)
REMARK                            x       y       z     vdW  Elec       q    Type
REMARK                         _______ _______ _______ _____ _____    ______ ____
ROOT
ATOM      1  O   UNL     1     -19.586  38.538 -11.647  0.00  0.00    +0.000 OA
ATOM      2  N   UNL     1     -17.747  39.856 -12.074  0.00  0.00    +0.000 N 
ATOM      3  N   UNL     1     -18.307  42.081  -8.799  0.00  0.00    +0.000 NA
ATOM      4  N   UNL     1     -17.102  41.570 -10.724  0.00  0.00    +0.000 NA
ATOM      5  N   UNL     1     -16.916  40.881 -11.753  0.00  0.00    +0.000 NA
ATOM      6  C   UNL     1     -19.076  40.258 -10.143  0.00  0.00    +0.000 A 
ATOM      7  C   UNL     1     -18.187  41.284  -9.885  0.00  0.00    +0.000 A 
ATOM      8  C   UNL     1     -20.136  40.021  -9.272  0.00  0.00    +0.000 A 
ATOM      9  C   UNL     1     -18.845  39.465 -11.345  0.00  0.00    +0.000 A 
ATOM     10  C   UNL     1     -20.274  40.829  -8.153  0.00  0.00    +0.000 A 
ATOM     11  C   UNL     1     -19.343  41.836  -7.963  0.00  0.00    +0.000 A 
ATOM     12  H   UNL     1     -17.499  39.368 -12.928  0.00  0.00    +0.000 HD
ENDROOT
TORSDOF 0
ENDMDL
MODEL 3
REMARK VINA RESULT:    -5.802      4.829      5.891
REMARK INTER + INTRA:          -5.802
REMARK INTER:                  -5.802
REMARK INTRA:                   0.000
REMARK UNBOUND:                 0.000
REMARK  Name = 136156976
REMARK  0 active torsions:
REMARK  status: ('A' for Active; 'I' for Inactive)
REMARK                            x       y       z     vdW  Elec       q    Type
REMARK                         _______ _______ _______ _____ _____    ______ ____
ROOT
ATOM      1  O   UNL     1     -19.306  40.095  -9.327  0.00  0.00    +0.000 OA
ATOM      2  N   UNL     1     -19.660  39.129 -11.387  0.00  0.00    +0.000 N 
ATOM      3  N   UNL     1     -17.513  41.905 -13.304  0.00  0.00    +0.000 NA
ATOM      4  N   UNL     1     -18.812  39.973 -13.321  0.00  0.00    +0.000 NA
ATOM      5  N   UNL     1     -19.487  39.097 -12.733  0.00  0.00    +0.000 NA
ATOM      6  C   UNL     1     -18.352  41.108 -11.210  0.00  0.00    +0.000 A 
ATOM      7  C   UNL     1     -18.222  41.006 -12.582  0.00  0.00    +0.000 A 
ATOM      8  C   UNL     1     -17.743  42.158 -10.529  0.00  0.00    +0.000 A 
ATOM      9  C   UNL     1     -19.141  40.080 -10.541  0.00  0.00    +0.000 A 
ATOM     10  C   UNL     1     -17.011  43.088 -11.254  0.00  0.00    +0.000 A 
ATOM     11  C   UNL     1     -16.927  42.919 -12.625  0.00  0.00    +0.000 A 
ATOM     12  H   UNL     1     -20.224  38.369 -11.020  0.00  0.00    +0.000 HD
ENDROOT
TORSDOF 0
ENDMDL
MODEL 4
REMARK VINA RESULT:    -5.802      2.286      3.350
REMARK INTER + INTRA:          -5.802
REMARK INTER:                  -5.802
REMARK INTRA:                   0.000
REMARK UNBOUND:                 0.000
REMARK  Name = 136156976
REMARK  0 active torsions:
REMARK  status: ('A' for Active; 'I' for Inactive)
REMARK                            x       y       z     vdW  Elec       q    Type
REMARK                         _______ _______ _______ _____ _____    ______ ____
ROOT
ATOM      1  O   UNL     1     -21.106  39.649  -8.677  0.00  0.00    +0.000 OA
ATOM      2  N   UNL     1     -19.992  41.425  -7.725  0.00  0.00    +0.000 N 
ATOM      3  N   UNL     1     -17.325  41.631 -10.698  0.00  0.00    +0.000 NA
ATOM      4  N   UNL     1     -18.169  42.403  -8.670  0.00  0.00    +0.000 NA
ATOM      5  N   UNL     1     -18.998  42.349  -7.732  0.00  0.00    +0.000 NA
ATOM      6  C   UNL     1     -19.246  40.527  -9.797  0.00  0.00    +0.000 A 
ATOM      7  C   UNL     1     -18.264  41.496  -9.733  0.00  0.00    +0.000 A 
ATOM      8  C   UNL     1     -19.291  39.652 -10.879  0.00  0.00    +0.000 A 
ATOM      9  C   UNL     1     -20.203  40.478  -8.698  0.00  0.00    +0.000 A 
ATOM     10  C   UNL     1     -18.336  39.776 -11.878  0.00  0.00    +0.000 A 
ATOM     11  C   UNL     1     -17.383  40.772 -11.743  0.00  0.00    +0.000 A 
ATOM     12  H   UNL     1     -20.603  41.475  -6.917  0.00  0.00    +0.000 HD
ENDROOT
TORSDOF 0
ENDMDL
MODEL 5
REMARK VINA RESULT:    -5.522      4.367      5.942
REMARK INTER + INTRA:          -5.522
REMARK INTER:                  -5.522
REMARK INTRA:                   0.000
REMARK UNBOUND:                 0.000
REMARK  Name = 136156976
REMARK  0 active torsions:
REMARK  status: ('A' for Active; 'I' for Inactive)
REMARK                            x       y       z     vdW  Elec       q    Type
REMARK                         _______ _______ _______ _____ _____    ______ ____
ROOT
ATOM      1  O   UNL     1     -16.628  42.536 -11.870  0.00  0.00    +0.000 OA
ATOM      2  N   UNL     1     -17.623  40.818 -13.036  0.00  0.00    +0.000 N 
ATOM      3  N   UNL     1     -19.763  39.619  -9.878  0.00  0.00    +0.000 NA
ATOM      4  N   UNL     1     -19.136  39.395 -12.109  0.00  0.00    +0.000 NA
ATOM      5  N   UNL     1     -18.472  39.760 -13.106  0.00  0.00    +0.000 NA
ATOM      6  C   UNL     1     -18.164  41.172 -10.747  0.00  0.00    +0.000 A 
ATOM      7  C   UNL     1     -19.006  40.086 -10.898  0.00  0.00    +0.000 A 
ATOM      8  C   UNL     1     -18.076  41.819  -9.518  0.00  0.00    +0.000 A 
ATOM      9  C   UNL     1     -17.397  41.584 -11.918  0.00  0.00    +0.000 A 
ATOM     10  C   UNL     1     -18.845  41.354  -8.462  0.00  0.00    +0.000 A 
ATOM     11  C   UNL     1     -19.665  40.261  -8.690  0.00  0.00    +0.000 A 
ATOM     12  H   UNL     1     -17.138  41.023 -13.904  0.00  0.00    +0.000 HD
ENDROOT
TORSDOF 0
ENDMDL
