MODEL 1
REMARK VINA RESULT:    -6.206      0.000      0.000
REMARK INTER + INTRA:          -6.753
REMARK INTER:                  -6.569
REMARK INTRA:                  -0.184
REMARK UNBOUND:                -0.184
REMARK  Name = 136163729
REMARK  4 active torsions:
REMARK  status: ('A' for Active; 'I' for Inactive)
REMARK    1  A    between atoms: C_5  and  C_6
REMARK    2  A    between atoms: C_5  and  C_7
REMARK    3  A    between atoms: C_5  and  C_8
REMARK    4  A    between atoms: C_5  and  C_9
REMARK                            x       y       z     vdW  Elec       q    Type
REMARK                         _______ _______ _______ _____ _____    ______ ____
ROOT
ATOM      1  O   UNL     1     -19.243  40.209 -12.873  0.00  0.00    +0.000 OA
ATOM      2  N   UNL     1     -18.070  42.188 -12.663  0.00  0.00    +0.000 N 
ATOM      3  N   UNL     1     -17.647  43.177 -10.557  0.00  0.00    +0.000 NA
ATOM      4  N   UNL     1     -18.422  42.156  -8.608  0.00  0.00    +0.000 NA
ATOM      5  C   UNL     1     -17.544  43.172 -11.849  0.00  0.00    +0.000 A 
ATOM      6  C   UNL     1     -18.902  41.075 -10.704  0.00  0.00    +0.000 A 
ATOM      7  C   UNL     1     -18.339  42.110  -9.958  0.00  0.00    +0.000 A 
ATOM      8  C   UNL     1     -18.768  41.097 -12.174  0.00  0.00    +0.000 A 
ATOM      9  C   UNL     1     -19.575  40.049 -10.048  0.00  0.00    +0.000 A 
ATOM     10  C   UNL     1     -19.669  40.082  -8.662  0.00  0.00    +0.000 A 
ATOM     11  C   UNL     1     -19.082  41.145  -7.996  0.00  0.00    +0.000 A 
ATOM     12  H   UNL     1     -17.953  42.244 -13.670  0.00  0.00    +0.000 HD
ENDROOT
BRANCH   5  13
ATOM     13  C   UNL     1     -16.825  44.271 -12.572  0.00  0.00    +0.000 C 
ATOM     14  C   UNL     1     -15.373  43.833 -12.786  0.00  0.00    +0.000 C 
ATOM     15  C   UNL     1     -16.874  45.546 -11.724  0.00  0.00    +0.000 C 
ATOM     16  C   UNL     1     -17.508  44.512 -13.924  0.00  0.00    +0.000 C 
ENDBRANCH   5  13
TORSDOF 1
ENDMDL
MODEL 2
REMARK VINA RESULT:    -5.981      2.293      5.500
REMARK INTER + INTRA:          -6.515
REMARK INTER:                  -6.331
REMARK INTRA:                  -0.185
REMARK UNBOUND:                -0.184
REMARK  Name = 136163729
REMARK  4 active torsions:
REMARK  status: ('A' for Active; 'I' for Inactive)
REMARK    1  A    between atoms: C_5  and  C_6
REMARK    2  A    between atoms: C_5  and  C_7
REMARK    3  A    between atoms: C_5  and  C_8
REMARK    4  A    between atoms: C_5  and  C_9
REMARK                            x       y       z     vdW  Elec       q    Type
REMARK                         _______ _______ _______ _____ _____    ______ ____
ROOT
ATOM      1  O   UNL     1     -17.161  44.840 -12.155  0.00  0.00    +0.000 OA
ATOM      2  N   UNL     1     -17.959  42.697 -11.830  0.00  0.00    +0.000 N 
ATOM      3  N   UNL     1     -19.372  41.634 -13.400  0.00  0.00    +0.000 NA
ATOM      4  N   UNL     1     -20.002  42.749 -15.349  0.00  0.00    +0.000 NA
ATOM      5  C   UNL     1     -18.715  41.633 -12.282  0.00  0.00    +0.000 A 
ATOM      6  C   UNL     1     -18.563  43.912 -13.811  0.00  0.00    +0.000 A 
ATOM      7  C   UNL     1     -19.302  42.793 -14.192  0.00  0.00    +0.000 A 
ATOM      8  C   UNL     1     -17.826  43.882 -12.532  0.00  0.00    +0.000 A 
ATOM      9  C   UNL     1     -18.537  45.028 -14.642  0.00  0.00    +0.000 A 
ATOM     10  C   UNL     1     -19.251  44.999 -15.834  0.00  0.00    +0.000 A 
ATOM     11  C   UNL     1     -19.959  43.848 -16.138  0.00  0.00    +0.000 A 
ATOM     12  H   UNL     1     -17.469  42.631 -10.943  0.00  0.00    +0.000 HD
ENDROOT
BRANCH   5  13
ATOM     13  C   UNL     1     -18.734  40.441 -11.374  0.00  0.00    +0.000 C 
ATOM     14  C   UNL     1     -19.317  39.257 -12.151  0.00  0.00    +0.000 C 
ATOM     15  C   UNL     1     -19.607  40.754 -10.154  0.00  0.00    +0.000 C 
ATOM     16  C   UNL     1     -17.301  40.127 -10.929  0.00  0.00    +0.000 C 
ENDBRANCH   5  13
TORSDOF 1
ENDMDL
MODEL 3
REMARK VINA RESULT:    -5.949      3.161      4.585
REMARK INTER + INTRA:          -6.481
REMARK INTER:                  -6.297
REMARK INTRA:                  -0.184
REMARK UNBOUND:                -0.184
REMARK  Name = 136163729
REMARK  4 active torsions:
REMARK  status: ('A' for Active; 'I' for Inactive)
REMARK    1  A    between atoms: C_5  and  C_6
REMARK    2  A    between atoms: C_5  and  C_7
REMARK    3  A    between atoms: C_5  and  C_8
REMARK    4  A    between atoms: C_5  and  C_9
REMARK                            x       y       z     vdW  Elec       q    Type
REMARK                         _______ _______ _______ _____ _____    ______ ____
ROOT
ATOM      1  O   UNL     1     -17.219  45.120 -13.368  0.00  0.00    +0.000 OA
ATOM      2  N   UNL     1     -18.794  44.487 -14.935  0.00  0.00    +0.000 N 
ATOM      3  N   UNL     1     -20.082  42.519 -14.692  0.00  0.00    +0.000 NA
ATOM      4  N   UNL     1     -19.785  41.149 -12.829  0.00  0.00    +0.000 NA
ATOM      5  C   UNL     1     -19.755  43.586 -15.351  0.00  0.00    +0.000 A 
ATOM      6  C   UNL     1     -18.427  43.129 -12.989  0.00  0.00    +0.000 A 
ATOM      7  C   UNL     1     -19.411  42.273 -13.482  0.00  0.00    +0.000 A 
ATOM      8  C   UNL     1     -18.075  44.337 -13.761  0.00  0.00    +0.000 A 
ATOM      9  C   UNL     1     -17.800  42.826 -11.784  0.00  0.00    +0.000 A 
ATOM     10  C   UNL     1     -18.173  41.674 -11.101  0.00  0.00    +0.000 A 
ATOM     11  C   UNL     1     -19.159  40.878 -11.659  0.00  0.00    +0.000 A 
ATOM     12  H   UNL     1     -18.585  45.305 -15.500  0.00  0.00    +0.000 HD
ENDROOT
BRANCH   5  13
ATOM     13  C   UNL     1     -20.417  43.927 -16.652  0.00  0.00    +0.000 C 
ATOM     14  C   UNL     1     -19.713  43.145 -17.766  0.00  0.00    +0.000 C 
ATOM     15  C   UNL     1     -20.289  45.433 -16.901  0.00  0.00    +0.000 C 
ATOM     16  C   UNL     1     -21.896  43.529 -16.582  0.00  0.00    +0.000 C 
ENDBRANCH   5  13
TORSDOF 1
ENDMDL
MODEL 4
REMARK VINA RESULT:    -5.781      1.848      4.725
REMARK INTER + INTRA:          -6.304
REMARK INTER:                  -6.120
REMARK INTRA:                  -0.184
REMARK UNBOUND:                -0.184
REMARK  Name = 136163729
REMARK  4 active torsions:
REMARK  status: ('A' for Active; 'I' for Inactive)
REMARK    1  A    between atoms: C_5  and  C_6
REMARK    2  A    between atoms: C_5  and  C_7
REMARK    3  A    between atoms: C_5  and  C_8
REMARK    4  A    between atoms: C_5  and  C_9
REMARK                            x       y       z     vdW  Elec       q    Type
REMARK                         _______ _______ _______ _____ _____    ______ ____
ROOT
ATOM      1  O   UNL     1     -19.767  42.609 -15.094  0.00  0.00    +0.000 OA
ATOM      2  N   UNL     1     -18.884  41.524 -13.255  0.00  0.00    +0.000 N 
ATOM      3  N   UNL     1     -17.674  42.676 -11.582  0.00  0.00    +0.000 NA
ATOM      4  N   UNL     1     -17.341  44.979 -11.755  0.00  0.00    +0.000 NA
ATOM      5  C   UNL     1     -18.172  41.586 -12.073  0.00  0.00    +0.000 A 
ATOM      6  C   UNL     1     -18.583  43.894 -13.507  0.00  0.00    +0.000 A 
ATOM      7  C   UNL     1     -17.878  43.865 -12.305  0.00  0.00    +0.000 A 
ATOM      8  C   UNL     1     -19.138  42.635 -14.042  0.00  0.00    +0.000 A 
ATOM      9  C   UNL     1     -18.748  45.104 -14.173  0.00  0.00    +0.000 A 
ATOM     10  C   UNL     1     -18.202  46.257 -13.621  0.00  0.00    +0.000 A 
ATOM     11  C   UNL     1     -17.516  46.142 -12.423  0.00  0.00    +0.000 A 
ATOM     12  H   UNL     1     -19.247  40.635 -13.585  0.00  0.00    +0.000 HD
ENDROOT
BRANCH   5  13
ATOM     13  C   UNL     1     -18.002  40.272 -11.371  0.00  0.00    +0.000 C 
ATOM     14  C   UNL     1     -19.111  39.328 -11.848  0.00  0.00    +0.000 C 
ATOM     15  C   UNL     1     -18.110  40.494  -9.859  0.00  0.00    +0.000 C 
ATOM     16  C   UNL     1     -16.628  39.690 -11.721  0.00  0.00    +0.000 C 
ENDBRANCH   5  13
TORSDOF 1
ENDMDL
MODEL 5
REMARK VINA RESULT:    -5.519      1.774      2.418
REMARK INTER + INTRA:          -6.026
REMARK INTER:                  -5.842
REMARK INTRA:                  -0.184
REMARK UNBOUND:                -0.184
REMARK  Name = 136163729
REMARK  4 active torsions:
REMARK  status: ('A' for Active; 'I' for Inactive)
REMARK    1  A    between atoms: C_5  and  C_6
REMARK    2  A    between atoms: C_5  and  C_7
REMARK    3  A    between atoms: C_5  and  C_8
REMARK    4  A    between atoms: C_5  and  C_9
REMARK                            x       y       z     vdW  Elec       q    Type
REMARK                         _______ _______ _______ _____ _____    ______ ____
ROOT
ATOM      1  O   UNL     1     -19.666  42.327 -14.749  0.00  0.00    +0.000 OA
ATOM      2  N   UNL     1     -18.465  43.915 -13.576  0.00  0.00    +0.000 N 
ATOM      3  N   UNL     1     -17.505  43.453 -11.466  0.00  0.00    +0.000 NA
ATOM      4  N   UNL     1     -17.754  41.342 -10.504  0.00  0.00    +0.000 NA
ATOM      5  C   UNL     1     -17.740  44.259 -12.452  0.00  0.00    +0.000 A 
ATOM      6  C   UNL     1     -18.768  41.718 -12.653  0.00  0.00    +0.000 A 
ATOM      7  C   UNL     1     -18.024  42.149 -11.556  0.00  0.00    +0.000 A 
ATOM      8  C   UNL     1     -19.020  42.660 -13.762  0.00  0.00    +0.000 A 
ATOM      9  C   UNL     1     -19.254  40.415 -12.679  0.00  0.00    +0.000 A 
ATOM     10  C   UNL     1     -18.985  39.573 -11.606  0.00  0.00    +0.000 A 
ATOM     11  C   UNL     1     -18.239  40.080 -10.555  0.00  0.00    +0.000 A 
ATOM     12  H   UNL     1     -18.614  44.596 -14.314  0.00  0.00    +0.000 HD
ENDROOT
BRANCH   5  13
ATOM     13  C   UNL     1     -17.227  45.667 -12.441  0.00  0.00    +0.000 C 
ATOM     14  C   UNL     1     -18.068  46.475 -11.447  0.00  0.00    +0.000 C 
ATOM     15  C   UNL     1     -17.356  46.260 -13.847  0.00  0.00    +0.000 C 
ATOM     16  C   UNL     1     -15.757  45.662 -12.005  0.00  0.00    +0.000 C 
ENDBRANCH   5  13
TORSDOF 1
ENDMDL
