MODEL 1
REMARK VINA RESULT:    -5.874      0.000      0.000
REMARK INTER + INTRA:          -5.874
REMARK INTER:                  -5.874
REMARK INTRA:                   0.000
REMARK UNBOUND:                 0.000
REMARK  Name = 136345787
REMARK  1 active torsions:
REMARK  status: ('A' for Active; 'I' for Inactive)
REMARK    1  A    between atoms: C_7  and  C_11
REMARK                            x       y       z     vdW  Elec       q    Type
REMARK                         _______ _______ _______ _____ _____    ______ ____
ROOT
ATOM      1 CL   UNL     1     -16.150  44.545 -13.463  0.00  0.00    +0.000 Cl
ATOM      2  O   UNL     1     -17.838  42.817  -9.153  0.00  0.00    +0.000 OA
ATOM      3  N   UNL     1     -17.093  43.538 -11.201  0.00  0.00    +0.000 N 
ATOM      4  N   UNL     1     -18.579  40.278 -13.129  0.00  0.00    +0.000 NA
ATOM      5  N   UNL     1     -17.437  42.312 -13.193  0.00  0.00    +0.000 NA
ATOM      6  C   UNL     1     -18.276  41.456 -11.051  0.00  0.00    +0.000 A 
ATOM      7  C   UNL     1     -18.950  40.453 -10.359  0.00  0.00    +0.000 A 
ATOM      8  C   UNL     1     -18.108  41.337 -12.431  0.00  0.00    +0.000 A 
ATOM      9  C   UNL     1     -17.734  42.642 -10.360  0.00  0.00    +0.000 A 
ATOM     10  C   UNL     1     -19.439  39.360 -11.061  0.00  0.00    +0.000 A 
ATOM     11  C   UNL     1     -19.184  40.481  -8.884  0.00  0.00    +0.000 C 
ATOM     12  C   UNL     1     -19.229  39.319 -12.430  0.00  0.00    +0.000 A 
ATOM     13  C   UNL     1     -16.972  43.341 -12.561  0.00  0.00    +0.000 A 
ATOM     14  H   UNL     1     -16.693  44.379 -10.796  0.00  0.00    +0.000 HD
ENDROOT
TORSDOF 0
ENDMDL
MODEL 2
REMARK VINA RESULT:    -5.626      1.647      2.789
REMARK INTER + INTRA:          -5.626
REMARK INTER:                  -5.626
REMARK INTRA:                   0.000
REMARK UNBOUND:                 0.000
REMARK  Name = 136345787
REMARK  1 active torsions:
REMARK  status: ('A' for Active; 'I' for Inactive)
REMARK    1  A    between atoms: C_7  and  C_11
REMARK                            x       y       z     vdW  Elec       q    Type
REMARK                         _______ _______ _______ _____ _____    ______ ____
ROOT
ATOM      1 CL   UNL     1     -16.127  44.913 -12.606  0.00  0.00    +0.000 Cl
ATOM      2  O   UNL     1     -18.375  40.607 -13.513  0.00  0.00    +0.000 OA
ATOM      3  N   UNL     1     -17.353  42.595 -12.994  0.00  0.00    +0.000 N 
ATOM      4  N   UNL     1     -18.200  42.242  -9.030  0.00  0.00    +0.000 NA
ATOM      5  N   UNL     1     -17.244  43.441 -10.788  0.00  0.00    +0.000 NA
ATOM      6  C   UNL     1     -18.359  41.302 -11.241  0.00  0.00    +0.000 A 
ATOM      7  C   UNL     1     -19.054  40.201 -10.747  0.00  0.00    +0.000 A 
ATOM      8  C   UNL     1     -17.949  42.301 -10.358  0.00  0.00    +0.000 A 
ATOM      9  C   UNL     1     -18.047  41.439 -12.677  0.00  0.00    +0.000 A 
ATOM     10  C   UNL     1     -19.319  40.125  -9.386  0.00  0.00    +0.000 A 
ATOM     11  C   UNL     1     -19.538  39.078 -11.604  0.00  0.00    +0.000 C 
ATOM     12  C   UNL     1     -18.877  41.160  -8.578  0.00  0.00    +0.000 A 
ATOM     13  C   UNL     1     -16.984  43.535 -12.053  0.00  0.00    +0.000 A 
ATOM     14  H   UNL     1     -17.103  42.758 -13.964  0.00  0.00    +0.000 HD
ENDROOT
TORSDOF 0
ENDMDL
MODEL 3
REMARK VINA RESULT:    -5.559      1.974      2.281
REMARK INTER + INTRA:          -5.559
REMARK INTER:                  -5.559
REMARK INTRA:                   0.000
REMARK UNBOUND:                 0.000
REMARK  Name = 136345787
REMARK  1 active torsions:
REMARK  status: ('A' for Active; 'I' for Inactive)
REMARK    1  A    between atoms: C_7  and  C_11
REMARK                            x       y       z     vdW  Elec       q    Type
REMARK                         _______ _______ _______ _____ _____    ______ ____
ROOT
ATOM      1 CL   UNL     1     -19.454  43.931 -16.084  0.00  0.00    +0.000 Cl
ATOM      2  O   UNL     1     -17.799  44.416 -11.454  0.00  0.00    +0.000 OA
ATOM      3  N   UNL     1     -18.585  44.093 -13.586  0.00  0.00    +0.000 N 
ATOM      4  N   UNL     1     -19.313  40.141 -12.949  0.00  0.00    +0.000 NA
ATOM      5  N   UNL     1     -19.344  41.993 -14.366  0.00  0.00    +0.000 NA
ATOM      6  C   UNL     1     -18.523  42.237 -12.067  0.00  0.00    +0.000 A 
ATOM      7  C   UNL     1     -18.254  41.643 -10.836  0.00  0.00    +0.000 A 
ATOM      8  C   UNL     1     -19.049  41.459 -13.098  0.00  0.00    +0.000 A 
ATOM      9  C   UNL     1     -18.262  43.670 -12.307  0.00  0.00    +0.000 A 
ATOM     10  C   UNL     1     -18.520  40.291 -10.667  0.00  0.00    +0.000 A 
ATOM     11  C   UNL     1     -17.690  42.383  -9.667  0.00  0.00    +0.000 C 
ATOM     12  C   UNL     1     -19.042  39.591 -11.742  0.00  0.00    +0.000 A 
ATOM     13  C   UNL     1     -19.105  43.253 -14.549  0.00  0.00    +0.000 A 
ATOM     14  H   UNL     1     -18.433  45.068 -13.825  0.00  0.00    +0.000 HD
ENDROOT
TORSDOF 0
ENDMDL
MODEL 4
REMARK VINA RESULT:    -5.296      3.359      4.204
REMARK INTER + INTRA:          -5.296
REMARK INTER:                  -5.296
REMARK INTRA:                   0.000
REMARK UNBOUND:                 0.000
REMARK  Name = 136345787
REMARK  1 active torsions:
REMARK  status: ('A' for Active; 'I' for Inactive)
REMARK    1  A    between atoms: C_7  and  C_11
REMARK                            x       y       z     vdW  Elec       q    Type
REMARK                         _______ _______ _______ _____ _____    ______ ____
ROOT
ATOM      1 CL   UNL     1     -21.042  43.689 -17.314  0.00  0.00    +0.000 Cl
ATOM      2  O   UNL     1     -18.027  45.824 -14.033  0.00  0.00    +0.000 OA
ATOM      3  N   UNL     1     -19.431  44.751 -15.497  0.00  0.00    +0.000 N 
ATOM      4  N   UNL     1     -19.645  41.413 -13.180  0.00  0.00    +0.000 NA
ATOM      5  N   UNL     1     -20.255  42.567 -15.113  0.00  0.00    +0.000 NA
ATOM      6  C   UNL     1     -18.758  43.630 -13.485  0.00  0.00    +0.000 A 
ATOM      7  C   UNL     1     -18.069  43.545 -12.278  0.00  0.00    +0.000 A 
ATOM      8  C   UNL     1     -19.534  42.550 -13.905  0.00  0.00    +0.000 A 
ATOM      9  C   UNL     1     -18.687  44.837 -14.332  0.00  0.00    +0.000 A 
ATOM     10  C   UNL     1     -18.174  42.384 -11.521  0.00  0.00    +0.000 A 
ATOM     11  C   UNL     1     -17.212  44.641 -11.736  0.00  0.00    +0.000 C 
ATOM     12  C   UNL     1     -18.965  41.358 -12.011  0.00  0.00    +0.000 A 
ATOM     13  C   UNL     1     -20.174  43.638 -15.836  0.00  0.00    +0.000 A 
ATOM     14  H   UNL     1     -19.430  45.544 -16.131  0.00  0.00    +0.000 HD
ENDROOT
TORSDOF 0
ENDMDL
MODEL 5
REMARK VINA RESULT:    -5.123      3.081      5.028
REMARK INTER + INTRA:          -5.123
REMARK INTER:                  -5.123
REMARK INTRA:                   0.000
REMARK UNBOUND:                 0.000
REMARK  Name = 136345787
REMARK  1 active torsions:
REMARK  status: ('A' for Active; 'I' for Inactive)
REMARK    1  A    between atoms: C_7  and  C_11
REMARK                            x       y       z     vdW  Elec       q    Type
REMARK                         _______ _______ _______ _____ _____    ______ ____
ROOT
ATOM      1 CL   UNL     1     -19.241  39.448 -11.192  0.00  0.00    +0.000 Cl
ATOM      2  O   UNL     1     -19.833  42.545 -14.996  0.00  0.00    +0.000 OA
ATOM      3  N   UNL     1     -19.506  41.179 -13.181  0.00  0.00    +0.000 N 
ATOM      4  N   UNL     1     -17.385  44.006 -11.166  0.00  0.00    +0.000 NA
ATOM      5  N   UNL     1     -18.300  41.862 -11.266  0.00  0.00    +0.000 NA
ATOM      6  C   UNL     1     -18.597  43.399 -13.156  0.00  0.00    +0.000 A 
ATOM      7  C   UNL     1     -18.358  44.653 -13.711  0.00  0.00    +0.000 A 
ATOM      8  C   UNL     1     -18.097  43.109 -11.886  0.00  0.00    +0.000 A 
ATOM      9  C   UNL     1     -19.365  42.367 -13.879  0.00  0.00    +0.000 A 
ATOM     10  C   UNL     1     -17.628  45.585 -12.984  0.00  0.00    +0.000 A 
ATOM     11  C   UNL     1     -18.846  45.066 -15.061  0.00  0.00    +0.000 C 
ATOM     12  C   UNL     1     -17.168  45.216 -11.730  0.00  0.00    +0.000 A 
ATOM     13  C   UNL     1     -18.977  40.976 -11.923  0.00  0.00    +0.000 A 
ATOM     14  H   UNL     1     -20.024  40.421 -13.617  0.00  0.00    +0.000 HD
ENDROOT
TORSDOF 0
ENDMDL
