MODEL 1
REMARK VINA RESULT:    -6.744      0.000      0.000
REMARK INTER + INTRA:          -7.211
REMARK INTER:                  -7.139
REMARK INTRA:                  -0.072
REMARK UNBOUND:                -0.072
REMARK  Name = 136345708
REMARK  1 active torsions:
REMARK  status: ('A' for Active; 'I' for Inactive)
REMARK    1  A    between atoms: C_10  and  C_13
REMARK                            x       y       z     vdW  Elec       q    Type
REMARK                         _______ _______ _______ _____ _____    ______ ____
ROOT
ATOM      1  O   UNL     1     -19.288  38.918 -11.311  0.00  0.00    +0.000 OA
ATOM      2  N   UNL     1     -17.652  40.538 -11.502  0.00  0.00    +0.000 N 
ATOM      3  N   UNL     1     -17.418  42.280  -9.906  0.00  0.00    +0.000 NA
ATOM      4  N   UNL     1     -18.862  42.387  -8.076  0.00  0.00    +0.000 NA
ATOM      5  C   UNL     1     -19.176  40.587  -9.645  0.00  0.00    +0.000 A 
ATOM      6  C   UNL     1     -18.509  41.730  -9.204  0.00  0.00    +0.000 A 
ATOM      7  C   UNL     1     -18.730  39.923 -10.888  0.00  0.00    +0.000 A 
ATOM      8  C   UNL     1     -17.059  41.670 -10.988  0.00  0.00    +0.000 A 
ATOM      9  C   UNL     1     -20.247  40.096  -8.902  0.00  0.00    +0.000 A 
ATOM     10  C   UNL     1     -20.623  40.759  -7.741  0.00  0.00    +0.000 A 
ATOM     11  C   UNL     1     -19.907  41.887  -7.375  0.00  0.00    +0.000 A 
ATOM     12  H   UNL     1     -17.294  40.133 -12.362  0.00  0.00    +0.000 HD
ENDROOT
BRANCH   8  15
ATOM     13  O   UNL     1     -16.149  42.837 -12.786  0.00  0.00    +0.000 OA
ATOM     14  N   UNL     1     -14.694  41.891 -11.238  0.00  0.00    +0.000 N 
ATOM     15  C   UNL     1     -15.920  42.197 -11.771  0.00  0.00    +0.000 C 
ATOM     16  H   UNL     1     -14.593  41.350 -10.385  0.00  0.00    +0.000 HD
ATOM     17  H   UNL     1     -13.837  42.199 -11.686  0.00  0.00    +0.000 HD
ENDBRANCH   8  15
TORSDOF 1
ENDMDL
MODEL 2
REMARK VINA RESULT:    -6.373      1.927      4.454
REMARK INTER + INTRA:          -6.818
REMARK INTER:                  -6.736
REMARK INTRA:                  -0.082
REMARK UNBOUND:                -0.072
REMARK  Name = 136345708
REMARK  1 active torsions:
REMARK  status: ('A' for Active; 'I' for Inactive)
REMARK    1  A    between atoms: C_10  and  C_13
REMARK                            x       y       z     vdW  Elec       q    Type
REMARK                         _______ _______ _______ _____ _____    ______ ____
ROOT
ATOM      1  O   UNL     1     -19.217  39.692 -13.179  0.00  0.00    +0.000 OA
ATOM      2  N   UNL     1     -19.613  39.964 -10.919  0.00  0.00    +0.000 N 
ATOM      3  N   UNL     1     -18.518  41.642  -9.647  0.00  0.00    +0.000 NA
ATOM      4  N   UNL     1     -16.994  43.079 -10.676  0.00  0.00    +0.000 NA
ATOM      5  C   UNL     1     -18.055  41.405 -12.045  0.00  0.00    +0.000 A 
ATOM      6  C   UNL     1     -17.848  42.040 -10.820  0.00  0.00    +0.000 A 
ATOM      7  C   UNL     1     -19.006  40.278 -12.124  0.00  0.00    +0.000 A 
ATOM      8  C   UNL     1     -19.342  40.652  -9.758  0.00  0.00    +0.000 A 
ATOM      9  C   UNL     1     -17.360  41.851 -13.167  0.00  0.00    +0.000 A 
ATOM     10  C   UNL     1     -16.478  42.916 -13.035  0.00  0.00    +0.000 A 
ATOM     11  C   UNL     1     -16.333  43.490 -11.783  0.00  0.00    +0.000 A 
ATOM     12  H   UNL     1     -20.279  39.198 -10.903  0.00  0.00    +0.000 HD
ENDROOT
BRANCH   8  15
ATOM     13  O   UNL     1     -21.271  39.944  -8.661  0.00  0.00    +0.000 OA
ATOM     14  N   UNL     1     -19.296  40.077  -7.439  0.00  0.00    +0.000 N 
ATOM     15  C   UNL     1     -20.077  40.186  -8.561  0.00  0.00    +0.000 C 
ATOM     16  H   UNL     1     -18.306  40.300  -7.445  0.00  0.00    +0.000 HD
ATOM     17  H   UNL     1     -19.688  39.766  -6.557  0.00  0.00    +0.000 HD
ENDBRANCH   8  15
TORSDOF 1
ENDMDL
MODEL 3
REMARK VINA RESULT:    -6.178      3.218      5.514
REMARK INTER + INTRA:          -6.612
REMARK INTER:                  -6.538
REMARK INTRA:                  -0.074
REMARK UNBOUND:                -0.072
REMARK  Name = 136345708
REMARK  1 active torsions:
REMARK  status: ('A' for Active; 'I' for Inactive)
REMARK    1  A    between atoms: C_10  and  C_13
REMARK                            x       y       z     vdW  Elec       q    Type
REMARK                         _______ _______ _______ _____ _____    ______ ____
ROOT
ATOM      1  O   UNL     1     -17.068  44.082 -11.387  0.00  0.00    +0.000 OA
ATOM      2  N   UNL     1     -18.200  42.078 -11.187  0.00  0.00    +0.000 N 
ATOM      3  N   UNL     1     -19.659  41.286 -12.883  0.00  0.00    +0.000 NA
ATOM      4  N   UNL     1     -19.980  42.540 -14.826  0.00  0.00    +0.000 NA
ATOM      5  C   UNL     1     -18.484  43.423 -13.157  0.00  0.00    +0.000 A 
ATOM      6  C   UNL     1     -19.360  42.444 -13.627  0.00  0.00    +0.000 A 
ATOM      7  C   UNL     1     -17.843  43.247 -11.838  0.00  0.00    +0.000 A 
ATOM      8  C   UNL     1     -19.078  41.170 -11.735  0.00  0.00    +0.000 A 
ATOM      9  C   UNL     1     -18.232  44.544 -13.944  0.00  0.00    +0.000 A 
ATOM     10  C   UNL     1     -18.861  44.658 -15.178  0.00  0.00    +0.000 A 
ATOM     11  C   UNL     1     -19.716  43.640 -15.568  0.00  0.00    +0.000 A 
ATOM     12  H   UNL     1     -17.795  41.894 -10.274  0.00  0.00    +0.000 HD
ENDROOT
BRANCH   8  15
ATOM     13  O   UNL     1     -18.870  38.903 -11.242  0.00  0.00    +0.000 OA
ATOM     14  N   UNL     1     -20.141  40.227  -9.813  0.00  0.00    +0.000 N 
ATOM     15  C   UNL     1     -19.350  39.975 -10.905  0.00  0.00    +0.000 C 
ATOM     16  H   UNL     1     -20.499  41.154  -9.607  0.00  0.00    +0.000 HD
ATOM     17  H   UNL     1     -20.396  39.486  -9.169  0.00  0.00    +0.000 HD
ENDBRANCH   8  15
TORSDOF 1
ENDMDL
MODEL 4
REMARK VINA RESULT:    -6.143      3.599      4.825
REMARK INTER + INTRA:          -6.574
REMARK INTER:                  -6.493
REMARK INTRA:                  -0.082
REMARK UNBOUND:                -0.072
REMARK  Name = 136345708
REMARK  1 active torsions:
REMARK  status: ('A' for Active; 'I' for Inactive)
REMARK    1  A    between atoms: C_10  and  C_13
REMARK                            x       y       z     vdW  Elec       q    Type
REMARK                         _______ _______ _______ _____ _____    ______ ____
ROOT
ATOM      1  O   UNL     1     -16.661  44.357 -12.638  0.00  0.00    +0.000 OA
ATOM      2  N   UNL     1     -18.265  43.767 -14.193  0.00  0.00    +0.000 N 
ATOM      3  N   UNL     1     -19.738  41.938 -13.844  0.00  0.00    +0.000 NA
ATOM      4  N   UNL     1     -19.593  40.681 -11.884  0.00  0.00    +0.000 NA
ATOM      5  C   UNL     1     -18.056  42.516 -12.152  0.00  0.00    +0.000 A 
ATOM      6  C   UNL     1     -19.107  41.718 -12.604  0.00  0.00    +0.000 A 
ATOM      7  C   UNL     1     -17.582  43.632 -12.996  0.00  0.00    +0.000 A 
ATOM      8  C   UNL     1     -19.293  42.925 -14.552  0.00  0.00    +0.000 A 
ATOM      9  C   UNL     1     -17.478  42.242 -10.915  0.00  0.00    +0.000 A 
ATOM     10  C   UNL     1     -17.965  41.180 -10.163  0.00  0.00    +0.000 A 
ATOM     11  C   UNL     1     -19.011  40.439 -10.686  0.00  0.00    +0.000 A 
ATOM     12  H   UNL     1     -17.989  44.516 -14.821  0.00  0.00    +0.000 HD
ENDROOT
BRANCH   8  15
ATOM     13  O   UNL     1     -20.049  42.293 -16.662  0.00  0.00    +0.000 OA
ATOM     14  N   UNL     1     -20.277  44.521 -16.033  0.00  0.00    +0.000 N 
ATOM     15  C   UNL     1     -19.914  43.209 -15.865  0.00  0.00    +0.000 C 
ATOM     16  H   UNL     1     -20.127  45.221 -15.313  0.00  0.00    +0.000 HD
ATOM     17  H   UNL     1     -20.713  44.837 -16.893  0.00  0.00    +0.000 HD
ENDBRANCH   8  15
TORSDOF 1
ENDMDL
MODEL 5
REMARK VINA RESULT:    -5.751      2.069      2.667
REMARK INTER + INTRA:          -6.160
REMARK INTER:                  -6.076
REMARK INTRA:                  -0.084
REMARK UNBOUND:                -0.072
REMARK  Name = 136345708
REMARK  1 active torsions:
REMARK  status: ('A' for Active; 'I' for Inactive)
REMARK    1  A    between atoms: C_10  and  C_13
REMARK                            x       y       z     vdW  Elec       q    Type
REMARK                         _______ _______ _______ _____ _____    ______ ____
ROOT
ATOM      1  O   UNL     1     -19.575  41.903 -14.027  0.00  0.00    +0.000 OA
ATOM      2  N   UNL     1     -17.539  42.877 -13.531  0.00  0.00    +0.000 N 
ATOM      3  N   UNL     1     -16.472  42.556 -11.436  0.00  0.00    +0.000 NA
ATOM      4  N   UNL     1     -17.476  41.219  -9.807  0.00  0.00    +0.000 NA
ATOM      5  C   UNL     1     -18.634  41.491 -11.902  0.00  0.00    +0.000 A 
ATOM      6  C   UNL     1     -17.555  41.741 -11.053  0.00  0.00    +0.000 A 
ATOM      7  C   UNL     1     -18.648  42.096 -13.250  0.00  0.00    +0.000 A 
ATOM      8  C   UNL     1     -16.522  43.065 -12.623  0.00  0.00    +0.000 A 
ATOM      9  C   UNL     1     -19.673  40.676 -11.460  0.00  0.00    +0.000 A 
ATOM     10  C   UNL     1     -19.607  40.132 -10.183  0.00  0.00    +0.000 A 
ATOM     11  C   UNL     1     -18.500  40.431  -9.405  0.00  0.00    +0.000 A 
ATOM     12  H   UNL     1     -17.485  43.323 -14.442  0.00  0.00    +0.000 HD
ENDROOT
BRANCH   8  15
ATOM     13  O   UNL     1     -15.680  44.934 -13.729  0.00  0.00    +0.000 OA
ATOM     14  N   UNL     1     -14.171  43.480 -12.719  0.00  0.00    +0.000 N 
ATOM     15  C   UNL     1     -15.414  43.930 -13.085  0.00  0.00    +0.000 C 
ATOM     16  H   UNL     1     -14.040  42.630 -12.180  0.00  0.00    +0.000 HD
ATOM     17  H   UNL     1     -13.333  43.989 -12.978  0.00  0.00    +0.000 HD
ENDBRANCH   8  15
TORSDOF 1
ENDMDL
