MODEL 1
REMARK VINA RESULT:    -5.997      0.000      0.000
REMARK INTER + INTRA:          -6.389
REMARK INTER:                  -6.348
REMARK INTRA:                  -0.041
REMARK UNBOUND:                -0.041
REMARK  Name = 136508362
REMARK  2 active torsions:
REMARK  status: ('A' for Active; 'I' for Inactive)
REMARK    1  A    between atoms: S_1  and  C_10
REMARK    2  A    between atoms: S_1  and  C_13
REMARK                            x       y       z     vdW  Elec       q    Type
REMARK                         _______ _______ _______ _____ _____    ______ ____
ROOT
ATOM      1  O   UNL     1     -19.235  38.947 -11.297  0.00  0.00    +0.000 OA
ATOM      2  N   UNL     1     -17.836  40.728 -11.754  0.00  0.00    +0.000 N 
ATOM      3  N   UNL     1     -17.533  42.511 -10.226  0.00  0.00    +0.000 NA
ATOM      4  N   UNL     1     -18.664  42.506  -8.186  0.00  0.00    +0.000 NA
ATOM      5  C   UNL     1     -19.036  40.651  -9.675  0.00  0.00    +0.000 A 
ATOM      6  C   UNL     1     -18.431  41.866  -9.355  0.00  0.00    +0.000 A 
ATOM      7  C   UNL     1     -18.728  40.014 -10.972  0.00  0.00    +0.000 A 
ATOM      8  C   UNL     1     -19.914  40.067  -8.767  0.00  0.00    +0.000 A 
ATOM      9  C   UNL     1     -17.286  41.927 -11.353  0.00  0.00    +0.000 A 
ATOM     10  C   UNL     1     -20.165  40.712  -7.562  0.00  0.00    +0.000 A 
ATOM     11  C   UNL     1     -19.523  41.915  -7.322  0.00  0.00    +0.000 A 
ATOM     12  H   UNL     1     -17.577  40.352 -12.661  0.00  0.00    +0.000 HD
ENDROOT
BRANCH   9  13
ATOM     13  S   UNL     1     -16.195  42.621 -12.517  0.00  0.00    +0.000 S 
ATOM     14  C   UNL     1     -14.861  43.118 -11.407  0.00  0.00    +0.000 C 
ENDBRANCH   9  13
TORSDOF 1
ENDMDL
MODEL 2
REMARK VINA RESULT:    -5.530      3.696      4.733
REMARK INTER + INTRA:          -5.894
REMARK INTER:                  -5.853
REMARK INTRA:                  -0.042
REMARK UNBOUND:                -0.041
REMARK  Name = 136508362
REMARK  2 active torsions:
REMARK  status: ('A' for Active; 'I' for Inactive)
REMARK    1  A    between atoms: S_1  and  C_10
REMARK    2  A    between atoms: S_1  and  C_13
REMARK                            x       y       z     vdW  Elec       q    Type
REMARK                         _______ _______ _______ _____ _____    ______ ____
ROOT
ATOM      1  O   UNL     1     -15.944  43.250 -12.557  0.00  0.00    +0.000 OA
ATOM      2  N   UNL     1     -17.728  43.591 -13.986  0.00  0.00    +0.000 N 
ATOM      3  N   UNL     1     -19.550  42.084 -14.102  0.00  0.00    +0.000 NA
ATOM      4  N   UNL     1     -19.583  40.185 -12.749  0.00  0.00    +0.000 NA
ATOM      5  C   UNL     1     -17.688  41.659 -12.561  0.00  0.00    +0.000 A 
ATOM      6  C   UNL     1     -18.916  41.303 -13.117  0.00  0.00    +0.000 A 
ATOM      7  C   UNL     1     -17.024  42.896 -13.016  0.00  0.00    +0.000 A 
ATOM      8  C   UNL     1     -17.117  40.840 -11.590  0.00  0.00    +0.000 A 
ATOM      9  C   UNL     1     -18.941  43.161 -14.478  0.00  0.00    +0.000 A 
ATOM     10  C   UNL     1     -17.789  39.688 -11.201  0.00  0.00    +0.000 A 
ATOM     11  C   UNL     1     -19.004  39.408 -11.803  0.00  0.00    +0.000 A 
ATOM     12  H   UNL     1     -17.332  44.453 -14.349  0.00  0.00    +0.000 HD
ENDROOT
BRANCH   9  13
ATOM     13  S   UNL     1     -19.618  44.213 -15.689  0.00  0.00    +0.000 S 
ATOM     14  C   UNL     1     -20.179  42.971 -16.873  0.00  0.00    +0.000 C 
ENDBRANCH   9  13
TORSDOF 1
ENDMDL
MODEL 3
REMARK VINA RESULT:    -5.466      1.529      1.711
REMARK INTER + INTRA:          -5.826
REMARK INTER:                  -5.787
REMARK INTRA:                  -0.039
REMARK UNBOUND:                -0.041
REMARK  Name = 136508362
REMARK  2 active torsions:
REMARK  status: ('A' for Active; 'I' for Inactive)
REMARK    1  A    between atoms: S_1  and  C_10
REMARK    2  A    between atoms: S_1  and  C_13
REMARK                            x       y       z     vdW  Elec       q    Type
REMARK                         _______ _______ _______ _____ _____    ______ ____
ROOT
ATOM      1  O   UNL     1     -19.236  40.741 -13.384  0.00  0.00    +0.000 OA
ATOM      2  N   UNL     1     -17.591  42.333 -13.073  0.00  0.00    +0.000 N 
ATOM      3  N   UNL     1     -16.971  43.095 -10.918  0.00  0.00    +0.000 NA
ATOM      4  N   UNL     1     -18.031  42.235  -9.027  0.00  0.00    +0.000 NA
ATOM      5  C   UNL     1     -18.729  41.401 -11.175  0.00  0.00    +0.000 A 
ATOM      6  C   UNL     1     -17.933  42.222 -10.376  0.00  0.00    +0.000 A 
ATOM      7  C   UNL     1     -18.560  41.443 -12.641  0.00  0.00    +0.000 A 
ATOM      8  C   UNL     1     -19.661  40.560 -10.573  0.00  0.00    +0.000 A 
ATOM      9  C   UNL     1     -16.851  43.108 -12.206  0.00  0.00    +0.000 A 
ATOM     10  C   UNL     1     -19.774  40.562  -9.188  0.00  0.00    +0.000 A 
ATOM     11  C   UNL     1     -18.946  41.407  -8.468  0.00  0.00    +0.000 A 
ATOM     12  H   UNL     1     -17.419  42.418 -14.070  0.00  0.00    +0.000 HD
ENDROOT
BRANCH   9  13
ATOM     13  S   UNL     1     -15.698  44.143 -13.000  0.00  0.00    +0.000 S 
ATOM     14  C   UNL     1     -14.214  43.687 -12.078  0.00  0.00    +0.000 C 
ENDBRANCH   9  13
TORSDOF 1
ENDMDL
MODEL 4
REMARK VINA RESULT:    -5.126      3.185      4.822
REMARK INTER + INTRA:          -5.467
REMARK INTER:                  -5.427
REMARK INTRA:                  -0.039
REMARK UNBOUND:                -0.041
REMARK  Name = 136508362
REMARK  2 active torsions:
REMARK  status: ('A' for Active; 'I' for Inactive)
REMARK    1  A    between atoms: S_1  and  C_10
REMARK    2  A    between atoms: S_1  and  C_13
REMARK                            x       y       z     vdW  Elec       q    Type
REMARK                         _______ _______ _______ _____ _____    ______ ____
ROOT
ATOM      1  O   UNL     1     -19.776  42.654 -15.063  0.00  0.00    +0.000 OA
ATOM      2  N   UNL     1     -19.303  41.317 -13.239  0.00  0.00    +0.000 N 
ATOM      3  N   UNL     1     -18.188  42.153 -11.324  0.00  0.00    +0.000 NA
ATOM      4  N   UNL     1     -17.532  44.390 -11.239  0.00  0.00    +0.000 NA
ATOM      5  C   UNL     1     -18.658  43.630 -13.227  0.00  0.00    +0.000 A 
ATOM      6  C   UNL     1     -18.132  43.411 -11.954  0.00  0.00    +0.000 A 
ATOM      7  C   UNL     1     -19.299  42.509 -13.943  0.00  0.00    +0.000 A 
ATOM      8  C   UNL     1     -18.569  44.900 -13.792  0.00  0.00    +0.000 A 
ATOM      9  C   UNL     1     -18.755  41.194 -11.980  0.00  0.00    +0.000 A 
ATOM     10  C   UNL     1     -17.955  45.916 -13.070  0.00  0.00    +0.000 A 
ATOM     11  C   UNL     1     -17.459  45.614 -11.813  0.00  0.00    +0.000 A 
ATOM     12  H   UNL     1     -19.726  40.500 -13.669  0.00  0.00    +0.000 HD
ENDROOT
BRANCH   9  13
ATOM     13  S   UNL     1     -18.889  39.592 -11.312  0.00  0.00    +0.000 S 
ATOM     14  C   UNL     1     -19.633  40.001  -9.719  0.00  0.00    +0.000 C 
ENDBRANCH   9  13
TORSDOF 1
ENDMDL
MODEL 5
REMARK VINA RESULT:    -5.054      4.238      5.301
REMARK INTER + INTRA:          -5.390
REMARK INTER:                  -5.351
REMARK INTRA:                  -0.040
REMARK UNBOUND:                -0.041
REMARK  Name = 136508362
REMARK  2 active torsions:
REMARK  status: ('A' for Active; 'I' for Inactive)
REMARK    1  A    between atoms: S_1  and  C_10
REMARK    2  A    between atoms: S_1  and  C_13
REMARK                            x       y       z     vdW  Elec       q    Type
REMARK                         _______ _______ _______ _____ _____    ______ ____
ROOT
ATOM      1  O   UNL     1     -17.890  45.743 -13.526  0.00  0.00    +0.000 OA
ATOM      2  N   UNL     1     -19.289  44.449 -14.834  0.00  0.00    +0.000 N 
ATOM      3  N   UNL     1     -19.896  42.244 -14.222  0.00  0.00    +0.000 NA
ATOM      4  N   UNL     1     -19.076  41.312 -12.246  0.00  0.00    +0.000 NA
ATOM      5  C   UNL     1     -18.404  43.561 -12.786  0.00  0.00    +0.000 A 
ATOM      6  C   UNL     1     -19.106  42.389 -13.066  0.00  0.00    +0.000 A 
ATOM      7  C   UNL     1     -18.488  44.693 -13.730  0.00  0.00    +0.000 A 
ATOM      8  C   UNL     1     -17.642  43.637 -11.623  0.00  0.00    +0.000 A 
ATOM      9  C   UNL     1     -19.947  43.254 -15.027  0.00  0.00    +0.000 A 
ATOM     10  C   UNL     1     -17.600  42.540 -10.771  0.00  0.00    +0.000 A 
ATOM     11  C   UNL     1     -18.327  41.415 -11.123  0.00  0.00    +0.000 A 
ATOM     12  H   UNL     1     -19.394  45.182 -15.528  0.00  0.00    +0.000 HD
ENDROOT
BRANCH   9  13
ATOM     13  S   UNL     1     -20.888  43.202 -16.491  0.00  0.00    +0.000 S 
ATOM     14  C   UNL     1     -19.551  43.292 -17.701  0.00  0.00    +0.000 C 
ENDBRANCH   9  13
TORSDOF 1
ENDMDL
