MODEL 1
REMARK VINA RESULT:    -6.605      0.000      0.000
REMARK INTER + INTRA:          -7.491
REMARK INTER:                  -7.377
REMARK INTRA:                  -0.114
REMARK UNBOUND:                -0.114
REMARK  Name = 136999721
REMARK  3 active torsions:
REMARK  status: ('A' for Active; 'I' for Inactive)
REMARK    1  A    between atoms: C_5  and  C_6
REMARK    2  A    between atoms: C_5  and  C_7
REMARK    3  A    between atoms: C_6  and  C_11
REMARK                            x       y       z     vdW  Elec       q    Type
REMARK                         _______ _______ _______ _____ _____    ______ ____
ROOT
ATOM      1  O   UNL     1     -19.307  39.298 -12.891  0.00  0.00    +0.000 OA
ATOM      2  N   UNL     1     -19.713  39.749 -10.661  0.00  0.00    +0.000 N 
ATOM      3  N   UNL     1     -18.666  41.547  -9.537  0.00  0.00    +0.000 NA
ATOM      4  N   UNL     1     -17.172  42.929 -10.676  0.00  0.00    +0.000 NA
ATOM      5  C   UNL     1     -19.471  40.531  -9.549  0.00  0.00    +0.000 A 
ATOM      6  C   UNL     1     -18.187  41.126 -11.904  0.00  0.00    +0.000 A 
ATOM      7  C   UNL     1     -18.002  41.862 -10.736  0.00  0.00    +0.000 A 
ATOM      8  C   UNL     1     -19.110  39.975 -11.889  0.00  0.00    +0.000 A 
ATOM      9  C   UNL     1     -17.498  41.492 -13.057  0.00  0.00    +0.000 A 
ATOM     10  C   UNL     1     -16.641  42.584 -13.012  0.00  0.00    +0.000 A 
ATOM     11  C   UNL     1     -16.515  43.262 -11.811  0.00  0.00    +0.000 A 
ATOM     12  H   UNL     1     -20.360  38.969 -10.589  0.00  0.00    +0.000 HD
ENDROOT
BRANCH   5  13
ATOM     13  C   UNL     1     -20.220  40.121  -8.316  0.00  0.00    +0.000 C 
BRANCH  13  14
ATOM     14  C   UNL     1     -21.140  41.239  -7.849  0.00  0.00    +0.000 C 
ATOM     15  C   UNL     1     -20.665  41.892  -6.558  0.00  0.00    +0.000 C 
ENDBRANCH  13  14
ENDBRANCH   5  13
TORSDOF 2
ENDMDL
MODEL 2
REMARK VINA RESULT:    -6.058      1.355      4.566
REMARK INTER + INTRA:          -6.881
REMARK INTER:                  -6.725
REMARK INTRA:                  -0.156
REMARK UNBOUND:                -0.114
REMARK  Name = 136999721
REMARK  3 active torsions:
REMARK  status: ('A' for Active; 'I' for Inactive)
REMARK    1  A    between atoms: C_5  and  C_6
REMARK    2  A    between atoms: C_5  and  C_7
REMARK    3  A    between atoms: C_6  and  C_11
REMARK                            x       y       z     vdW  Elec       q    Type
REMARK                         _______ _______ _______ _____ _____    ______ ____
ROOT
ATOM      1  O   UNL     1     -19.233  38.953 -11.300  0.00  0.00    +0.000 OA
ATOM      2  N   UNL     1     -17.627  40.606 -11.479  0.00  0.00    +0.000 N 
ATOM      3  N   UNL     1     -17.432  42.341  -9.885  0.00  0.00    +0.000 NA
ATOM      4  N   UNL     1     -18.884  42.425  -8.062  0.00  0.00    +0.000 NA
ATOM      5  C   UNL     1     -17.045  41.750 -10.972  0.00  0.00    +0.000 A 
ATOM      6  C   UNL     1     -19.161  40.621  -9.631  0.00  0.00    +0.000 A 
ATOM      7  C   UNL     1     -18.515  41.774  -9.190  0.00  0.00    +0.000 A 
ATOM      8  C   UNL     1     -18.697  39.969 -10.871  0.00  0.00    +0.000 A 
ATOM      9  C   UNL     1     -20.226  40.112  -8.895  0.00  0.00    +0.000 A 
ATOM     10  C   UNL     1     -20.619  40.769  -7.736  0.00  0.00    +0.000 A 
ATOM     11  C   UNL     1     -19.923  41.908  -7.366  0.00  0.00    +0.000 A 
ATOM     12  H   UNL     1     -17.264  40.202 -12.338  0.00  0.00    +0.000 HD
ENDROOT
BRANCH   5  13
ATOM     13  C   UNL     1     -15.900  42.286 -11.779  0.00  0.00    +0.000 C 
BRANCH  13  14
ATOM     14  C   UNL     1     -16.189  43.704 -12.248  0.00  0.00    +0.000 C 
ATOM     15  C   UNL     1     -17.335  43.773 -13.247  0.00  0.00    +0.000 C 
ENDBRANCH  13  14
ENDBRANCH   5  13
TORSDOF 2
ENDMDL
MODEL 3
REMARK VINA RESULT:    -6.024      1.889      2.864
REMARK INTER + INTRA:          -6.843
REMARK INTER:                  -6.752
REMARK INTRA:                  -0.090
REMARK UNBOUND:                -0.114
REMARK  Name = 136999721
REMARK  3 active torsions:
REMARK  status: ('A' for Active; 'I' for Inactive)
REMARK    1  A    between atoms: C_5  and  C_6
REMARK    2  A    between atoms: C_5  and  C_7
REMARK    3  A    between atoms: C_6  and  C_11
REMARK                            x       y       z     vdW  Elec       q    Type
REMARK                         _______ _______ _______ _____ _____    ______ ____
ROOT
ATOM      1  O   UNL     1     -16.795  43.335 -10.630  0.00  0.00    +0.000 OA
ATOM      2  N   UNL     1     -18.191  42.520  -8.978  0.00  0.00    +0.000 N 
ATOM      3  N   UNL     1     -19.513  40.586  -9.297  0.00  0.00    +0.000 NA
ATOM      4  N   UNL     1     -19.436  39.437 -11.324  0.00  0.00    +0.000 NA
ATOM      5  C   UNL     1     -19.107  41.574  -8.563  0.00  0.00    +0.000 A 
ATOM      6  C   UNL     1     -18.055  41.394 -11.095  0.00  0.00    +0.000 A 
ATOM      7  C   UNL     1     -18.983  40.483 -10.595  0.00  0.00    +0.000 A 
ATOM      8  C   UNL     1     -17.609  42.508 -10.236  0.00  0.00    +0.000 A 
ATOM      9  C   UNL     1     -17.570  41.233 -12.390  0.00  0.00    +0.000 A 
ATOM     10  C   UNL     1     -18.026  40.165 -13.152  0.00  0.00    +0.000 A 
ATOM     11  C   UNL     1     -18.948  39.305 -12.580  0.00  0.00    +0.000 A 
ATOM     12  H   UNL     1     -17.922  43.266  -8.341  0.00  0.00    +0.000 HD
ENDROOT
BRANCH   5  13
ATOM     13  C   UNL     1     -19.619  41.764  -7.167  0.00  0.00    +0.000 C 
BRANCH  13  14
ATOM     14  C   UNL     1     -21.133  41.922  -7.166  0.00  0.00    +0.000 C 
ATOM     15  C   UNL     1     -21.675  42.386  -5.821  0.00  0.00    +0.000 C 
ENDBRANCH  13  14
ENDBRANCH   5  13
TORSDOF 2
ENDMDL
MODEL 4
REMARK VINA RESULT:    -5.785      3.248      5.564
REMARK INTER + INTRA:          -6.575
REMARK INTER:                  -6.443
REMARK INTRA:                  -0.132
REMARK UNBOUND:                -0.114
REMARK  Name = 136999721
REMARK  3 active torsions:
REMARK  status: ('A' for Active; 'I' for Inactive)
REMARK    1  A    between atoms: C_5  and  C_6
REMARK    2  A    between atoms: C_5  and  C_7
REMARK    3  A    between atoms: C_6  and  C_11
REMARK                            x       y       z     vdW  Elec       q    Type
REMARK                         _______ _______ _______ _____ _____    ______ ____
ROOT
ATOM      1  O   UNL     1     -17.415  44.106 -11.310  0.00  0.00    +0.000 OA
ATOM      2  N   UNL     1     -18.460  43.935 -13.365  0.00  0.00    +0.000 N 
ATOM      3  N   UNL     1     -19.472  41.925 -14.091  0.00  0.00    +0.000 NA
ATOM      4  N   UNL     1     -19.437  40.036 -12.724  0.00  0.00    +0.000 NA
ATOM      5  C   UNL     1     -19.152  43.167 -14.280  0.00  0.00    +0.000 A 
ATOM      6  C   UNL     1     -18.380  42.034 -11.898  0.00  0.00    +0.000 A 
ATOM      7  C   UNL     1     -19.082  41.333 -12.876  0.00  0.00    +0.000 A 
ATOM      8  C   UNL     1     -18.031  43.447 -12.140  0.00  0.00    +0.000 A 
ATOM      9  C   UNL     1     -18.025  41.387 -10.718  0.00  0.00    +0.000 A 
ATOM     10  C   UNL     1     -18.380  40.056 -10.546  0.00  0.00    +0.000 A 
ATOM     11  C   UNL     1     -19.078  39.432 -11.567  0.00  0.00    +0.000 A 
ATOM     12  H   UNL     1     -18.248  44.903 -13.588  0.00  0.00    +0.000 HD
ENDROOT
BRANCH   5  13
ATOM     13  C   UNL     1     -19.525  43.879 -15.545  0.00  0.00    +0.000 C 
BRANCH  13  14
ATOM     14  C   UNL     1     -20.397  42.995 -16.424  0.00  0.00    +0.000 C 
ATOM     15  C   UNL     1     -21.843  43.469 -16.486  0.00  0.00    +0.000 C 
ENDBRANCH  13  14
ENDBRANCH   5  13
TORSDOF 2
ENDMDL
MODEL 5
REMARK VINA RESULT:    -5.560      2.765      3.451
REMARK INTER + INTRA:          -6.324
REMARK INTER:                  -6.202
REMARK INTRA:                  -0.122
REMARK UNBOUND:                -0.114
REMARK  Name = 136999721
REMARK  3 active torsions:
REMARK  status: ('A' for Active; 'I' for Inactive)
REMARK    1  A    between atoms: C_5  and  C_6
REMARK    2  A    between atoms: C_5  and  C_7
REMARK    3  A    between atoms: C_6  and  C_11
REMARK                            x       y       z     vdW  Elec       q    Type
REMARK                         _______ _______ _______ _____ _____    ______ ____
ROOT
ATOM      1  O   UNL     1     -16.997  44.489 -11.323  0.00  0.00    +0.000 OA
ATOM      2  N   UNL     1     -17.897  42.425 -10.804  0.00  0.00    +0.000 N 
ATOM      3  N   UNL     1     -19.355  41.288 -12.278  0.00  0.00    +0.000 NA
ATOM      4  N   UNL     1     -19.928  42.245 -14.327  0.00  0.00    +0.000 NA
ATOM      5  C   UNL     1     -18.702  41.362 -11.161  0.00  0.00    +0.000 A 
ATOM      6  C   UNL     1     -18.438  43.477 -12.894  0.00  0.00    +0.000 A 
ATOM      7  C   UNL     1     -19.229  42.365 -13.174  0.00  0.00    +0.000 A 
ATOM      8  C   UNL     1     -17.705  43.533 -11.615  0.00  0.00    +0.000 A 
ATOM      9  C   UNL     1     -18.357  44.508 -13.826  0.00  0.00    +0.000 A 
ATOM     10  C   UNL     1     -19.070  44.401 -15.013  0.00  0.00    +0.000 A 
ATOM     11  C   UNL     1     -19.831  43.262 -15.214  0.00  0.00    +0.000 A 
ATOM     12  H   UNL     1     -17.417  42.407  -9.909  0.00  0.00    +0.000 HD
ENDROOT
BRANCH   5  13
ATOM     13  C   UNL     1     -18.779  40.262 -10.145  0.00  0.00    +0.000 C 
BRANCH  13  14
ATOM     14  C   UNL     1     -19.973  40.463  -9.222  0.00  0.00    +0.000 C 
ATOM     15  C   UNL     1     -19.576  41.007  -7.857  0.00  0.00    +0.000 C 
ENDBRANCH  13  14
ENDBRANCH   5  13
TORSDOF 2
ENDMDL
