MODEL 1
REMARK VINA RESULT:    -5.974      0.000      0.000
REMARK INTER + INTRA:          -6.795
REMARK INTER:                  -6.673
REMARK INTRA:                  -0.123
REMARK UNBOUND:                -0.123
REMARK  Name = 137076368
REMARK  3 active torsions:
REMARK  status: ('A' for Active; 'I' for Inactive)
REMARK    1  A    between atoms: S_1  and  S_2
REMARK    2  A    between atoms: S_1  and  C_11
REMARK    3  A    between atoms: S_2  and  C_14
REMARK                            x       y       z     vdW  Elec       q    Type
REMARK                         _______ _______ _______ _____ _____    ______ ____
ROOT
ATOM      1  O   UNL     1     -19.232  38.940 -11.299  0.00  0.00    +0.000 OA
ATOM      2  N   UNL     1     -17.858  40.737 -11.766  0.00  0.00    +0.000 N 
ATOM      3  N   UNL     1     -17.569  42.527 -10.242  0.00  0.00    +0.000 NA
ATOM      4  N   UNL     1     -18.690  42.510  -8.196  0.00  0.00    +0.000 NA
ATOM      5  C   UNL     1     -19.045  40.649  -9.681  0.00  0.00    +0.000 A 
ATOM      6  C   UNL     1     -18.454  41.872  -9.366  0.00  0.00    +0.000 A 
ATOM      7  C   UNL     1     -18.737  40.014 -10.979  0.00  0.00    +0.000 A 
ATOM      8  C   UNL     1     -19.912  40.055  -8.767  0.00  0.00    +0.000 A 
ATOM      9  C   UNL     1     -17.321  41.943 -11.370  0.00  0.00    +0.000 A 
ATOM     10  C   UNL     1     -20.165  40.699  -7.562  0.00  0.00    +0.000 A 
ATOM     11  C   UNL     1     -19.536  41.910  -7.327  0.00  0.00    +0.000 A 
ATOM     12  H   UNL     1     -17.598  40.364 -12.674  0.00  0.00    +0.000 HD
ENDROOT
BRANCH   9  13
ATOM     13  S   UNL     1     -16.243  42.650 -12.541  0.00  0.00    +0.000 S 
BRANCH  13  14
ATOM     14  S   UNL     1     -17.332  44.283 -13.150  0.00  0.00    +0.000 S 
ATOM     15  C   UNL     1     -18.762  43.499 -13.932  0.00  0.00    +0.000 C 
ENDBRANCH  13  14
ENDBRANCH   9  13
TORSDOF 2
ENDMDL
MODEL 2
REMARK VINA RESULT:    -5.954      2.802      3.517
REMARK INTER + INTRA:          -6.772
REMARK INTER:                  -6.669
REMARK INTRA:                  -0.103
REMARK UNBOUND:                -0.123
REMARK  Name = 137076368
REMARK  3 active torsions:
REMARK  status: ('A' for Active; 'I' for Inactive)
REMARK    1  A    between atoms: S_1  and  S_2
REMARK    2  A    between atoms: S_1  and  C_11
REMARK    3  A    between atoms: S_2  and  C_14
REMARK                            x       y       z     vdW  Elec       q    Type
REMARK                         _______ _______ _______ _____ _____    ______ ____
ROOT
ATOM      1  O   UNL     1     -18.118  42.740  -8.200  0.00  0.00    +0.000 OA
ATOM      2  N   UNL     1     -18.616  41.059  -9.706  0.00  0.00    +0.000 N 
ATOM      3  N   UNL     1     -20.670  39.882  -9.640  0.00  0.00    +0.000 NA
ATOM      4  N   UNL     1     -22.264  40.406  -8.019  0.00  0.00    +0.000 NA
ATOM      5  C   UNL     1     -20.207  41.656  -8.009  0.00  0.00    +0.000 A 
ATOM      6  C   UNL     1     -21.041  40.670  -8.535  0.00  0.00    +0.000 A 
ATOM      7  C   UNL     1     -18.884  41.885  -8.627  0.00  0.00    +0.000 A 
ATOM      8  C   UNL     1     -20.637  42.400  -6.913  0.00  0.00    +0.000 A 
ATOM      9  C   UNL     1     -19.506  40.109 -10.157  0.00  0.00    +0.000 A 
ATOM     10  C   UNL     1     -21.890  42.140  -6.372  0.00  0.00    +0.000 A 
ATOM     11  C   UNL     1     -22.656  41.145  -6.956  0.00  0.00    +0.000 A 
ATOM     12  H   UNL     1     -17.725  41.158 -10.184  0.00  0.00    +0.000 HD
ENDROOT
BRANCH   9  13
ATOM     13  S   UNL     1     -18.929  39.203 -11.528  0.00  0.00    +0.000 S 
BRANCH  13  14
ATOM     14  S   UNL     1     -17.017  39.935 -11.713  0.00  0.00    +0.000 S 
ATOM     15  C   UNL     1     -17.232  41.200 -12.988  0.00  0.00    +0.000 C 
ENDBRANCH  13  14
ENDBRANCH   9  13
TORSDOF 2
ENDMDL
MODEL 3
REMARK VINA RESULT:    -5.784      1.176      1.297
REMARK INTER + INTRA:          -6.583
REMARK INTER:                  -6.494
REMARK INTRA:                  -0.089
REMARK UNBOUND:                -0.123
REMARK  Name = 137076368
REMARK  3 active torsions:
REMARK  status: ('A' for Active; 'I' for Inactive)
REMARK    1  A    between atoms: S_1  and  S_2
REMARK    2  A    between atoms: S_1  and  C_11
REMARK    3  A    between atoms: S_2  and  C_14
REMARK                            x       y       z     vdW  Elec       q    Type
REMARK                         _______ _______ _______ _____ _____    ______ ____
ROOT
ATOM      1  O   UNL     1     -19.214  38.955 -11.332  0.00  0.00    +0.000 OA
ATOM      2  N   UNL     1     -17.869  40.768 -11.821  0.00  0.00    +0.000 N 
ATOM      3  N   UNL     1     -17.568  42.557 -10.297  0.00  0.00    +0.000 NA
ATOM      4  N   UNL     1     -18.647  42.522  -8.229  0.00  0.00    +0.000 NA
ATOM      5  C   UNL     1     -19.012  40.661  -9.712  0.00  0.00    +0.000 A 
ATOM      6  C   UNL     1     -18.428  41.890  -9.405  0.00  0.00    +0.000 A 
ATOM      7  C   UNL     1     -18.724  40.033 -11.018  0.00  0.00    +0.000 A 
ATOM      8  C   UNL     1     -19.854  40.056  -8.783  0.00  0.00    +0.000 A 
ATOM      9  C   UNL     1     -17.337  41.979 -11.431  0.00  0.00    +0.000 A 
ATOM     10  C   UNL     1     -20.090  40.693  -7.571  0.00  0.00    +0.000 A 
ATOM     11  C   UNL     1     -19.469  41.910  -7.345  0.00  0.00    +0.000 A 
ATOM     12  H   UNL     1     -17.624  40.400 -12.735  0.00  0.00    +0.000 HD
ENDROOT
BRANCH   9  13
ATOM     13  S   UNL     1     -16.290  42.700 -12.622  0.00  0.00    +0.000 S 
BRANCH  13  14
ATOM     14  S   UNL     1     -16.562  44.700 -12.231  0.00  0.00    +0.000 S 
ATOM     15  C   UNL     1     -14.855  45.278 -12.077  0.00  0.00    +0.000 C 
ENDBRANCH  13  14
ENDBRANCH   9  13
TORSDOF 2
ENDMDL
MODEL 4
REMARK VINA RESULT:    -5.527      3.617      4.481
REMARK INTER + INTRA:          -6.295
REMARK INTER:                  -6.189
REMARK INTRA:                  -0.107
REMARK UNBOUND:                -0.123
REMARK  Name = 137076368
REMARK  3 active torsions:
REMARK  status: ('A' for Active; 'I' for Inactive)
REMARK    1  A    between atoms: S_1  and  S_2
REMARK    2  A    between atoms: S_1  and  C_11
REMARK    3  A    between atoms: S_2  and  C_14
REMARK                            x       y       z     vdW  Elec       q    Type
REMARK                         _______ _______ _______ _____ _____    ______ ____
ROOT
ATOM      1  O   UNL     1     -15.895  43.356 -12.486  0.00  0.00    +0.000 OA
ATOM      2  N   UNL     1     -17.641  43.724 -13.954  0.00  0.00    +0.000 N 
ATOM      3  N   UNL     1     -19.454  42.212 -14.152  0.00  0.00    +0.000 NA
ATOM      4  N   UNL     1     -19.514  40.282 -12.844  0.00  0.00    +0.000 NA
ATOM      5  C   UNL     1     -17.632  41.759 -12.573  0.00  0.00    +0.000 A 
ATOM      6  C   UNL     1     -18.844  41.412 -13.170  0.00  0.00    +0.000 A 
ATOM      7  C   UNL     1     -16.960  43.010 -12.983  0.00  0.00    +0.000 A 
ATOM      8  C   UNL     1     -17.084  40.920 -11.606  0.00  0.00    +0.000 A 
ATOM      9  C   UNL     1     -18.839  43.300 -14.488  0.00  0.00    +0.000 A 
ATOM     10  C   UNL     1     -17.759  39.757 -11.262  0.00  0.00    +0.000 A 
ATOM     11  C   UNL     1     -18.958  39.487 -11.901  0.00  0.00    +0.000 A 
ATOM     12  H   UNL     1     -17.241  44.596 -14.287  0.00  0.00    +0.000 HD
ENDROOT
BRANCH   9  13
ATOM     13  S   UNL     1     -19.490  44.378 -15.691  0.00  0.00    +0.000 S 
BRANCH  13  14
ATOM     14  S   UNL     1     -20.628  43.083 -16.811  0.00  0.00    +0.000 S 
ATOM     15  C   UNL     1     -22.298  43.711 -16.511  0.00  0.00    +0.000 C 
ENDBRANCH  13  14
ENDBRANCH   9  13
TORSDOF 2
ENDMDL
MODEL 5
REMARK VINA RESULT:    -5.435      2.942      5.814
REMARK INTER + INTRA:          -6.193
REMARK INTER:                  -6.105
REMARK INTRA:                  -0.088
REMARK UNBOUND:                -0.123
REMARK  Name = 137076368
REMARK  3 active torsions:
REMARK  status: ('A' for Active; 'I' for Inactive)
REMARK    1  A    between atoms: S_1  and  S_2
REMARK    2  A    between atoms: S_1  and  C_11
REMARK    3  A    between atoms: S_2  and  C_14
REMARK                            x       y       z     vdW  Elec       q    Type
REMARK                         _______ _______ _______ _____ _____    ______ ____
ROOT
ATOM      1  O   UNL     1     -17.201  44.432 -11.813  0.00  0.00    +0.000 OA
ATOM      2  N   UNL     1     -18.077  42.299 -11.659  0.00  0.00    +0.000 N 
ATOM      3  N   UNL     1     -19.454  41.382 -13.354  0.00  0.00    +0.000 NA
ATOM      4  N   UNL     1     -19.963  42.640 -15.252  0.00  0.00    +0.000 NA
ATOM      5  C   UNL     1     -18.556  43.654 -13.583  0.00  0.00    +0.000 A 
ATOM      6  C   UNL     1     -19.314  42.588 -14.066  0.00  0.00    +0.000 A 
ATOM      7  C   UNL     1     -17.876  43.522 -12.277  0.00  0.00    +0.000 A 
ATOM      8  C   UNL     1     -18.460  44.820 -14.339  0.00  0.00    +0.000 A 
ATOM      9  C   UNL     1     -18.845  41.300 -12.216  0.00  0.00    +0.000 A 
ATOM     10  C   UNL     1     -19.122  44.889 -15.558  0.00  0.00    +0.000 A 
ATOM     11  C   UNL     1     -19.851  43.784 -15.966  0.00  0.00    +0.000 A 
ATOM     12  H   UNL     1     -17.641  42.134 -10.757  0.00  0.00    +0.000 HD
ENDROOT
BRANCH   9  13
ATOM     13  S   UNL     1     -18.939  39.861 -11.238  0.00  0.00    +0.000 S 
BRANCH  13  14
ATOM     14  S   UNL     1     -18.904  40.663  -9.346  0.00  0.00    +0.000 S 
ATOM     15  C   UNL     1     -20.556  40.243  -8.740  0.00  0.00    +0.000 C 
ENDBRANCH  13  14
ENDBRANCH   9  13
TORSDOF 2
ENDMDL
