MODEL 1
REMARK VINA RESULT:    -6.848      0.000      0.000
REMARK INTER + INTRA:          -7.337
REMARK INTER:                  -7.248
REMARK INTRA:                  -0.089
REMARK UNBOUND:                -0.089
REMARK  Name = 137161106
REMARK  1 active torsions:
REMARK  status: ('A' for Active; 'I' for Inactive)
REMARK    1  A    between atoms: C_5  and  C_8
REMARK                            x       y       z     vdW  Elec       q    Type
REMARK                         _______ _______ _______ _____ _____    ______ ____
ROOT
ATOM      1  O   UNL     1     -19.526  39.468 -12.778  0.00  0.00    +0.000 OA
ATOM      2  N   UNL     1     -19.778  39.974 -10.537  0.00  0.00    +0.000 N 
ATOM      3  N   UNL     1     -18.565  41.728  -9.502  0.00  0.00    +0.000 NA
ATOM      4  N   UNL     1     -17.063  43.003 -10.751  0.00  0.00    +0.000 NA
ATOM      5  C   UNL     1     -19.425  40.761  -9.459  0.00  0.00    +0.000 A 
ATOM      6  C   UNL     1     -19.235  40.146 -11.799  0.00  0.00    +0.000 A 
ATOM      7  C   UNL     1     -17.955  41.985 -10.744  0.00  0.00    +0.000 A 
ATOM      8  C   UNL     1     -18.249  41.242 -11.887  0.00  0.00    +0.000 A 
ATOM      9  C   UNL     1     -17.607  41.550 -13.084  0.00  0.00    +0.000 A 
ATOM     10  C   UNL     1     -16.688  42.591 -13.108  0.00  0.00    +0.000 A 
ATOM     11  C   UNL     1     -16.454  43.280 -11.928  0.00  0.00    +0.000 A 
ATOM     12  H   UNL     1     -20.462  39.232 -10.410  0.00  0.00    +0.000 HD
ENDROOT
BRANCH   5  13
ATOM     13  C   UNL     1     -20.096  40.451  -8.174  0.00  0.00    +0.000 C 
ATOM     14  C   UNL     1     -21.391  41.130  -7.853  0.00  0.00    +0.000 C 
ATOM     15  C   UNL     1     -20.142  41.506  -7.112  0.00  0.00    +0.000 C 
ENDBRANCH   5  13
TORSDOF 1
ENDMDL
MODEL 2
REMARK VINA RESULT:    -6.433      1.249      4.518
REMARK INTER + INTRA:          -6.898
REMARK INTER:                  -6.805
REMARK INTRA:                  -0.093
REMARK UNBOUND:                -0.089
REMARK  Name = 137161106
REMARK  1 active torsions:
REMARK  status: ('A' for Active; 'I' for Inactive)
REMARK    1  A    between atoms: C_5  and  C_8
REMARK                            x       y       z     vdW  Elec       q    Type
REMARK                         _______ _______ _______ _____ _____    ______ ____
ROOT
ATOM      1  O   UNL     1     -19.253  38.832 -11.420  0.00  0.00    +0.000 OA
ATOM      2  N   UNL     1     -17.817  40.577 -11.903  0.00  0.00    +0.000 N 
ATOM      3  N   UNL     1     -17.468  42.370 -10.392  0.00  0.00    +0.000 NA
ATOM      4  N   UNL     1     -18.590  42.408  -8.347  0.00  0.00    +0.000 NA
ATOM      5  C   UNL     1     -17.239  41.769 -11.515  0.00  0.00    +0.000 A 
ATOM      6  C   UNL     1     -18.722  39.891 -11.109  0.00  0.00    +0.000 A 
ATOM      7  C   UNL     1     -18.375  41.752  -9.510  0.00  0.00    +0.000 A 
ATOM      8  C   UNL     1     -19.009  40.548  -9.817  0.00  0.00    +0.000 A 
ATOM      9  C   UNL     1     -19.896  39.992  -8.899  0.00  0.00    +0.000 A 
ATOM     10  C   UNL     1     -20.128  40.653  -7.700  0.00  0.00    +0.000 A 
ATOM     11  C   UNL     1     -19.458  41.845  -7.474  0.00  0.00    +0.000 A 
ATOM     12  H   UNL     1     -17.580  40.179 -12.807  0.00  0.00    +0.000 HD
ENDROOT
BRANCH   5  13
ATOM     13  C   UNL     1     -16.290  42.380 -12.477  0.00  0.00    +0.000 C 
ATOM     14  C   UNL     1     -15.332  43.420 -11.986  0.00  0.00    +0.000 C 
ATOM     15  C   UNL     1     -16.481  43.813 -12.867  0.00  0.00    +0.000 C 
ENDBRANCH   5  13
TORSDOF 1
ENDMDL
MODEL 3
REMARK VINA RESULT:    -6.355      2.475      5.344
REMARK INTER + INTRA:          -6.816
REMARK INTER:                  -6.719
REMARK INTRA:                  -0.097
REMARK UNBOUND:                -0.089
REMARK  Name = 137161106
REMARK  1 active torsions:
REMARK  status: ('A' for Active; 'I' for Inactive)
REMARK    1  A    between atoms: C_5  and  C_8
REMARK                            x       y       z     vdW  Elec       q    Type
REMARK                         _______ _______ _______ _____ _____    ______ ____
ROOT
ATOM      1  O   UNL     1     -18.150  42.881  -8.256  0.00  0.00    +0.000 OA
ATOM      2  N   UNL     1     -18.541  41.117  -9.698  0.00  0.00    +0.000 N 
ATOM      3  N   UNL     1     -20.544  39.852  -9.620  0.00  0.00    +0.000 NA
ATOM      4  N   UNL     1     -22.192  40.372  -8.054  0.00  0.00    +0.000 NA
ATOM      5  C   UNL     1     -19.381  40.109 -10.126  0.00  0.00    +0.000 A 
ATOM      6  C   UNL     1     -18.869  41.974  -8.661  0.00  0.00    +0.000 A 
ATOM      7  C   UNL     1     -20.972  40.669  -8.557  0.00  0.00    +0.000 A 
ATOM      8  C   UNL     1     -20.192  41.712  -8.057  0.00  0.00    +0.000 A 
ATOM      9  C   UNL     1     -20.676  42.481  -7.002  0.00  0.00    +0.000 A 
ATOM     10  C   UNL     1     -21.926  42.189  -6.474  0.00  0.00    +0.000 A 
ATOM     11  C   UNL     1     -22.638  41.136  -7.028  0.00  0.00    +0.000 A 
ATOM     12  H   UNL     1     -17.641  41.244 -10.153  0.00  0.00    +0.000 HD
ENDROOT
BRANCH   5  13
ATOM     13  C   UNL     1     -18.885  39.276 -11.249  0.00  0.00    +0.000 C 
ATOM     14  C   UNL     1     -17.544  39.583 -11.839  0.00  0.00    +0.000 C 
ATOM     15  C   UNL     1     -18.791  39.887 -12.613  0.00  0.00    +0.000 C 
ENDBRANCH   5  13
TORSDOF 1
ENDMDL
MODEL 4
REMARK VINA RESULT:    -6.064      3.184      5.531
REMARK INTER + INTRA:          -6.508
REMARK INTER:                  -6.416
REMARK INTRA:                  -0.091
REMARK UNBOUND:                -0.089
REMARK  Name = 137161106
REMARK  1 active torsions:
REMARK  status: ('A' for Active; 'I' for Inactive)
REMARK    1  A    between atoms: C_5  and  C_8
REMARK                            x       y       z     vdW  Elec       q    Type
REMARK                         _______ _______ _______ _____ _____    ______ ____
ROOT
ATOM      1  O   UNL     1     -16.135  43.502 -12.787  0.00  0.00    +0.000 OA
ATOM      2  N   UNL     1     -17.976  43.617 -14.181  0.00  0.00    +0.000 N 
ATOM      3  N   UNL     1     -19.724  42.019 -14.085  0.00  0.00    +0.000 NA
ATOM      4  N   UNL     1     -19.618  40.264 -12.552  0.00  0.00    +0.000 NA
ATOM      5  C   UNL     1     -19.183  43.082 -14.586  0.00  0.00    +0.000 A 
ATOM      6  C   UNL     1     -17.209  43.055 -13.174  0.00  0.00    +0.000 A 
ATOM      7  C   UNL     1     -19.022  41.371 -13.052  0.00  0.00    +0.000 A 
ATOM      8  C   UNL     1     -17.796  41.838 -12.577  0.00  0.00    +0.000 A 
ATOM      9  C   UNL     1     -17.154  41.147 -11.552  0.00  0.00    +0.000 A 
ATOM     10  C   UNL     1     -17.752  40.008 -11.029  0.00  0.00    +0.000 A 
ATOM     11  C   UNL     1     -18.971  39.612 -11.557  0.00  0.00    +0.000 A 
ATOM     12  H   UNL     1     -17.625  44.456 -14.635  0.00  0.00    +0.000 HD
ENDROOT
BRANCH   5  13
ATOM     13  C   UNL     1     -19.884  43.801 -15.677  0.00  0.00    +0.000 C 
ATOM     14  C   UNL     1     -21.198  43.273 -16.163  0.00  0.00    +0.000 C 
ATOM     15  C   UNL     1     -19.976  43.156 -17.024  0.00  0.00    +0.000 C 
ENDBRANCH   5  13
TORSDOF 1
ENDMDL
MODEL 5
REMARK VINA RESULT:    -4.940      4.771      6.266
REMARK INTER + INTRA:          -5.319
REMARK INTER:                  -5.230
REMARK INTRA:                  -0.088
REMARK UNBOUND:                -0.089
REMARK  Name = 137161106
REMARK  1 active torsions:
REMARK  status: ('A' for Active; 'I' for Inactive)
REMARK    1  A    between atoms: C_5  and  C_8
REMARK                            x       y       z     vdW  Elec       q    Type
REMARK                         _______ _______ _______ _____ _____    ______ ____
ROOT
ATOM      1  O   UNL     1     -18.513  46.277 -15.241  0.00  0.00    +0.000 OA
ATOM      2  N   UNL     1     -18.440  44.268 -14.100  0.00  0.00    +0.000 N 
ATOM      3  N   UNL     1     -19.480  42.310 -14.939  0.00  0.00    +0.000 NA
ATOM      4  N   UNL     1     -20.621  42.374 -16.972  0.00  0.00    +0.000 NA
ATOM      5  C   UNL     1     -18.789  42.933 -14.040  0.00  0.00    +0.000 A 
ATOM      6  C   UNL     1     -18.806  45.090 -15.153  0.00  0.00    +0.000 A 
ATOM      7  C   UNL     1     -19.901  43.059 -16.054  0.00  0.00    +0.000 A 
ATOM      8  C   UNL     1     -19.597  44.412 -16.200  0.00  0.00    +0.000 A 
ATOM      9  C   UNL     1     -20.046  45.093 -17.329  0.00  0.00    +0.000 A 
ATOM     10  C   UNL     1     -20.787  44.405 -18.281  0.00  0.00    +0.000 A 
ATOM     11  C   UNL     1     -21.045  43.062 -18.059  0.00  0.00    +0.000 A 
ATOM     12  H   UNL     1     -17.897  44.676 -13.344  0.00  0.00    +0.000 HD
ENDROOT
BRANCH   5  13
ATOM     13  C   UNL     1     -18.321  42.188 -12.846  0.00  0.00    +0.000 C 
ATOM     14  C   UNL     1     -16.870  41.840 -12.734  0.00  0.00    +0.000 C 
ATOM     15  C   UNL     1     -17.881  40.767 -13.010  0.00  0.00    +0.000 C 
ENDBRANCH   5  13
TORSDOF 1
ENDMDL
