MODEL 1
REMARK VINA RESULT:    -6.059      0.000      0.000
REMARK INTER + INTRA:          -6.445
REMARK INTER:                  -6.413
REMARK INTRA:                  -0.032
REMARK UNBOUND:                -0.032
REMARK  Name = 137211979
REMARK  1 active torsions:
REMARK  status: ('A' for Active; 'I' for Inactive)
REMARK    1  A    between atoms: C_10  and  C_13
REMARK                            x       y       z     vdW  Elec       q    Type
REMARK                         _______ _______ _______ _____ _____    ______ ____
ROOT
ATOM      1  O   UNL     1     -19.221  38.945 -11.299  0.00  0.00    +0.000 OA
ATOM      2  N   UNL     1     -17.833  40.735 -11.754  0.00  0.00    +0.000 N 
ATOM      3  N   UNL     1     -17.543  42.524 -10.215  0.00  0.00    +0.000 NA
ATOM      4  N   UNL     1     -18.679  42.503  -8.176  0.00  0.00    +0.000 NA
ATOM      5  C   UNL     1     -19.034  40.649  -9.673  0.00  0.00    +0.000 A 
ATOM      6  C   UNL     1     -18.438  41.868  -9.347  0.00  0.00    +0.000 A 
ATOM      7  C   UNL     1     -18.721  40.015 -10.973  0.00  0.00    +0.000 A 
ATOM      8  C   UNL     1     -19.910  40.055  -8.768  0.00  0.00    +0.000 A 
ATOM      9  C   UNL     1     -17.302  41.931 -11.337  0.00  0.00    +0.000 A 
ATOM     10  C   UNL     1     -20.168  40.695  -7.562  0.00  0.00    +0.000 A 
ATOM     11  C   UNL     1     -19.535  41.903  -7.316  0.00  0.00    +0.000 A 
ATOM     12  H   UNL     1     -17.572  40.359 -12.661  0.00  0.00    +0.000 HD
ENDROOT
BRANCH   9  14
ATOM     13  N   UNL     1     -15.643  43.230 -12.849  0.00  0.00    +0.000 NA
ATOM     14  C   UNL     1     -16.385  42.648 -12.172  0.00  0.00    +0.000 C 
ENDBRANCH   9  14
TORSDOF 1
ENDMDL
MODEL 2
REMARK VINA RESULT:    -5.493      3.181      4.259
REMARK INTER + INTRA:          -5.846
REMARK INTER:                  -5.814
REMARK INTRA:                  -0.032
REMARK UNBOUND:                -0.032
REMARK  Name = 137211979
REMARK  1 active torsions:
REMARK  status: ('A' for Active; 'I' for Inactive)
REMARK    1  A    between atoms: C_10  and  C_13
REMARK                            x       y       z     vdW  Elec       q    Type
REMARK                         _______ _______ _______ _____ _____    ______ ____
ROOT
ATOM      1  O   UNL     1     -17.413  44.103 -11.286  0.00  0.00    +0.000 OA
ATOM      2  N   UNL     1     -18.482  43.923 -13.327  0.00  0.00    +0.000 N 
ATOM      3  N   UNL     1     -19.495  41.894 -14.040  0.00  0.00    +0.000 NA
ATOM      4  N   UNL     1     -19.426  40.010 -12.663  0.00  0.00    +0.000 NA
ATOM      5  C   UNL     1     -18.374  42.022 -11.859  0.00  0.00    +0.000 A 
ATOM      6  C   UNL     1     -19.084  41.309 -12.825  0.00  0.00    +0.000 A 
ATOM      7  C   UNL     1     -18.035  43.441 -12.108  0.00  0.00    +0.000 A 
ATOM      8  C   UNL     1     -17.999  41.382 -10.680  0.00  0.00    +0.000 A 
ATOM      9  C   UNL     1     -19.176  43.134 -14.211  0.00  0.00    +0.000 A 
ATOM     10  C   UNL     1     -18.342  40.049 -10.498  0.00  0.00    +0.000 A 
ATOM     11  C   UNL     1     -19.048  39.415 -11.508  0.00  0.00    +0.000 A 
ATOM     12  H   UNL     1     -18.285  44.891 -13.565  0.00  0.00    +0.000 HD
ENDROOT
BRANCH   9  14
ATOM     13  N   UNL     1     -19.983  44.099 -16.478  0.00  0.00    +0.000 NA
ATOM     14  C   UNL     1     -19.622  43.667 -15.464  0.00  0.00    +0.000 C 
ENDBRANCH   9  14
TORSDOF 1
ENDMDL
MODEL 3
REMARK VINA RESULT:    -5.267      3.647      5.901
REMARK INTER + INTRA:          -5.607
REMARK INTER:                  -5.575
REMARK INTRA:                  -0.032
REMARK UNBOUND:                -0.032
REMARK  Name = 137211979
REMARK  1 active torsions:
REMARK  status: ('A' for Active; 'I' for Inactive)
REMARK    1  A    between atoms: C_10  and  C_13
REMARK                            x       y       z     vdW  Elec       q    Type
REMARK                         _______ _______ _______ _____ _____    ______ ____
ROOT
ATOM      1  O   UNL     1     -17.252  44.657 -12.010  0.00  0.00    +0.000 OA
ATOM      2  N   UNL     1     -18.122  42.531 -11.765  0.00  0.00    +0.000 N 
ATOM      3  N   UNL     1     -19.508  41.541 -13.424  0.00  0.00    +0.000 NA
ATOM      4  N   UNL     1     -20.026  42.725 -15.368  0.00  0.00    +0.000 NA
ATOM      5  C   UNL     1     -18.614  43.806 -13.743  0.00  0.00    +0.000 A 
ATOM      6  C   UNL     1     -19.372  42.720 -14.183  0.00  0.00    +0.000 A 
ATOM      7  C   UNL     1     -17.927  43.727 -12.435  0.00  0.00    +0.000 A 
ATOM      8  C   UNL     1     -18.522  44.941 -14.544  0.00  0.00    +0.000 A 
ATOM      9  C   UNL     1     -18.890  41.521 -12.290  0.00  0.00    +0.000 A 
ATOM     10  C   UNL     1     -19.187  44.961 -15.763  0.00  0.00    +0.000 A 
ATOM     11  C   UNL     1     -19.918  43.841 -16.125  0.00  0.00    +0.000 A 
ATOM     12  H   UNL     1     -17.679  42.406 -10.859  0.00  0.00    +0.000 HD
ENDROOT
BRANCH   9  14
ATOM     13  N   UNL     1     -19.214  39.304 -10.983  0.00  0.00    +0.000 NA
ATOM     14  C   UNL     1     -19.069  40.296 -11.568  0.00  0.00    +0.000 C 
ENDBRANCH   9  14
TORSDOF 1
ENDMDL
MODEL 4
REMARK VINA RESULT:    -5.192      4.113      5.332
REMARK INTER + INTRA:          -5.527
REMARK INTER:                  -5.495
REMARK INTRA:                  -0.032
REMARK UNBOUND:                -0.032
REMARK  Name = 137211979
REMARK  1 active torsions:
REMARK  status: ('A' for Active; 'I' for Inactive)
REMARK    1  A    between atoms: C_10  and  C_13
REMARK                            x       y       z     vdW  Elec       q    Type
REMARK                         _______ _______ _______ _____ _____    ______ ____
ROOT
ATOM      1  O   UNL     1     -18.080  46.110 -13.867  0.00  0.00    +0.000 OA
ATOM      2  N   UNL     1     -19.136  44.494 -15.136  0.00  0.00    +0.000 N 
ATOM      3  N   UNL     1     -19.441  42.274 -14.343  0.00  0.00    +0.000 NA
ATOM      4  N   UNL     1     -18.662  41.676 -12.224  0.00  0.00    +0.000 NA
ATOM      5  C   UNL     1     -18.310  43.947 -12.945  0.00  0.00    +0.000 A 
ATOM      6  C   UNL     1     -18.789  42.653 -13.152  0.00  0.00    +0.000 A 
ATOM      7  C   UNL     1     -18.486  44.963 -14.007  0.00  0.00    +0.000 A 
ATOM      8  C   UNL     1     -17.675  44.254 -11.745  0.00  0.00    +0.000 A 
ATOM      9  C   UNL     1     -19.570  43.195 -15.238  0.00  0.00    +0.000 A 
ATOM     10  C   UNL     1     -17.537  43.262 -10.783  0.00  0.00    +0.000 A 
ATOM     11  C   UNL     1     -18.042  42.003 -11.068  0.00  0.00    +0.000 A 
ATOM     12  H   UNL     1     -19.292  45.138 -15.906  0.00  0.00    +0.000 HD
ENDROOT
BRANCH   9  14
ATOM     13  N   UNL     1     -20.782  42.382 -17.382  0.00  0.00    +0.000 NA
ATOM     14  C   UNL     1     -20.240  42.745 -16.423  0.00  0.00    +0.000 C 
ENDBRANCH   9  14
TORSDOF 1
ENDMDL
MODEL 5
REMARK VINA RESULT:    -5.082      3.195      4.958
REMARK INTER + INTRA:          -5.411
REMARK INTER:                  -5.379
REMARK INTRA:                  -0.032
REMARK UNBOUND:                -0.032
REMARK  Name = 137211979
REMARK  1 active torsions:
REMARK  status: ('A' for Active; 'I' for Inactive)
REMARK    1  A    between atoms: C_10  and  C_13
REMARK                            x       y       z     vdW  Elec       q    Type
REMARK                         _______ _______ _______ _____ _____    ______ ____
ROOT
ATOM      1  O   UNL     1     -20.014  43.010 -15.270  0.00  0.00    +0.000 OA
ATOM      2  N   UNL     1     -19.570  41.490 -13.587  0.00  0.00    +0.000 N 
ATOM      3  N   UNL     1     -18.287  42.076 -11.673  0.00  0.00    +0.000 NA
ATOM      4  N   UNL     1     -17.437  44.239 -11.456  0.00  0.00    +0.000 NA
ATOM      5  C   UNL     1     -18.725  43.736 -13.429  0.00  0.00    +0.000 A 
ATOM      6  C   UNL     1     -18.155  43.372 -12.208  0.00  0.00    +0.000 A 
ATOM      7  C   UNL     1     -19.497  42.733 -14.195  0.00  0.00    +0.000 A 
ATOM      8  C   UNL     1     -18.555  45.036 -13.899  0.00  0.00    +0.000 A 
ATOM      9  C   UNL     1     -18.969  41.236 -12.378  0.00  0.00    +0.000 A 
ATOM     10  C   UNL     1     -17.821  45.937 -13.139  0.00  0.00    +0.000 A 
ATOM     11  C   UNL     1     -17.288  45.494 -11.938  0.00  0.00    +0.000 A 
ATOM     12  H   UNL     1     -20.085  40.752 -14.057  0.00  0.00    +0.000 HD
ENDROOT
BRANCH   9  14
ATOM     13  N   UNL     1     -19.143  38.887 -11.295  0.00  0.00    +0.000 NA
ATOM     14  C   UNL     1     -19.066  39.938 -11.779  0.00  0.00    +0.000 C 
ENDBRANCH   9  14
TORSDOF 1
ENDMDL
