MODEL 1
REMARK VINA RESULT:    -6.001      0.000      0.000
REMARK INTER + INTRA:          -7.418
REMARK INTER:                  -6.878
REMARK INTRA:                  -0.540
REMARK UNBOUND:                -0.540
REMARK  Name = 137242031
REMARK  3 active torsions:
REMARK  status: ('A' for Active; 'I' for Inactive)
REMARK    1  A    between atoms: N_3  and  C_7
REMARK    2  A    between atoms: C_6  and  C_9
REMARK    3  A    between atoms: C_9  and  C_12
REMARK                            x       y       z     vdW  Elec       q    Type
REMARK                         _______ _______ _______ _____ _____    ______ ____
ROOT
ATOM      1  N   UNL     1     -18.593  42.289  -8.072  0.00  0.00    +0.000 NA
ATOM      2  C   UNL     1     -19.419  40.781  -9.772  0.00  0.00    +0.000 A 
ATOM      3  C   UNL     1     -18.485  41.675  -9.272  0.00  0.00    +0.000 A 
ATOM      4  C   UNL     1     -20.535  40.501  -8.991  0.00  0.00    +0.000 A 
ATOM      5  C   UNL     1     -20.681  41.114  -7.752  0.00  0.00    +0.000 A 
ATOM      6  C   UNL     1     -19.690  41.992  -7.342  0.00  0.00    +0.000 A 
ENDROOT
BRANCH   3   7
ATOM      7  N   UNL     1     -17.343  41.964 -10.061  0.00  0.00    +0.000 N 
ATOM      8  H   UNL     1     -16.464  41.525  -9.817  0.00  0.00    +0.000 HD
ATOM      9  H   UNL     1     -17.307  42.883 -10.482  0.00  0.00    +0.000 HD
ENDBRANCH   3   7
BRANCH   2  11
ATOM     10  O   UNL     1     -18.847  38.984 -11.220  0.00  0.00    +0.000 OA
ATOM     11  C   UNL     1     -19.273  40.132 -11.067  0.00  0.00    +0.000 C 
BRANCH  11  14
ATOM     12  N   UNL     1     -18.654  41.554 -12.867  0.00  0.00    +0.000 NA
ATOM     13  N   UNL     1     -17.807  42.162 -13.327  0.00  0.00    +0.000 NA
ATOM     14  C   UNL     1     -19.628  40.851 -12.332  0.00  0.00    +0.000 C 
ENDBRANCH  11  14
ENDBRANCH   2  11
TORSDOF 3
ENDMDL
MODEL 2
REMARK VINA RESULT:    -5.575      1.831      2.242
REMARK INTER + INTRA:          -6.929
REMARK INTER:                  -6.318
REMARK INTRA:                  -0.612
REMARK UNBOUND:                -0.540
REMARK  Name = 137242031
REMARK  3 active torsions:
REMARK  status: ('A' for Active; 'I' for Inactive)
REMARK    1  A    between atoms: N_3  and  C_7
REMARK    2  A    between atoms: C_6  and  C_9
REMARK    3  A    between atoms: C_9  and  C_12
REMARK                            x       y       z     vdW  Elec       q    Type
REMARK                         _______ _______ _______ _____ _____    ______ ____
ROOT
ATOM      1  N   UNL     1     -20.532  40.071  -9.096  0.00  0.00    +0.000 NA
ATOM      2  C   UNL     1     -18.474  41.008  -9.953  0.00  0.00    +0.000 A 
ATOM      3  C   UNL     1     -19.556  40.144 -10.029  0.00  0.00    +0.000 A 
ATOM      4  C   UNL     1     -18.391  41.851  -8.851  0.00  0.00    +0.000 A 
ATOM      5  C   UNL     1     -19.376  41.805  -7.872  0.00  0.00    +0.000 A 
ATOM      6  C   UNL     1     -20.417  40.906  -8.040  0.00  0.00    +0.000 A 
ENDROOT
BRANCH   3   7
ATOM      7  N   UNL     1     -19.650  39.283 -11.151  0.00  0.00    +0.000 N 
ATOM      8  H   UNL     1     -20.394  39.439 -11.819  0.00  0.00    +0.000 HD
ATOM      9  H   UNL     1     -19.333  38.330 -11.017  0.00  0.00    +0.000 HD
ENDBRANCH   3   7
BRANCH   2  11
ATOM     10  O   UNL     1     -16.424  40.365 -10.971  0.00  0.00    +0.000 OA
ATOM     11  C   UNL     1     -17.439  41.066 -10.977  0.00  0.00    +0.000 C 
BRANCH  11  14
ATOM     12  N   UNL     1     -18.585  41.843 -12.907  0.00  0.00    +0.000 NA
ATOM     13  N   UNL     1     -19.488  41.683 -13.584  0.00  0.00    +0.000 NA
ATOM     14  C   UNL     1     -17.545  42.023 -12.123  0.00  0.00    +0.000 C 
ENDBRANCH  11  14
ENDBRANCH   2  11
TORSDOF 3
ENDMDL
MODEL 3
REMARK VINA RESULT:    -5.348      2.241      4.481
REMARK INTER + INTRA:          -6.670
REMARK INTER:                  -6.176
REMARK INTRA:                  -0.494
REMARK UNBOUND:                -0.540
REMARK  Name = 137242031
REMARK  3 active torsions:
REMARK  status: ('A' for Active; 'I' for Inactive)
REMARK    1  A    between atoms: N_3  and  C_7
REMARK    2  A    between atoms: C_6  and  C_9
REMARK    3  A    between atoms: C_9  and  C_12
REMARK                            x       y       z     vdW  Elec       q    Type
REMARK                         _______ _______ _______ _____ _____    ______ ____
ROOT
ATOM      1  N   UNL     1     -19.602  41.942 -13.671  0.00  0.00    +0.000 NA
ATOM      2  C   UNL     1     -18.356  41.748 -11.608  0.00  0.00    +0.000 A 
ATOM      3  C   UNL     1     -19.232  41.259 -12.565  0.00  0.00    +0.000 A 
ATOM      4  C   UNL     1     -17.827  43.019 -11.801  0.00  0.00    +0.000 A 
ATOM      5  C   UNL     1     -18.184  43.752 -12.926  0.00  0.00    +0.000 A 
ATOM      6  C   UNL     1     -19.067  43.174 -13.823  0.00  0.00    +0.000 A 
ENDROOT
BRANCH   3   7
ATOM      7  N   UNL     1     -19.774  39.962 -12.378  0.00  0.00    +0.000 N 
ATOM      8  H   UNL     1     -19.839  39.596 -11.436  0.00  0.00    +0.000 HD
ATOM      9  H   UNL     1     -19.627  39.299 -13.129  0.00  0.00    +0.000 HD
ENDBRANCH   3   7
BRANCH   2  11
ATOM     10  O   UNL     1     -17.073  40.141 -10.414  0.00  0.00    +0.000 OA
ATOM     11  C   UNL     1     -17.972  40.985 -10.428  0.00  0.00    +0.000 C 
BRANCH  11  14
ATOM     12  N   UNL     1     -19.778  40.465  -8.975  0.00  0.00    +0.000 NA
ATOM     13  N   UNL     1     -20.727  39.846  -8.849  0.00  0.00    +0.000 NA
ATOM     14  C   UNL     1     -18.683  41.178  -9.125  0.00  0.00    +0.000 C 
ENDBRANCH  11  14
ENDBRANCH   2  11
TORSDOF 3
ENDMDL
MODEL 4
REMARK VINA RESULT:    -5.332      1.598      3.925
REMARK INTER + INTRA:          -6.652
REMARK INTER:                  -6.108
REMARK INTRA:                  -0.544
REMARK UNBOUND:                -0.540
REMARK  Name = 137242031
REMARK  3 active torsions:
REMARK  status: ('A' for Active; 'I' for Inactive)
REMARK    1  A    between atoms: N_3  and  C_7
REMARK    2  A    between atoms: C_6  and  C_9
REMARK    3  A    between atoms: C_9  and  C_12
REMARK                            x       y       z     vdW  Elec       q    Type
REMARK                         _______ _______ _______ _____ _____    ______ ____
ROOT
ATOM      1  N   UNL     1     -16.784  42.410 -12.474  0.00  0.00    +0.000 NA
ATOM      2  C   UNL     1     -18.654  41.037 -11.793  0.00  0.00    +0.000 A 
ATOM      3  C   UNL     1     -17.329  41.437 -11.710  0.00  0.00    +0.000 A 
ATOM      4  C   UNL     1     -19.470  41.678 -12.718  0.00  0.00    +0.000 A 
ATOM      5  C   UNL     1     -18.945  42.684 -13.521  0.00  0.00    +0.000 A 
ATOM      6  C   UNL     1     -17.608  43.010 -13.362  0.00  0.00    +0.000 A 
ENDROOT
BRANCH   3   7
ATOM      7  N   UNL     1     -16.491  40.790 -10.768  0.00  0.00    +0.000 N 
ATOM      8  H   UNL     1     -16.886  40.519  -9.876  0.00  0.00    +0.000 HD
ATOM      9  H   UNL     1     -15.510  41.041 -10.789  0.00  0.00    +0.000 HD
ENDBRANCH   3   7
BRANCH   2  11
ATOM     10  O   UNL     1     -19.247  38.795 -11.270  0.00  0.00    +0.000 OA
ATOM     11  C   UNL     1     -19.214  39.987 -10.954  0.00  0.00    +0.000 C 
BRANCH  11  14
ATOM     12  N   UNL     1     -19.116  41.135  -8.877  0.00  0.00    +0.000 NA
ATOM     13  N   UNL     1     -18.506  41.853  -8.234  0.00  0.00    +0.000 NA
ATOM     14  C   UNL     1     -19.816  40.308  -9.621  0.00  0.00    +0.000 C 
ENDBRANCH  11  14
ENDBRANCH   2  11
TORSDOF 3
ENDMDL
MODEL 5
REMARK VINA RESULT:    -5.245      2.061      4.203
REMARK INTER + INTRA:          -6.552
REMARK INTER:                  -6.225
REMARK INTRA:                  -0.326
REMARK UNBOUND:                -0.540
REMARK  Name = 137242031
REMARK  3 active torsions:
REMARK  status: ('A' for Active; 'I' for Inactive)
REMARK    1  A    between atoms: N_3  and  C_7
REMARK    2  A    between atoms: C_6  and  C_9
REMARK    3  A    between atoms: C_9  and  C_12
REMARK                            x       y       z     vdW  Elec       q    Type
REMARK                         _______ _______ _______ _____ _____    ______ ____
ROOT
ATOM      1  N   UNL     1     -17.470  41.750 -11.990  0.00  0.00    +0.000 NA
ATOM      2  C   UNL     1     -18.807  40.548 -10.373  0.00  0.00    +0.000 A 
ATOM      3  C   UNL     1     -17.982  41.597 -10.748  0.00  0.00    +0.000 A 
ATOM      4  C   UNL     1     -19.126  39.597 -11.335  0.00  0.00    +0.000 A 
ATOM      5  C   UNL     1     -18.619  39.720 -12.623  0.00  0.00    +0.000 A 
ATOM      6  C   UNL     1     -17.802  40.806 -12.897  0.00  0.00    +0.000 A 
ENDROOT
BRANCH   3   7
ATOM      7  N   UNL     1     -17.653  42.573  -9.774  0.00  0.00    +0.000 N 
ATOM      8  H   UNL     1     -17.305  42.262  -8.876  0.00  0.00    +0.000 HD
ATOM      9  H   UNL     1     -18.190  43.431  -9.796  0.00  0.00    +0.000 HD
ENDBRANCH   3   7
BRANCH   2  11
ATOM     10  O   UNL     1     -18.705  40.646  -8.000  0.00  0.00    +0.000 OA
ATOM     11  C   UNL     1     -19.347  40.412  -9.027  0.00  0.00    +0.000 C 
BRANCH  11  14
ATOM     12  N   UNL     1     -21.500  40.755  -8.084  0.00  0.00    +0.000 NA
ATOM     13  N   UNL     1     -22.143  41.457  -7.457  0.00  0.00    +0.000 NA
ATOM     14  C   UNL     1     -20.753  39.949  -8.807  0.00  0.00    +0.000 C 
ENDBRANCH  11  14
ENDBRANCH   2  11
TORSDOF 3
ENDMDL
