MODEL 1
REMARK VINA RESULT:    -6.819      0.000      0.000
REMARK INTER + INTRA:          -6.819
REMARK INTER:                  -6.819
REMARK INTRA:                   0.000
REMARK UNBOUND:                 0.000
REMARK  Name = 13789949
REMARK  0 active torsions:
REMARK  status: ('A' for Active; 'I' for Inactive)
REMARK                            x       y       z     vdW  Elec       q    Type
REMARK                         _______ _______ _______ _____ _____    ______ ____
ROOT
ATOM      1  O   UNL     1     -18.782  39.683 -13.389  0.00  0.00    +0.000 OA
ATOM      2  N   UNL     1     -18.658  41.533  -9.809  0.00  0.00    +0.000 N 
ATOM      3  N   UNL     1     -19.509  39.778 -11.225  0.00  0.00    +0.000 NA
ATOM      4  N   UNL     1     -17.068  43.157 -10.673  0.00  0.00    +0.000 NA
ATOM      5  C   UNL     1     -17.855  42.063 -10.862  0.00  0.00    +0.000 A 
ATOM      6  C   UNL     1     -17.898  41.420 -12.103  0.00  0.00    +0.000 A 
ATOM      7  C   UNL     1     -19.443  40.403 -10.081  0.00  0.00    +0.000 A 
ATOM      8  C   UNL     1     -18.686  42.098  -8.540  0.00  0.00    +0.000 A 
ATOM      9  C   UNL     1     -18.762  40.228 -12.291  0.00  0.00    +0.000 A 
ATOM     10  C   UNL     1     -20.299  39.832  -8.979  0.00  0.00    +0.000 A 
ATOM     11  C   UNL     1     -17.126  41.906 -13.161  0.00  0.00    +0.000 A 
ATOM     12  C   UNL     1     -19.439  41.609  -7.544  0.00  0.00    +0.000 A 
ATOM     13  C   UNL     1     -20.264  40.443  -7.785  0.00  0.00    +0.000 A 
ATOM     14  C   UNL     1     -16.325  43.022 -12.967  0.00  0.00    +0.000 A 
ATOM     15  C   UNL     1     -16.331  43.605 -11.716  0.00  0.00    +0.000 A 
ENDROOT
TORSDOF 0
ENDMDL
MODEL 2
REMARK VINA RESULT:    -6.789      1.077      4.239
REMARK INTER + INTRA:          -6.789
REMARK INTER:                  -6.789
REMARK INTRA:                   0.000
REMARK UNBOUND:                 0.000
REMARK  Name = 13789949
REMARK  0 active torsions:
REMARK  status: ('A' for Active; 'I' for Inactive)
REMARK                            x       y       z     vdW  Elec       q    Type
REMARK                         _______ _______ _______ _____ _____    ______ ____
ROOT
ATOM      1  O   UNL     1     -19.616  38.579 -11.462  0.00  0.00    +0.000 OA
ATOM      2  N   UNL     1     -17.851  42.153 -10.854  0.00  0.00    +0.000 N 
ATOM      3  N   UNL     1     -18.319  40.270 -12.285  0.00  0.00    +0.000 NA
ATOM      4  N   UNL     1     -18.741  42.238  -8.593  0.00  0.00    +0.000 NA
ATOM      5  C   UNL     1     -18.610  41.593  -9.783  0.00  0.00    +0.000 A 
ATOM      6  C   UNL     1     -19.222  40.354  -9.996  0.00  0.00    +0.000 A 
ATOM      7  C   UNL     1     -17.762  41.428 -12.051  0.00  0.00    +0.000 A 
ATOM      8  C   UNL     1     -17.205  43.378 -10.744  0.00  0.00    +0.000 A 
ATOM      9  C   UNL     1     -19.069  39.665 -11.301  0.00  0.00    +0.000 A 
ATOM     10  C   UNL     1     -16.962  42.006 -13.191  0.00  0.00    +0.000 A 
ATOM     11  C   UNL     1     -19.975  39.771  -8.974  0.00  0.00    +0.000 A 
ATOM     12  C   UNL     1     -16.487  43.912 -11.743  0.00  0.00    +0.000 A 
ATOM     13  C   UNL     1     -16.371  43.194 -12.996  0.00  0.00    +0.000 A 
ATOM     14  C   UNL     1     -20.107  40.428  -7.760  0.00  0.00    +0.000 A 
ATOM     15  C   UNL     1     -19.476  41.649  -7.621  0.00  0.00    +0.000 A 
ENDROOT
TORSDOF 0
ENDMDL
MODEL 3
REMARK VINA RESULT:    -6.500      1.697      3.054
REMARK INTER + INTRA:          -6.500
REMARK INTER:                  -6.500
REMARK INTRA:                   0.000
REMARK UNBOUND:                 0.000
REMARK  Name = 13789949
REMARK  0 active torsions:
REMARK  status: ('A' for Active; 'I' for Inactive)
REMARK                            x       y       z     vdW  Elec       q    Type
REMARK                         _______ _______ _______ _____ _____    ______ ____
ROOT
ATOM      1  O   UNL     1     -16.332  43.100 -10.822  0.00  0.00    +0.000 OA
ATOM      2  N   UNL     1     -19.476  40.966  -9.473  0.00  0.00    +0.000 N 
ATOM      3  N   UNL     1     -17.854  42.722  -9.161  0.00  0.00    +0.000 NA
ATOM      4  N   UNL     1     -19.479  39.635 -11.509  0.00  0.00    +0.000 NA
ATOM      5  C   UNL     1     -18.947  40.636 -10.757  0.00  0.00    +0.000 A 
ATOM      6  C   UNL     1     -17.856  41.377 -11.224  0.00  0.00    +0.000 A 
ATOM      7  C   UNL     1     -18.871  42.009  -8.758  0.00  0.00    +0.000 A 
ATOM      8  C   UNL     1     -20.556  40.290  -8.920  0.00  0.00    +0.000 A 
ATOM      9  C   UNL     1     -17.288  42.465 -10.390  0.00  0.00    +0.000 A 
ATOM     10  C   UNL     1     -19.417  42.368  -7.399  0.00  0.00    +0.000 A 
ATOM     11  C   UNL     1     -17.308  41.087 -12.476  0.00  0.00    +0.000 A 
ATOM     12  C   UNL     1     -21.059  40.591  -7.714  0.00  0.00    +0.000 A 
ATOM     13  C   UNL     1     -20.463  41.663  -6.944  0.00  0.00    +0.000 A 
ATOM     14  C   UNL     1     -17.852  40.066 -13.241  0.00  0.00    +0.000 A 
ATOM     15  C   UNL     1     -18.928  39.377 -12.717  0.00  0.00    +0.000 A 
ENDROOT
TORSDOF 0
ENDMDL
MODEL 4
REMARK VINA RESULT:    -6.069      2.398      3.148
REMARK INTER + INTRA:          -6.069
REMARK INTER:                  -6.069
REMARK INTRA:                   0.000
REMARK UNBOUND:                 0.000
REMARK  Name = 13789949
REMARK  0 active torsions:
REMARK  status: ('A' for Active; 'I' for Inactive)
REMARK                            x       y       z     vdW  Elec       q    Type
REMARK                         _______ _______ _______ _____ _____    ______ ____
ROOT
ATOM      1  O   UNL     1     -19.647  43.505 -15.393  0.00  0.00    +0.000 OA
ATOM      2  N   UNL     1     -18.332  42.195 -11.813  0.00  0.00    +0.000 N 
ATOM      3  N   UNL     1     -19.391  41.764 -13.935  0.00  0.00    +0.000 NA
ATOM      4  N   UNL     1     -17.561  44.431 -11.249  0.00  0.00    +0.000 NA
ATOM      5  C   UNL     1     -18.154  43.576 -12.125  0.00  0.00    +0.000 A 
ATOM      6  C   UNL     1     -18.610  44.029 -13.367  0.00  0.00    +0.000 A 
ATOM      7  C   UNL     1     -18.954  41.377 -12.768  0.00  0.00    +0.000 A 
ATOM      8  C   UNL     1     -17.915  41.648 -10.607  0.00  0.00    +0.000 A 
ATOM      9  C   UNL     1     -19.255  43.082 -14.310  0.00  0.00    +0.000 A 
ATOM     10  C   UNL     1     -19.151  39.916 -12.452  0.00  0.00    +0.000 A 
ATOM     11  C   UNL     1     -18.455  45.374 -13.712  0.00  0.00    +0.000 A 
ATOM     12  C   UNL     1     -18.079  40.351 -10.304  0.00  0.00    +0.000 A 
ATOM     13  C   UNL     1     -18.716  39.473 -11.263  0.00  0.00    +0.000 A 
ATOM     14  C   UNL     1     -17.851  46.244 -12.818  0.00  0.00    +0.000 A 
ATOM     15  C   UNL     1     -17.424  45.728 -11.610  0.00  0.00    +0.000 A 
ENDROOT
TORSDOF 0
ENDMDL
MODEL 5
REMARK VINA RESULT:    -5.970      2.835      3.946
REMARK INTER + INTRA:          -5.970
REMARK INTER:                  -5.970
REMARK INTRA:                   0.000
REMARK UNBOUND:                 0.000
REMARK  Name = 13789949
REMARK  0 active torsions:
REMARK  status: ('A' for Active; 'I' for Inactive)
REMARK                            x       y       z     vdW  Elec       q    Type
REMARK                         _______ _______ _______ _____ _____    ______ ____
ROOT
ATOM      1  O   UNL     1     -17.185  45.516 -11.876  0.00  0.00    +0.000 OA
ATOM      2  N   UNL     1     -18.808  41.849 -12.297  0.00  0.00    +0.000 N 
ATOM      3  N   UNL     1     -17.576  43.450 -10.981  0.00  0.00    +0.000 NA
ATOM      4  N   UNL     1     -19.606  42.429 -14.519  0.00  0.00    +0.000 NA
ATOM      5  C   UNL     1     -18.948  42.769 -13.379  0.00  0.00    +0.000 A 
ATOM      6  C   UNL     1     -18.385  44.040 -13.231  0.00  0.00    +0.000 A 
ATOM      7  C   UNL     1     -18.114  42.273 -11.154  0.00  0.00    +0.000 A 
ATOM      8  C   UNL     1     -19.330  40.563 -12.345  0.00  0.00    +0.000 A 
ATOM      9  C   UNL     1     -17.670  44.394 -11.980  0.00  0.00    +0.000 A 
ATOM     10  C   UNL     1     -17.956  41.312 -10.004  0.00  0.00    +0.000 A 
ATOM     11  C   UNL     1     -18.499  44.972 -14.266  0.00  0.00    +0.000 A 
ATOM     12  C   UNL     1     -19.203  39.690 -11.334  0.00  0.00    +0.000 A 
ATOM     13  C   UNL     1     -18.493  40.090 -10.137  0.00  0.00    +0.000 A 
ATOM     14  C   UNL     1     -19.170  44.623 -15.429  0.00  0.00    +0.000 A 
ATOM     15  C   UNL     1     -19.702  43.351 -15.505  0.00  0.00    +0.000 A 
ENDROOT
TORSDOF 0
ENDMDL
