MODEL 1
REMARK VINA RESULT:    -5.596      0.000      0.000
REMARK INTER + INTRA:          -6.274
REMARK INTER:                  -6.250
REMARK INTRA:                  -0.024
REMARK UNBOUND:                -0.024
REMARK  Name = 138465930
REMARK  3 active torsions:
REMARK  status: ('A' for Active; 'I' for Inactive)
REMARK    1  A    between atoms: S_1  and  N_5
REMARK    2  A    between atoms: S_2  and  N_5
REMARK    3  A    between atoms: C_7  and  C_11
REMARK                            x       y       z     vdW  Elec       q    Type
REMARK                         _______ _______ _______ _____ _____    ______ ____
ROOT
ATOM      1  N   UNL     1     -18.688  42.178  -8.302  0.00  0.00    +0.000 NA
ATOM      2  N   UNL     1     -18.190  41.141 -10.389  0.00  0.00    +0.000 N 
ATOM      3  C   UNL     1     -19.069  41.345  -9.298  0.00  0.00    +0.000 A 
ATOM      4  C   UNL     1     -20.796  41.709  -7.216  0.00  0.00    +0.000 A 
ATOM      5  C   UNL     1     -20.279  40.669  -9.323  0.00  0.00    +0.000 A 
ATOM      6  C   UNL     1     -21.153  40.862  -8.259  0.00  0.00    +0.000 A 
ATOM      7  C   UNL     1     -19.563  42.338  -7.285  0.00  0.00    +0.000 A 
ENDROOT
BRANCH   2   8
ATOM      8  S   UNL     1     -18.164  39.683 -11.243  0.00  0.00    +0.000 S 
ATOM      9  H   UNL     1     -16.838  39.603 -11.421  0.00  0.00    +0.000 HD
ENDBRANCH   2   8
BRANCH   2  10
ATOM     10  S   UNL     1     -17.069  42.314 -10.859  0.00  0.00    +0.000 S 
ATOM     11  H   UNL     1     -17.925  43.340 -10.983  0.00  0.00    +0.000 HD
ENDBRANCH   2  10
BRANCH   4  13
ATOM     12  O   UNL     1     -22.826  42.394  -6.211  0.00  0.00    +0.000 OA
ATOM     13  C   UNL     1     -21.688  41.929  -6.091  0.00  0.00    +0.000 C 
ENDBRANCH   4  13
TORSDOF 3
ENDMDL
MODEL 2
REMARK VINA RESULT:    -5.099      3.961      4.707
REMARK INTER + INTRA:          -5.719
REMARK INTER:                  -5.691
REMARK INTRA:                  -0.028
REMARK UNBOUND:                -0.024
REMARK  Name = 138465930
REMARK  3 active torsions:
REMARK  status: ('A' for Active; 'I' for Inactive)
REMARK    1  A    between atoms: S_1  and  N_5
REMARK    2  A    between atoms: S_2  and  N_5
REMARK    3  A    between atoms: C_7  and  C_11
REMARK                            x       y       z     vdW  Elec       q    Type
REMARK                         _______ _______ _______ _____ _____    ______ ____
ROOT
ATOM      1  N   UNL     1     -19.302  42.059  -7.891  0.00  0.00    +0.000 NA
ATOM      2  N   UNL     1     -21.428  41.516  -6.961  0.00  0.00    +0.000 N 
ATOM      3  C   UNL     1     -20.401  41.271  -7.907  0.00  0.00    +0.000 A 
ATOM      4  C   UNL     1     -18.449  40.763  -9.745  0.00  0.00    +0.000 A 
ATOM      5  C   UNL     1     -20.594  40.226  -8.796  0.00  0.00    +0.000 A 
ATOM      6  C   UNL     1     -19.594  39.973  -9.728  0.00  0.00    +0.000 A 
ATOM      7  C   UNL     1     -18.353  41.784  -8.813  0.00  0.00    +0.000 A 
ENDROOT
BRANCH   2   8
ATOM      8  S   UNL     1     -23.046  41.173  -7.305  0.00  0.00    +0.000 S 
ATOM      9  H   UNL     1     -23.402  40.747  -6.085  0.00  0.00    +0.000 HD
ENDBRANCH   2   8
BRANCH   2  10
ATOM     10  S   UNL     1     -21.106  42.224  -5.462  0.00  0.00    +0.000 S 
ATOM     11  H   UNL     1     -20.049  41.468  -5.130  0.00  0.00    +0.000 HD
ENDBRANCH   2  10
BRANCH   4  13
ATOM     12  O   UNL     1     -17.379  39.558 -11.477  0.00  0.00    +0.000 OA
ATOM     13  C   UNL     1     -17.388  40.524 -10.708  0.00  0.00    +0.000 C 
ENDBRANCH   4  13
TORSDOF 3
ENDMDL
MODEL 3
REMARK VINA RESULT:    -4.926      1.532      2.372
REMARK INTER + INTRA:          -5.526
REMARK INTER:                  -5.501
REMARK INTRA:                  -0.025
REMARK UNBOUND:                -0.024
REMARK  Name = 138465930
REMARK  3 active torsions:
REMARK  status: ('A' for Active; 'I' for Inactive)
REMARK    1  A    between atoms: S_1  and  N_5
REMARK    2  A    between atoms: S_2  and  N_5
REMARK    3  A    between atoms: C_7  and  C_11
REMARK                            x       y       z     vdW  Elec       q    Type
REMARK                         _______ _______ _______ _____ _____    ______ ____
ROOT
ATOM      1  N   UNL     1     -19.191  40.239 -10.344  0.00  0.00    +0.000 NA
ATOM      2  N   UNL     1     -17.091  41.147 -11.007  0.00  0.00    +0.000 N 
ATOM      3  C   UNL     1     -18.195  41.125 -10.119  0.00  0.00    +0.000 A 
ATOM      4  C   UNL     1     -20.301  41.119  -8.384  0.00  0.00    +0.000 A 
ATOM      5  C   UNL     1     -18.180  42.026  -9.066  0.00  0.00    +0.000 A 
ATOM      6  C   UNL     1     -19.256  42.015  -8.186  0.00  0.00    +0.000 A 
ATOM      7  C   UNL     1     -20.221  40.259  -9.468  0.00  0.00    +0.000 A 
ENDROOT
BRANCH   2   8
ATOM      8  S   UNL     1     -16.226  42.567 -11.306  0.00  0.00    +0.000 S 
ATOM      9  H   UNL     1     -16.664  42.783 -12.555  0.00  0.00    +0.000 HD
ENDBRANCH   2   8
BRANCH   2  10
ATOM     10  S   UNL     1     -16.615  39.774 -11.868  0.00  0.00    +0.000 S 
ATOM     11  H   UNL     1     -16.713  40.293 -13.101  0.00  0.00    +0.000 HD
ENDBRANCH   2  10
BRANCH   4  13
ATOM     12  O   UNL     1     -22.571  40.736  -7.835  0.00  0.00    +0.000 OA
ATOM     13  C   UNL     1     -21.440  41.084  -7.483  0.00  0.00    +0.000 C 
ENDBRANCH   4  13
TORSDOF 3
ENDMDL
MODEL 4
REMARK VINA RESULT:    -4.278      4.597      5.457
REMARK INTER + INTRA:          -4.802
REMARK INTER:                  -4.777
REMARK INTRA:                  -0.024
REMARK UNBOUND:                -0.024
REMARK  Name = 138465930
REMARK  3 active torsions:
REMARK  status: ('A' for Active; 'I' for Inactive)
REMARK    1  A    between atoms: S_1  and  N_5
REMARK    2  A    between atoms: S_2  and  N_5
REMARK    3  A    between atoms: C_7  and  C_11
REMARK                            x       y       z     vdW  Elec       q    Type
REMARK                         _______ _______ _______ _____ _____    ______ ____
ROOT
ATOM      1  N   UNL     1     -19.761  41.852 -13.437  0.00  0.00    +0.000 NA
ATOM      2  N   UNL     1     -19.036  43.735 -14.704  0.00  0.00    +0.000 N 
ATOM      3  C   UNL     1     -18.841  42.824 -13.637  0.00  0.00    +0.000 A 
ATOM      4  C   UNL     1     -18.425  41.090 -11.571  0.00  0.00    +0.000 A 
ATOM      5  C   UNL     1     -17.706  42.990 -12.860  0.00  0.00    +0.000 A 
ATOM      6  C   UNL     1     -17.501  42.101 -11.811  0.00  0.00    +0.000 A 
ATOM      7  C   UNL     1     -19.528  41.009 -12.407  0.00  0.00    +0.000 A 
ENDROOT
BRANCH   2   8
ATOM      8  S   UNL     1     -18.462  45.322 -14.626  0.00  0.00    +0.000 S 
ATOM      9  H   UNL     1     -18.874  45.721 -15.838  0.00  0.00    +0.000 HD
ENDBRANCH   2   8
BRANCH   2  10
ATOM     10  S   UNL     1     -19.909  43.313 -16.087  0.00  0.00    +0.000 S 
ATOM     11  H   UNL     1     -18.947  43.558 -16.989  0.00  0.00    +0.000 HD
ENDBRANCH   2  10
BRANCH   4  13
ATOM     12  O   UNL     1     -19.173  39.686  -9.820  0.00  0.00    +0.000 OA
ATOM     13  C   UNL     1     -18.238  40.147 -10.482  0.00  0.00    +0.000 C 
ENDBRANCH   4  13
TORSDOF 3
ENDMDL
MODEL 5
REMARK VINA RESULT:    -4.141      4.887      5.393
REMARK INTER + INTRA:          -4.650
REMARK INTER:                  -4.625
REMARK INTRA:                  -0.025
REMARK UNBOUND:                -0.024
REMARK  Name = 138465930
REMARK  3 active torsions:
REMARK  status: ('A' for Active; 'I' for Inactive)
REMARK    1  A    between atoms: S_1  and  N_5
REMARK    2  A    between atoms: S_2  and  N_5
REMARK    3  A    between atoms: C_7  and  C_11
REMARK                            x       y       z     vdW  Elec       q    Type
REMARK                         _______ _______ _______ _____ _____    ______ ____
ROOT
ATOM      1  N   UNL     1     -18.933  42.833 -13.078  0.00  0.00    +0.000 NA
ATOM      2  N   UNL     1     -18.145  45.060 -12.767  0.00  0.00    +0.000 N 
ATOM      3  C   UNL     1     -18.170  43.699 -12.373  0.00  0.00    +0.000 A 
ATOM      4  C   UNL     1     -18.185  41.088 -11.580  0.00  0.00    +0.000 A 
ATOM      5  C   UNL     1     -17.399  43.341 -11.279  0.00  0.00    +0.000 A 
ATOM      6  C   UNL     1     -17.412  42.009 -10.882  0.00  0.00    +0.000 A 
ATOM      7  C   UNL     1     -18.921  41.547 -12.662  0.00  0.00    +0.000 A 
ENDROOT
BRANCH   2   8
ATOM      8  S   UNL     1     -17.895  46.299 -11.646  0.00  0.00    +0.000 S 
ATOM      9  H   UNL     1     -17.474  45.536 -10.627  0.00  0.00    +0.000 HD
ENDBRANCH   2   8
BRANCH   2  10
ATOM     10  S   UNL     1     -18.430  45.529 -14.364  0.00  0.00    +0.000 S 
ATOM     11  H   UNL     1     -19.353  44.602 -14.662  0.00  0.00    +0.000 HD
ENDBRANCH   2  10
BRANCH   4  13
ATOM     12  O   UNL     1     -19.222  38.978 -11.311  0.00  0.00    +0.000 OA
ATOM     13  C   UNL     1     -18.220  39.690 -11.189  0.00  0.00    +0.000 C 
ENDBRANCH   4  13
TORSDOF 3
ENDMDL
