MODEL 1
REMARK VINA RESULT:    -6.608      0.000      0.000
REMARK INTER + INTRA:          -7.007
REMARK INTER:                  -7.187
REMARK INTRA:                   0.180
REMARK UNBOUND:                 0.180
REMARK  Name = 138560483
REMARK  2 active torsions:
REMARK  status: ('A' for Active; 'I' for Inactive)
REMARK    1  A    between atoms: N_2  and  C_10
REMARK    2  A    between atoms: C_11  and  C_12
REMARK                            x       y       z     vdW  Elec       q    Type
REMARK                         _______ _______ _______ _____ _____    ______ ____
ROOT
ATOM      1  O   UNL     1     -18.861  39.307 -10.622  0.00  0.00    +0.000 OA
ATOM      2  N   UNL     1     -16.648  43.184 -12.867  0.00  0.00    +0.000 NA
ATOM      3  N   UNL     1     -18.397  41.469 -11.382  0.00  0.00    +0.000 N 
ATOM      4  C   UNL     1     -17.805  41.019 -12.640  0.00  0.00    +0.000 C 
ATOM      5  C   UNL     1     -18.493  42.926 -11.238  0.00  0.00    +0.000 C 
ATOM      6  C   UNL     1     -16.478  41.724 -12.913  0.00  0.00    +0.000 C 
ATOM      7  C   UNL     1     -17.156  43.600 -11.551  0.00  0.00    +0.000 C 
ATOM      8  C   UNL     1     -18.882  40.529 -10.470  0.00  0.00    +0.000 C 
ENDROOT
BRANCH   8  11
ATOM      9  N   UNL     1     -19.247  42.308  -7.189  0.00  0.00    +0.000 NA
ATOM     10  N   UNL     1     -21.079  42.441  -5.671  0.00  0.00    +0.000 N 
ATOM     11  C   UNL     1     -19.478  41.017  -9.220  0.00  0.00    +0.000 A 
ATOM     12  C   UNL     1     -20.781  40.683  -8.868  0.00  0.00    +0.000 A 
ATOM     13  C   UNL     1     -18.759  41.825  -8.353  0.00  0.00    +0.000 A 
ATOM     14  C   UNL     1     -21.319  41.160  -7.678  0.00  0.00    +0.000 A 
ATOM     15  C   UNL     1     -20.518  41.962  -6.881  0.00  0.00    +0.000 A 
ATOM     16  H   UNL     1     -22.083  42.568  -5.623  0.00  0.00    +0.000 HD
ATOM     17  H   UNL     1     -20.493  43.032  -5.095  0.00  0.00    +0.000 HD
ENDBRANCH   8  11
BRANCH   2  18
ATOM     18  C   UNL     1     -15.385  43.857 -13.167  0.00  0.00    +0.000 C 
ATOM     19  H   UNL     1     -14.516  43.240 -12.913  0.00  0.00    +0.000 HD
ATOM     20  H   UNL     1     -15.311  44.800 -12.613  0.00  0.00    +0.000 HD
ATOM     21  H   UNL     1     -15.329  44.112 -14.230  0.00  0.00    +0.000 HD
ENDBRANCH   2  18
TORSDOF 2
ENDMDL
MODEL 2
REMARK VINA RESULT:    -6.582      1.589      5.691
REMARK INTER + INTRA:          -6.979
REMARK INTER:                  -6.900
REMARK INTRA:                  -0.079
REMARK UNBOUND:                 0.180
REMARK  Name = 138560483
REMARK  2 active torsions:
REMARK  status: ('A' for Active; 'I' for Inactive)
REMARK    1  A    between atoms: N_2  and  C_10
REMARK    2  A    between atoms: C_11  and  C_12
REMARK                            x       y       z     vdW  Elec       q    Type
REMARK                         _______ _______ _______ _____ _____    ______ ____
ROOT
ATOM      1  O   UNL     1     -19.647  39.702 -11.256  0.00  0.00    +0.000 OA
ATOM      2  N   UNL     1     -21.065  41.524  -6.825  0.00  0.00    +0.000 NA
ATOM      3  N   UNL     1     -19.587  40.580  -9.090  0.00  0.00    +0.000 N 
ATOM      4  C   UNL     1     -20.808  39.900  -8.663  0.00  0.00    +0.000 C 
ATOM      5  C   UNL     1     -18.914  41.348  -8.037  0.00  0.00    +0.000 C 
ATOM      6  C   UNL     1     -21.754  40.859  -7.941  0.00  0.00    +0.000 C 
ATOM      7  C   UNL     1     -19.898  42.272  -7.315  0.00  0.00    +0.000 C 
ATOM      8  C   UNL     1     -19.117  40.402 -10.393  0.00  0.00    +0.000 C 
ENDROOT
BRANCH   8  11
ATOM      9  N   UNL     1     -15.509  40.987 -11.235  0.00  0.00    +0.000 NA
ATOM     10  N   UNL     1     -14.351  42.963 -11.890  0.00  0.00    +0.000 N 
ATOM     11  C   UNL     1     -17.883  41.093 -10.786  0.00  0.00    +0.000 A 
ATOM     12  C   UNL     1     -17.884  42.453 -11.078  0.00  0.00    +0.000 A 
ATOM     13  C   UNL     1     -16.680  40.412 -10.878  0.00  0.00    +0.000 A 
ATOM     14  C   UNL     1     -16.700  43.081 -11.448  0.00  0.00    +0.000 A 
ATOM     15  C   UNL     1     -15.550  42.310 -11.511  0.00  0.00    +0.000 A 
ATOM     16  H   UNL     1     -14.415  43.779 -12.488  0.00  0.00    +0.000 HD
ATOM     17  H   UNL     1     -13.515  42.395 -11.941  0.00  0.00    +0.000 HD
ENDBRANCH   8  11
BRANCH   2  18
ATOM     18  C   UNL     1     -21.982  42.411  -6.112  0.00  0.00    +0.000 C 
ATOM     19  H   UNL     1     -21.827  43.465  -6.373  0.00  0.00    +0.000 HD
ATOM     20  H   UNL     1     -21.857  42.303  -5.029  0.00  0.00    +0.000 HD
ATOM     21  H   UNL     1     -23.022  42.150  -6.336  0.00  0.00    +0.000 HD
ENDBRANCH   2  18
TORSDOF 2
ENDMDL
MODEL 3
REMARK VINA RESULT:    -6.244      1.410      5.744
REMARK INTER + INTRA:          -6.611
REMARK INTER:                  -6.637
REMARK INTRA:                   0.026
REMARK UNBOUND:                 0.180
REMARK  Name = 138560483
REMARK  2 active torsions:
REMARK  status: ('A' for Active; 'I' for Inactive)
REMARK    1  A    between atoms: N_2  and  C_10
REMARK    2  A    between atoms: C_11  and  C_12
REMARK                            x       y       z     vdW  Elec       q    Type
REMARK                         _______ _______ _______ _____ _____    ______ ____
ROOT
ATOM      1  O   UNL     1     -19.615  40.552 -12.580  0.00  0.00    +0.000 OA
ATOM      2  N   UNL     1     -19.761  41.173  -7.624  0.00  0.00    +0.000 NA
ATOM      3  N   UNL     1     -18.987  41.026 -10.378  0.00  0.00    +0.000 N 
ATOM      4  C   UNL     1     -19.855  40.006  -9.794  0.00  0.00    +0.000 C 
ATOM      5  C   UNL     1     -18.145  41.740  -9.412  0.00  0.00    +0.000 C 
ATOM      6  C   UNL     1     -20.656  40.565  -8.619  0.00  0.00    +0.000 C 
ATOM      7  C   UNL     1     -18.975  42.256  -8.234  0.00  0.00    +0.000 C 
ATOM      8  C   UNL     1     -18.957  41.198 -11.764  0.00  0.00    +0.000 C 
ENDROOT
BRANCH   8  11
ATOM      9  N   UNL     1     -15.819  42.959 -12.819  0.00  0.00    +0.000 NA
ATOM     10  N   UNL     1     -15.481  45.076 -13.860  0.00  0.00    +0.000 N 
ATOM     11  C   UNL     1     -18.067  42.227 -12.317  0.00  0.00    +0.000 A 
ATOM     12  C   UNL     1     -18.578  43.405 -12.851  0.00  0.00    +0.000 A 
ATOM     13  C   UNL     1     -16.693  42.054 -12.325  0.00  0.00    +0.000 A 
ATOM     14  C   UNL     1     -17.711  44.361 -13.368  0.00  0.00    +0.000 A 
ATOM     15  C   UNL     1     -16.352  44.093 -13.329  0.00  0.00    +0.000 A 
ATOM     16  H   UNL     1     -15.829  45.682 -14.593  0.00  0.00    +0.000 HD
ATOM     17  H   UNL     1     -14.490  44.873 -13.835  0.00  0.00    +0.000 HD
ENDBRANCH   8  11
BRANCH   2  18
ATOM     18  C   UNL     1     -20.526  41.672  -6.483  0.00  0.00    +0.000 C 
ATOM     19  H   UNL     1     -20.330  41.098  -5.570  0.00  0.00    +0.000 HD
ATOM     20  H   UNL     1     -21.600  41.631  -6.693  0.00  0.00    +0.000 HD
ATOM     21  H   UNL     1     -20.283  42.722  -6.288  0.00  0.00    +0.000 HD
ENDBRANCH   2  18
TORSDOF 2
ENDMDL
MODEL 4
REMARK VINA RESULT:    -6.002      2.144      3.049
REMARK INTER + INTRA:          -6.348
REMARK INTER:                  -6.294
REMARK INTRA:                  -0.054
REMARK UNBOUND:                 0.180
REMARK  Name = 138560483
REMARK  2 active torsions:
REMARK  status: ('A' for Active; 'I' for Inactive)
REMARK    1  A    between atoms: N_2  and  C_10
REMARK    2  A    between atoms: C_11  and  C_12
REMARK                            x       y       z     vdW  Elec       q    Type
REMARK                         _______ _______ _______ _____ _____    ______ ____
ROOT
ATOM      1  O   UNL     1     -15.529  41.066 -11.276  0.00  0.00    +0.000 OA
ATOM      2  N   UNL     1     -16.620  45.693 -12.814  0.00  0.00    +0.000 NA
ATOM      3  N   UNL     1     -16.698  42.926 -12.076  0.00  0.00    +0.000 N 
ATOM      4  C   UNL     1     -15.554  43.470 -12.804  0.00  0.00    +0.000 C 
ATOM      5  C   UNL     1     -17.945  43.682 -12.242  0.00  0.00    +0.000 C 
ATOM      6  C   UNL     1     -15.377  44.962 -12.527  0.00  0.00    +0.000 C 
ATOM      7  C   UNL     1     -17.722  45.175 -11.989  0.00  0.00    +0.000 C 
ATOM      8  C   UNL     1     -16.560  41.735 -11.361  0.00  0.00    +0.000 C 
ENDROOT
BRANCH   8  11
ATOM      9  N   UNL     1     -19.509  39.579 -10.511  0.00  0.00    +0.000 NA
ATOM     10  N   UNL     1     -21.049  39.671  -8.695  0.00  0.00    +0.000 N 
ATOM     11  C   UNL     1     -17.732  41.213 -10.646  0.00  0.00    +0.000 A 
ATOM     12  C   UNL     1     -18.181  41.810  -9.474  0.00  0.00    +0.000 A 
ATOM     13  C   UNL     1     -18.425  40.110 -11.119  0.00  0.00    +0.000 A 
ATOM     14  C   UNL     1     -19.294  41.293  -8.819  0.00  0.00    +0.000 A 
ATOM     15  C   UNL     1     -19.917  40.187  -9.373  0.00  0.00    +0.000 A 
ATOM     16  H   UNL     1     -21.112  39.805  -7.693  0.00  0.00    +0.000 HD
ATOM     17  H   UNL     1     -21.497  38.859  -9.100  0.00  0.00    +0.000 HD
ENDBRANCH   8  11
BRANCH   2  18
ATOM     18  C   UNL     1     -16.438  47.125 -12.585  0.00  0.00    +0.000 C 
ATOM     19  H   UNL     1     -15.795  47.587 -13.343  0.00  0.00    +0.000 HD
ATOM     20  H   UNL     1     -15.992  47.304 -11.600  0.00  0.00    +0.000 HD
ATOM     21  H   UNL     1     -17.404  47.641 -12.592  0.00  0.00    +0.000 HD
ENDBRANCH   2  18
TORSDOF 2
ENDMDL
MODEL 5
REMARK VINA RESULT:    -5.441      2.185      5.685
REMARK INTER + INTRA:          -5.738
REMARK INTER:                  -5.674
REMARK INTRA:                  -0.064
REMARK UNBOUND:                 0.180
REMARK  Name = 138560483
REMARK  2 active torsions:
REMARK  status: ('A' for Active; 'I' for Inactive)
REMARK    1  A    between atoms: N_2  and  C_10
REMARK    2  A    between atoms: C_11  and  C_12
REMARK                            x       y       z     vdW  Elec       q    Type
REMARK                         _______ _______ _______ _____ _____    ______ ____
ROOT
ATOM      1  O   UNL     1     -17.004  41.655 -13.529  0.00  0.00    +0.000 OA
ATOM      2  N   UNL     1     -19.293  40.205  -9.331  0.00  0.00    +0.000 NA
ATOM      3  N   UNL     1     -17.576  41.422 -11.273  0.00  0.00    +0.000 N 
ATOM      4  C   UNL     1     -17.973  40.022 -11.405  0.00  0.00    +0.000 C 
ATOM      5  C   UNL     1     -17.633  41.948  -9.905  0.00  0.00    +0.000 C 
ATOM      6  C   UNL     1     -19.320  39.761 -10.732  0.00  0.00    +0.000 C 
ATOM      7  C   UNL     1     -18.982  41.640  -9.252  0.00  0.00    +0.000 C 
ATOM      8  C   UNL     1     -17.115  42.118 -12.393  0.00  0.00    +0.000 C 
ENDROOT
BRANCH   8  11
ATOM      9  N   UNL     1     -17.366  45.831 -11.921  0.00  0.00    +0.000 NA
ATOM     10  N   UNL     1     -15.682  47.507 -11.736  0.00  0.00    +0.000 N 
ATOM     11  C   UNL     1     -16.716  43.521 -12.223  0.00  0.00    +0.000 A 
ATOM     12  C   UNL     1     -15.375  43.888 -12.198  0.00  0.00    +0.000 A 
ATOM     13  C   UNL     1     -17.664  44.522 -12.082  0.00  0.00    +0.000 A 
ATOM     14  C   UNL     1     -15.027  45.224 -12.034  0.00  0.00    +0.000 A 
ATOM     15  C   UNL     1     -16.051  46.149 -11.902  0.00  0.00    +0.000 A 
ATOM     16  H   UNL     1     -14.790  47.714 -11.303  0.00  0.00    +0.000 HD
ATOM     17  H   UNL     1     -16.433  48.177 -11.633  0.00  0.00    +0.000 HD
ENDBRANCH   8  11
BRANCH   2  18
ATOM     18  C   UNL     1     -20.569  39.919  -8.678  0.00  0.00    +0.000 C 
ATOM     19  H   UNL     1     -20.471  39.167  -7.886  0.00  0.00    +0.000 HD
ATOM     20  H   UNL     1     -21.302  39.557  -9.408  0.00  0.00    +0.000 HD
ATOM     21  H   UNL     1     -20.988  40.830  -8.238  0.00  0.00    +0.000 HD
ENDBRANCH   2  18
TORSDOF 2
ENDMDL
