MODEL 1
REMARK VINA RESULT:    -6.351      0.000      0.000
REMARK INTER + INTRA:          -7.602
REMARK INTER:                  -7.094
REMARK INTRA:                  -0.508
REMARK UNBOUND:                -0.508
REMARK  Name = 138643510
REMARK  2 active torsions:
REMARK  status: ('A' for Active; 'I' for Inactive)
REMARK    1  A    between atoms: N_5  and  C_20
REMARK    2  A    between atoms: C_18  and  C_19
REMARK                            x       y       z     vdW  Elec       q    Type
REMARK                         _______ _______ _______ _____ _____    ______ ____
ROOT
ATOM      1  O   UNL     1     -14.997  40.791 -11.073  0.00  0.00    +0.000 OA
ATOM      2  N   UNL     1     -16.173  42.813 -11.121  0.00  0.00    +0.000 N 
ATOM      3  C   UNL     1     -15.359  47.942 -12.279  0.00  0.00    +0.000 C 
ATOM      4  C   UNL     1     -16.444  48.268 -13.318  0.00  0.00    +0.000 C 
ATOM      5  C   UNL     1     -14.543  46.696 -12.626  0.00  0.00    +0.000 C 
ATOM      6  C   UNL     1     -17.358  47.101 -13.725  0.00  0.00    +0.000 C 
ATOM      7  C   UNL     1     -13.575  46.297 -11.512  0.00  0.00    +0.000 C 
ATOM      8  C   UNL     1     -18.149  46.486 -12.563  0.00  0.00    +0.000 C 
ATOM      9  C   UNL     1     -12.976  44.895 -11.704  0.00  0.00    +0.000 C 
ATOM     10  C   UNL     1     -18.712  45.098 -12.904  0.00  0.00    +0.000 C 
ATOM     11  C   UNL     1     -13.985  43.751 -11.904  0.00  0.00    +0.000 C 
ATOM     12  C   UNL     1     -17.677  43.969 -12.778  0.00  0.00    +0.000 C 
ATOM     13  C   UNL     1     -14.986  43.600 -10.753  0.00  0.00    +0.000 C 
ATOM     14  C   UNL     1     -17.433  43.558 -11.321  0.00  0.00    +0.000 C 
ATOM     15  C   UNL     1     -16.039  41.424 -11.236  0.00  0.00    +0.000 C 
ENDROOT
BRANCH  15  17
ATOM     16  N   UNL     1     -19.232  39.454 -10.932  0.00  0.00    +0.000 NA
ATOM     17  C   UNL     1     -17.226  40.636 -11.586  0.00  0.00    +0.000 A 
ATOM     18  C   UNL     1     -18.132  40.183 -10.640  0.00  0.00    +0.000 A 
ATOM     19  C   UNL     1     -17.466  40.322 -12.919  0.00  0.00    +0.000 A 
ATOM     20  C   UNL     1     -18.588  39.574 -13.260  0.00  0.00    +0.000 A 
ATOM     21  C   UNL     1     -19.432  39.168 -12.239  0.00  0.00    +0.000 A 
BRANCH  18  23
ATOM     22  I   UNL     1     -19.214  41.030  -7.944  0.00  0.00    +0.000 I 
ATOM     23  N   UNL     1     -17.892  40.499  -9.278  0.00  0.00    +0.000 N 
ATOM     24  H   UNL     1     -16.916  40.488  -9.000  0.00  0.00    +0.000 HD
ENDBRANCH  18  23
ENDBRANCH  15  17
TORSDOF 2
ENDMDL
MODEL 2
REMARK VINA RESULT:    -6.171      2.852      4.534
REMARK INTER + INTRA:          -7.401
REMARK INTER:                  -6.874
REMARK INTRA:                  -0.527
REMARK UNBOUND:                -0.508
REMARK  Name = 138643510
REMARK  2 active torsions:
REMARK  status: ('A' for Active; 'I' for Inactive)
REMARK    1  A    between atoms: N_5  and  C_20
REMARK    2  A    between atoms: C_18  and  C_19
REMARK                            x       y       z     vdW  Elec       q    Type
REMARK                         _______ _______ _______ _____ _____    ______ ____
ROOT
ATOM      1  O   UNL     1     -18.804  45.407 -12.533  0.00  0.00    +0.000 OA
ATOM      2  N   UNL     1     -16.535  44.855 -12.679  0.00  0.00    +0.000 N 
ATOM      3  C   UNL     1     -11.795  46.805 -11.248  0.00  0.00    +0.000 C 
ATOM      4  C   UNL     1     -11.147  45.663 -10.448  0.00  0.00    +0.000 C 
ATOM      5  C   UNL     1     -13.206  47.154 -10.771  0.00  0.00    +0.000 C 
ATOM      6  C   UNL     1     -12.001  44.398 -10.268  0.00  0.00    +0.000 C 
ATOM      7  C   UNL     1     -13.895  48.181 -11.671  0.00  0.00    +0.000 C 
ATOM      8  C   UNL     1     -12.412  43.725 -11.584  0.00  0.00    +0.000 C 
ATOM      9  C   UNL     1     -15.401  48.314 -11.395  0.00  0.00    +0.000 C 
ATOM     10  C   UNL     1     -13.578  42.741 -11.401  0.00  0.00    +0.000 C 
ATOM     11  C   UNL     1     -16.213  47.007 -11.436  0.00  0.00    +0.000 C 
ATOM     12  C   UNL     1     -14.953  43.424 -11.339  0.00  0.00    +0.000 C 
ATOM     13  C   UNL     1     -16.120  46.263 -12.773  0.00  0.00    +0.000 C 
ATOM     14  C   UNL     1     -15.464  43.838 -12.724  0.00  0.00    +0.000 C 
ATOM     15  C   UNL     1     -17.902  44.572 -12.573  0.00  0.00    +0.000 C 
ENDROOT
BRANCH  15  17
ATOM     16  N   UNL     1     -19.120  41.151 -13.564  0.00  0.00    +0.000 NA
ATOM     17  C   UNL     1     -18.318  43.167 -12.496  0.00  0.00    +0.000 A 
ATOM     18  C   UNL     1     -18.729  42.444 -13.605  0.00  0.00    +0.000 A 
ATOM     19  C   UNL     1     -18.305  42.519 -11.266  0.00  0.00    +0.000 A 
ATOM     20  C   UNL     1     -18.700  41.188 -11.183  0.00  0.00    +0.000 A 
ATOM     21  C   UNL     1     -19.095  40.555 -12.350  0.00  0.00    +0.000 A 
BRANCH  18  23
ATOM     22  I   UNL     1     -20.280  43.331 -16.047  0.00  0.00    +0.000 I 
ATOM     23  N   UNL     1     -18.746  43.099 -14.863  0.00  0.00    +0.000 N 
ATOM     24  H   UNL     1     -17.843  43.433 -15.185  0.00  0.00    +0.000 HD
ENDBRANCH  18  23
ENDBRANCH  15  17
TORSDOF 2
ENDMDL
MODEL 3
REMARK VINA RESULT:    -6.071      5.884      7.433
REMARK INTER + INTRA:          -7.288
REMARK INTER:                  -6.642
REMARK INTRA:                  -0.646
REMARK UNBOUND:                -0.508
REMARK  Name = 138643510
REMARK  2 active torsions:
REMARK  status: ('A' for Active; 'I' for Inactive)
REMARK    1  A    between atoms: N_5  and  C_20
REMARK    2  A    between atoms: C_18  and  C_19
REMARK                            x       y       z     vdW  Elec       q    Type
REMARK                         _______ _______ _______ _____ _____    ______ ____
ROOT
ATOM      1  O   UNL     1     -19.076  47.086 -15.024  0.00  0.00    +0.000 OA
ATOM      2  N   UNL     1     -18.039  47.157 -17.121  0.00  0.00    +0.000 N 
ATOM      3  C   UNL     1     -13.151  47.314 -19.216  0.00  0.00    +0.000 C 
ATOM      4  C   UNL     1     -13.122  46.124 -20.189  0.00  0.00    +0.000 C 
ATOM      5  C   UNL     1     -13.626  46.938 -17.812  0.00  0.00    +0.000 C 
ATOM      6  C   UNL     1     -14.398  45.270 -20.245  0.00  0.00    +0.000 C 
ATOM      7  C   UNL     1     -13.796  48.155 -16.902  0.00  0.00    +0.000 C 
ATOM      8  C   UNL     1     -15.655  46.044 -20.664  0.00  0.00    +0.000 C 
ATOM      9  C   UNL     1     -14.556  47.838 -15.603  0.00  0.00    +0.000 C 
ATOM     10  C   UNL     1     -16.950  45.296 -20.314  0.00  0.00    +0.000 C 
ATOM     11  C   UNL     1     -15.927  47.159 -15.772  0.00  0.00    +0.000 C 
ATOM     12  C   UNL     1     -17.367  45.446 -18.842  0.00  0.00    +0.000 C 
ATOM     13  C   UNL     1     -16.916  47.965 -16.622  0.00  0.00    +0.000 C 
ATOM     14  C   UNL     1     -18.023  46.801 -18.554  0.00  0.00    +0.000 C 
ATOM     15  C   UNL     1     -19.049  46.798 -16.219  0.00  0.00    +0.000 C 
ENDROOT
BRANCH  15  17
ATOM     16  N   UNL     1     -21.279  43.875 -17.026  0.00  0.00    +0.000 NA
ATOM     17  C   UNL     1     -20.179  46.006 -16.719  0.00  0.00    +0.000 A 
ATOM     18  C   UNL     1     -20.253  44.630 -16.575  0.00  0.00    +0.000 A 
ATOM     19  C   UNL     1     -21.227  46.649 -17.368  0.00  0.00    +0.000 A 
ATOM     20  C   UNL     1     -22.301  45.907 -17.847  0.00  0.00    +0.000 A 
ATOM     21  C   UNL     1     -22.279  44.535 -17.652  0.00  0.00    +0.000 A 
BRANCH  18  23
ATOM     22  I   UNL     1     -19.249  43.080 -14.178  0.00  0.00    +0.000 I 
ATOM     23  N   UNL     1     -19.187  43.967 -15.915  0.00  0.00    +0.000 N 
ATOM     24  H   UNL     1     -18.292  44.013 -16.392  0.00  0.00    +0.000 HD
ENDBRANCH  18  23
ENDBRANCH  15  17
TORSDOF 2
ENDMDL
MODEL 4
REMARK VINA RESULT:    -5.843      5.456      6.779
REMARK INTER + INTRA:          -7.034
REMARK INTER:                  -6.461
REMARK INTRA:                  -0.573
REMARK UNBOUND:                -0.508
REMARK  Name = 138643510
REMARK  2 active torsions:
REMARK  status: ('A' for Active; 'I' for Inactive)
REMARK    1  A    between atoms: N_5  and  C_20
REMARK    2  A    between atoms: C_18  and  C_19
REMARK                            x       y       z     vdW  Elec       q    Type
REMARK                         _______ _______ _______ _____ _____    ______ ____
ROOT
ATOM      1  O   UNL     1     -20.014  42.238 -16.517  0.00  0.00    +0.000 OA
ATOM      2  N   UNL     1     -19.477  44.356 -15.682  0.00  0.00    +0.000 N 
ATOM      3  C   UNL     1     -16.753  46.556 -11.675  0.00  0.00    +0.000 C 
ATOM      4  C   UNL     1     -15.777  47.519 -12.370  0.00  0.00    +0.000 C 
ATOM      5  C   UNL     1     -16.717  45.139 -12.250  0.00  0.00    +0.000 C 
ATOM      6  C   UNL     1     -15.834  47.542 -13.906  0.00  0.00    +0.000 C 
ATOM      7  C   UNL     1     -17.798  44.235 -11.655  0.00  0.00    +0.000 C 
ATOM      8  C   UNL     1     -17.200  47.940 -14.479  0.00  0.00    +0.000 C 
ATOM      9  C   UNL     1     -17.979  42.919 -12.428  0.00  0.00    +0.000 C 
ATOM     10  C   UNL     1     -17.350  47.557 -15.960  0.00  0.00    +0.000 C 
ATOM     11  C   UNL     1     -18.233  43.053 -13.940  0.00  0.00    +0.000 C 
ATOM     12  C   UNL     1     -17.706  46.078 -16.177  0.00  0.00    +0.000 C 
ATOM     13  C   UNL     1     -19.470  43.888 -14.287  0.00  0.00    +0.000 C 
ATOM     14  C   UNL     1     -19.188  45.787 -15.908  0.00  0.00    +0.000 C 
ATOM     15  C   UNL     1     -19.772  43.431 -16.690  0.00  0.00    +0.000 C 
ENDROOT
BRANCH  15  17
ATOM     16  N   UNL     1     -20.996  44.818 -19.969  0.00  0.00    +0.000 NA
ATOM     17  C   UNL     1     -19.796  43.900 -18.080  0.00  0.00    +0.000 A 
ATOM     18  C   UNL     1     -20.943  44.381 -18.691  0.00  0.00    +0.000 A 
ATOM     19  C   UNL     1     -18.625  43.866 -18.830  0.00  0.00    +0.000 A 
ATOM     20  C   UNL     1     -18.639  44.307 -20.150  0.00  0.00    +0.000 A 
ATOM     21  C   UNL     1     -19.838  44.768 -20.667  0.00  0.00    +0.000 A 
BRANCH  18  23
ATOM     22  I   UNL     1     -23.257  45.977 -17.571  0.00  0.00    +0.000 I 
ATOM     23  N   UNL     1     -22.141  44.417 -17.932  0.00  0.00    +0.000 N 
ATOM     24  H   UNL     1     -22.401  43.537 -17.499  0.00  0.00    +0.000 HD
ENDBRANCH  18  23
ENDBRANCH  15  17
TORSDOF 2
ENDMDL
MODEL 5
REMARK VINA RESULT:    -5.766     20.767     22.559
REMARK INTER + INTRA:          -6.948
REMARK INTER:                  -6.348
REMARK INTRA:                  -0.600
REMARK UNBOUND:                -0.508
REMARK  Name = 138643510
REMARK  2 active torsions:
REMARK  status: ('A' for Active; 'I' for Inactive)
REMARK    1  A    between atoms: N_5  and  C_20
REMARK    2  A    between atoms: C_18  and  C_19
REMARK                            x       y       z     vdW  Elec       q    Type
REMARK                         _______ _______ _______ _____ _____    ______ ____
ROOT
ATOM      1  O   UNL     1     -31.963  47.085   5.022  0.00  0.00    +0.000 OA
ATOM      2  N   UNL     1     -31.937  45.019   3.925  0.00  0.00    +0.000 N 
ATOM      3  C   UNL     1     -28.597  41.962   1.129  0.00  0.00    +0.000 C 
ATOM      4  C   UNL     1     -28.623  40.611   1.863  0.00  0.00    +0.000 C 
ATOM      5  C   UNL     1     -28.329  43.149   2.056  0.00  0.00    +0.000 C 
ATOM      6  C   UNL     1     -29.505  40.545   3.120  0.00  0.00    +0.000 C 
ATOM      7  C   UNL     1     -28.460  44.495   1.340  0.00  0.00    +0.000 C 
ATOM      8  C   UNL     1     -30.988  40.841   2.864  0.00  0.00    +0.000 C 
ATOM      9  C   UNL     1     -28.499  45.692   2.304  0.00  0.00    +0.000 C 
ATOM     10  C   UNL     1     -31.752  41.177   4.155  0.00  0.00    +0.000 C 
ATOM     11  C   UNL     1     -29.559  45.627   3.418  0.00  0.00    +0.000 C 
ATOM     12  C   UNL     1     -31.558  42.628   4.622  0.00  0.00    +0.000 C 
ATOM     13  C   UNL     1     -30.995  45.490   2.898  0.00  0.00    +0.000 C 
ATOM     14  C   UNL     1     -32.402  43.622   3.814  0.00  0.00    +0.000 C 
ATOM     15  C   UNL     1     -32.342  45.920   4.917  0.00  0.00    +0.000 C 
ENDROOT
BRANCH  15  17
ATOM     16  N   UNL     1     -35.569  45.100   6.672  0.00  0.00    +0.000 NA
ATOM     17  C   UNL     1     -33.295  45.457   5.932  0.00  0.00    +0.000 A 
ATOM     18  C   UNL     1     -34.668  45.517   5.755  0.00  0.00    +0.000 A 
ATOM     19  C   UNL     1     -32.815  44.932   7.127  0.00  0.00    +0.000 A 
ATOM     20  C   UNL     1     -33.711  44.492   8.096  0.00  0.00    +0.000 A 
ATOM     21  C   UNL     1     -35.065  44.597   7.823  0.00  0.00    +0.000 A 
BRANCH  18  23
ATOM     22  I   UNL     1     -36.066  45.078   3.108  0.00  0.00    +0.000 I 
ATOM     23  N   UNL     1     -35.164  46.052   4.539  0.00  0.00    +0.000 N 
ATOM     24  H   UNL     1     -34.976  47.038   4.396  0.00  0.00    +0.000 HD
ENDBRANCH  18  23
ENDBRANCH  15  17
TORSDOF 2
ENDMDL
