MODEL 1
REMARK VINA RESULT:    -6.414      0.000      0.000
REMARK INTER + INTRA:          -7.479
REMARK INTER:                  -7.164
REMARK INTRA:                  -0.315
REMARK UNBOUND:                -0.315
REMARK  Name = 138643423
REMARK  2 active torsions:
REMARK  status: ('A' for Active; 'I' for Inactive)
REMARK    1  A    between atoms: N_5  and  C_19
REMARK    2  A    between atoms: C_17  and  C_18
REMARK                            x       y       z     vdW  Elec       q    Type
REMARK                         _______ _______ _______ _____ _____    ______ ____
ROOT
ATOM      1  O   UNL     1     -18.650  46.196 -15.233  0.00  0.00    +0.000 OA
ATOM      2  N   UNL     1     -18.414  44.105 -14.205  0.00  0.00    +0.000 N 
ATOM      3  C   UNL     1     -17.153  40.976 -10.679  0.00  0.00    +0.000 C 
ATOM      4  C   UNL     1     -17.735  39.709 -11.312  0.00  0.00    +0.000 C 
ATOM      5  C   UNL     1     -16.113  41.682 -11.554  0.00  0.00    +0.000 C 
ATOM      6  C   UNL     1     -18.400  39.832 -12.693  0.00  0.00    +0.000 C 
ATOM      7  C   UNL     1     -15.802  43.094 -11.046  0.00  0.00    +0.000 C 
ATOM      8  C   UNL     1     -19.665  40.701 -12.783  0.00  0.00    +0.000 C 
ATOM      9  C   UNL     1     -15.212  44.031 -12.113  0.00  0.00    +0.000 C 
ATOM     10  C   UNL     1     -19.469  42.217 -12.906  0.00  0.00    +0.000 C 
ATOM     11  C   UNL     1     -16.026  44.185 -13.409  0.00  0.00    +0.000 C 
ATOM     12  C   UNL     1     -18.723  42.654 -14.172  0.00  0.00    +0.000 C 
ATOM     13  C   UNL     1     -17.479  44.627 -13.191  0.00  0.00    +0.000 C 
ATOM     14  C   UNL     1     -18.891  44.990 -15.182  0.00  0.00    +0.000 C 
ENDROOT
BRANCH  14  16
ATOM     15  N   UNL     1     -20.199  43.996 -18.571  0.00  0.00    +0.000 NA
ATOM     16  C   UNL     1     -19.765  44.463 -16.238  0.00  0.00    +0.000 A 
ATOM     17  C   UNL     1     -19.413  44.472 -17.578  0.00  0.00    +0.000 A 
ATOM     18  C   UNL     1     -21.004  43.931 -15.894  0.00  0.00    +0.000 A 
ATOM     19  C   UNL     1     -21.840  43.433 -16.887  0.00  0.00    +0.000 A 
ATOM     20  C   UNL     1     -21.395  43.488 -18.198  0.00  0.00    +0.000 A 
BRANCH  17  22
ATOM     21  I   UNL     1     -17.488  45.348 -19.741  0.00  0.00    +0.000 I 
ATOM     22  N   UNL     1     -18.154  45.014 -17.938  0.00  0.00    +0.000 N 
ATOM     23  H   UNL     1     -17.567  45.288 -17.157  0.00  0.00    +0.000 HD
ENDBRANCH  17  22
ENDBRANCH  14  16
TORSDOF 2
ENDMDL
MODEL 2
REMARK VINA RESULT:    -6.319      1.975      3.726
REMARK INTER + INTRA:          -7.373
REMARK INTER:                  -6.744
REMARK INTRA:                  -0.628
REMARK UNBOUND:                -0.315
REMARK  Name = 138643423
REMARK  2 active torsions:
REMARK  status: ('A' for Active; 'I' for Inactive)
REMARK    1  A    between atoms: N_5  and  C_19
REMARK    2  A    between atoms: C_17  and  C_18
REMARK                            x       y       z     vdW  Elec       q    Type
REMARK                         _______ _______ _______ _____ _____    ______ ____
ROOT
ATOM      1  O   UNL     1     -20.329  42.197 -16.870  0.00  0.00    +0.000 OA
ATOM      2  N   UNL     1     -19.380  43.723 -15.367  0.00  0.00    +0.000 N 
ATOM      3  C   UNL     1     -16.462  45.200 -11.746  0.00  0.00    +0.000 C 
ATOM      4  C   UNL     1     -16.776  46.696 -11.827  0.00  0.00    +0.000 C 
ATOM      5  C   UNL     1     -17.691  44.322 -11.497  0.00  0.00    +0.000 C 
ATOM      6  C   UNL     1     -17.810  47.161 -12.866  0.00  0.00    +0.000 C 
ATOM      7  C   UNL     1     -17.396  42.839 -11.747  0.00  0.00    +0.000 C 
ATOM      8  C   UNL     1     -17.453  46.950 -14.346  0.00  0.00    +0.000 C 
ATOM      9  C   UNL     1     -18.645  41.989 -12.037  0.00  0.00    +0.000 C 
ATOM     10  C   UNL     1     -17.703  45.558 -14.939  0.00  0.00    +0.000 C 
ATOM     11  C   UNL     1     -19.544  42.472 -13.188  0.00  0.00    +0.000 C 
ATOM     12  C   UNL     1     -19.173  45.124 -14.928  0.00  0.00    +0.000 C 
ATOM     13  C   UNL     1     -18.814  42.652 -14.524  0.00  0.00    +0.000 C 
ATOM     14  C   UNL     1     -20.142  43.351 -16.484  0.00  0.00    +0.000 C 
ENDROOT
BRANCH  14  16
ATOM     15  N   UNL     1     -20.684  45.989 -19.116  0.00  0.00    +0.000 NA
ATOM     16  C   UNL     1     -20.769  44.409 -17.288  0.00  0.00    +0.000 A 
ATOM     17  C   UNL     1     -20.133  45.011 -18.362  0.00  0.00    +0.000 A 
ATOM     18  C   UNL     1     -22.053  44.837 -16.968  0.00  0.00    +0.000 A 
ATOM     19  C   UNL     1     -22.653  45.841 -17.720  0.00  0.00    +0.000 A 
ATOM     20  C   UNL     1     -21.933  46.379 -18.774  0.00  0.00    +0.000 A 
BRANCH  17  22
ATOM     21  I   UNL     1     -17.287  45.711 -19.112  0.00  0.00    +0.000 I 
ATOM     22  N   UNL     1     -18.823  44.583 -18.693  0.00  0.00    +0.000 N 
ATOM     23  H   UNL     1     -18.681  43.578 -18.665  0.00  0.00    +0.000 HD
ENDBRANCH  17  22
ENDBRANCH  14  16
TORSDOF 2
ENDMDL
MODEL 3
REMARK VINA RESULT:    -5.713      3.005      7.145
REMARK INTER + INTRA:          -6.696
REMARK INTER:                  -6.408
REMARK INTRA:                  -0.288
REMARK UNBOUND:                -0.315
REMARK  Name = 138643423
REMARK  2 active torsions:
REMARK  status: ('A' for Active; 'I' for Inactive)
REMARK    1  A    between atoms: N_5  and  C_19
REMARK    2  A    between atoms: C_17  and  C_18
REMARK                            x       y       z     vdW  Elec       q    Type
REMARK                         _______ _______ _______ _____ _____    ______ ____
ROOT
ATOM      1  O   UNL     1     -19.602  42.562 -13.169  0.00  0.00    +0.000 OA
ATOM      2  N   UNL     1     -19.301  44.043 -14.960  0.00  0.00    +0.000 N 
ATOM      3  C   UNL     1     -20.568  46.532 -18.961  0.00  0.00    +0.000 C 
ATOM      4  C   UNL     1     -19.288  47.361 -19.101  0.00  0.00    +0.000 C 
ATOM      5  C   UNL     1     -20.330  45.019 -18.982  0.00  0.00    +0.000 C 
ATOM      6  C   UNL     1     -18.161  47.124 -18.081  0.00  0.00    +0.000 C 
ATOM      7  C   UNL     1     -21.565  44.240 -18.517  0.00  0.00    +0.000 C 
ATOM      8  C   UNL     1     -18.464  47.469 -16.615  0.00  0.00    +0.000 C 
ATOM      9  C   UNL     1     -21.259  42.820 -18.010  0.00  0.00    +0.000 C 
ATOM     10  C   UNL     1     -19.227  46.424 -15.790  0.00  0.00    +0.000 C 
ATOM     11  C   UNL     1     -20.207  42.709 -16.893  0.00  0.00    +0.000 C 
ATOM     12  C   UNL     1     -18.491  45.088 -15.631  0.00  0.00    +0.000 C 
ATOM     13  C   UNL     1     -20.510  43.563 -15.656  0.00  0.00    +0.000 C 
ATOM     14  C   UNL     1     -18.949  43.431 -13.748  0.00  0.00    +0.000 C 
ENDROOT
BRANCH  14  16
ATOM     15  N   UNL     1     -15.519  43.340 -12.198  0.00  0.00    +0.000 NA
ATOM     16  C   UNL     1     -17.709  43.854 -13.084  0.00  0.00    +0.000 A 
ATOM     17  C   UNL     1     -16.670  42.980 -12.810  0.00  0.00    +0.000 A 
ATOM     18  C   UNL     1     -17.557  45.184 -12.707  0.00  0.00    +0.000 A 
ATOM     19  C   UNL     1     -16.388  45.593 -12.075  0.00  0.00    +0.000 A 
ATOM     20  C   UNL     1     -15.409  44.641 -11.845  0.00  0.00    +0.000 A 
BRANCH  17  22
ATOM     21  I   UNL     1     -16.970  40.079 -12.004  0.00  0.00    +0.000 I 
ATOM     22  N   UNL     1     -16.816  41.622 -13.189  0.00  0.00    +0.000 N 
ATOM     23  H   UNL     1     -16.888  41.461 -14.188  0.00  0.00    +0.000 HD
ENDBRANCH  17  22
ENDBRANCH  14  16
TORSDOF 2
ENDMDL
MODEL 4
REMARK VINA RESULT:    -5.697     22.498     24.132
REMARK INTER + INTRA:          -6.679
REMARK INTER:                  -6.004
REMARK INTRA:                  -0.675
REMARK UNBOUND:                -0.315
REMARK  Name = 138643423
REMARK  2 active torsions:
REMARK  status: ('A' for Active; 'I' for Inactive)
REMARK    1  A    between atoms: N_5  and  C_19
REMARK    2  A    between atoms: C_17  and  C_18
REMARK                            x       y       z     vdW  Elec       q    Type
REMARK                         _______ _______ _______ _____ _____    ______ ____
ROOT
ATOM      1  O   UNL     1     -29.477  42.398   5.751  0.00  0.00    +0.000 OA
ATOM      2  N   UNL     1     -31.671  43.142   5.403  0.00  0.00    +0.000 N 
ATOM      3  C   UNL     1     -35.710  45.724   6.309  0.00  0.00    +0.000 C 
ATOM      4  C   UNL     1     -36.505  45.304   5.069  0.00  0.00    +0.000 C 
ATOM      5  C   UNL     1     -35.277  44.551   7.192  0.00  0.00    +0.000 C 
ATOM      6  C   UNL     1     -35.854  44.301   4.101  0.00  0.00    +0.000 C 
ATOM      7  C   UNL     1     -34.224  44.970   8.224  0.00  0.00    +0.000 C 
ATOM      8  C   UNL     1     -34.578  44.759   3.377  0.00  0.00    +0.000 C 
ATOM      9  C   UNL     1     -33.374  43.807   8.764  0.00  0.00    +0.000 C 
ATOM     10  C   UNL     1     -33.255  44.649   4.146  0.00  0.00    +0.000 C 
ATOM     11  C   UNL     1     -32.657  42.943   7.711  0.00  0.00    +0.000 C 
ATOM     12  C   UNL     1     -32.872  43.217   4.537  0.00  0.00    +0.000 C 
ATOM     13  C   UNL     1     -31.762  43.735   6.750  0.00  0.00    +0.000 C 
ATOM     14  C   UNL     1     -30.487  42.476   5.052  0.00  0.00    +0.000 C 
ENDROOT
BRANCH  14  16
ATOM     15  N   UNL     1     -29.729  41.829   1.421  0.00  0.00    +0.000 NA
ATOM     16  C   UNL     1     -30.415  41.821   3.740  0.00  0.00    +0.000 A 
ATOM     17  C   UNL     1     -29.808  42.407   2.641  0.00  0.00    +0.000 A 
ATOM     18  C   UNL     1     -30.976  40.559   3.577  0.00  0.00    +0.000 A 
ATOM     19  C   UNL     1     -30.915  39.931   2.338  0.00  0.00    +0.000 A 
ATOM     20  C   UNL     1     -30.287  40.603   1.302  0.00  0.00    +0.000 A 
BRANCH  17  22
ATOM     21  I   UNL     1     -29.922  45.381   2.096  0.00  0.00    +0.000 I 
ATOM     22  N   UNL     1     -29.235  43.694   2.798  0.00  0.00    +0.000 N 
ATOM     23  H   UNL     1     -28.401  43.725   3.374  0.00  0.00    +0.000 HD
ENDBRANCH  17  22
ENDBRANCH  14  16
TORSDOF 2
ENDMDL
MODEL 5
REMARK VINA RESULT:    -5.528     21.405     22.849
REMARK INTER + INTRA:          -6.490
REMARK INTER:                  -5.815
REMARK INTRA:                  -0.675
REMARK UNBOUND:                -0.315
REMARK  Name = 138643423
REMARK  2 active torsions:
REMARK  status: ('A' for Active; 'I' for Inactive)
REMARK    1  A    between atoms: N_5  and  C_19
REMARK    2  A    between atoms: C_17  and  C_18
REMARK                            x       y       z     vdW  Elec       q    Type
REMARK                         _______ _______ _______ _____ _____    ______ ____
ROOT
ATOM      1  O   UNL     1     -30.710  46.830   4.574  0.00  0.00    +0.000 OA
ATOM      2  N   UNL     1     -30.650  44.649   3.722  0.00  0.00    +0.000 N 
ATOM      3  C   UNL     1     -28.583  40.588   1.977  0.00  0.00    +0.000 C 
ATOM      4  C   UNL     1     -29.850  39.732   1.894  0.00  0.00    +0.000 C 
ATOM      5  C   UNL     1     -28.655  41.882   1.162  0.00  0.00    +0.000 C 
ATOM      6  C   UNL     1     -31.185  40.380   2.298  0.00  0.00    +0.000 C 
ATOM      7  C   UNL     1     -27.526  42.851   1.525  0.00  0.00    +0.000 C 
ATOM      8  C   UNL     1     -31.333  40.814   3.765  0.00  0.00    +0.000 C 
ATOM      9  C   UNL     1     -27.818  44.319   1.171  0.00  0.00    +0.000 C 
ATOM     10  C   UNL     1     -30.727  42.166   4.162  0.00  0.00    +0.000 C 
ATOM     11  C   UNL     1     -29.121  44.909   1.739  0.00  0.00    +0.000 C 
ATOM     12  C   UNL     1     -31.343  43.369   3.437  0.00  0.00    +0.000 C 
ATOM     13  C   UNL     1     -29.256  44.788   3.261  0.00  0.00    +0.000 C 
ATOM     14  C   UNL     1     -31.260  45.757   4.327  0.00  0.00    +0.000 C 
ENDROOT
BRANCH  14  16
ATOM     15  N   UNL     1     -34.356  45.263   6.413  0.00  0.00    +0.000 NA
ATOM     16  C   UNL     1     -32.671  45.651   4.723  0.00  0.00    +0.000 A 
ATOM     17  C   UNL     1     -33.066  45.369   6.021  0.00  0.00    +0.000 A 
ATOM     18  C   UNL     1     -33.663  45.836   3.766  0.00  0.00    +0.000 A 
ATOM     19  C   UNL     1     -35.001  45.733   4.131  0.00  0.00    +0.000 A 
ATOM     20  C   UNL     1     -35.292  45.448   5.455  0.00  0.00    +0.000 A 
BRANCH  17  22
ATOM     21  I   UNL     1     -31.555  43.497   7.855  0.00  0.00    +0.000 I 
ATOM     22  N   UNL     1     -32.061  45.177   7.002  0.00  0.00    +0.000 N 
ATOM     23  H   UNL     1     -31.534  46.010   7.244  0.00  0.00    +0.000 HD
ENDBRANCH  17  22
ENDBRANCH  14  16
TORSDOF 2
ENDMDL
