MODEL 1
REMARK VINA RESULT:    -7.157      0.000      0.000
REMARK INTER + INTRA:          -5.235
REMARK INTER:                  -7.575
REMARK INTRA:                   2.340
REMARK UNBOUND:                 2.340
REMARK  Name = 139494745
REMARK  4 active torsions:
REMARK  status: ('A' for Active; 'I' for Inactive)
REMARK    1  A    between atoms: N_2  and  C_6
REMARK    2  A    between atoms: C_6  and  C_7
REMARK    3  A    between atoms: C_6  and  C_8
REMARK    4  A    between atoms: C_6  and  C_9
REMARK                            x       y       z     vdW  Elec       q    Type
REMARK                         _______ _______ _______ _____ _____    ______ ____
ROOT
ATOM      1  O   UNL     1     -19.731  39.449 -10.958  0.00  0.00    +0.000 OA
ATOM      2  N   UNL     1     -18.005  41.034 -10.896  0.00  0.00    +0.000 N 
ATOM      3  N   UNL     1     -17.868  42.550  -9.073  0.00  0.00    +0.000 NA
ATOM      4  N   UNL     1     -16.271  42.697 -10.739  0.00  0.00    +0.000 N 
ATOM      5  N   UNL     1     -19.424  42.487  -7.347  0.00  0.00    +0.000 NA
ATOM      6  C   UNL     1     -19.150  40.383 -10.414  0.00  0.00    +0.000 A 
ATOM      7  C   UNL     1     -17.395  42.105 -10.207  0.00  0.00    +0.000 A 
ATOM      8  C   UNL     1     -19.666  40.902  -9.136  0.00  0.00    +0.000 A 
ATOM      9  C   UNL     1     -19.008  41.957  -8.522  0.00  0.00    +0.000 A 
ATOM     10  C   UNL     1     -20.796  40.361  -8.528  0.00  0.00    +0.000 A 
ATOM     11  C   UNL     1     -21.239  40.891  -7.323  0.00  0.00    +0.000 A 
ATOM     12  C   UNL     1     -20.524  41.944  -6.778  0.00  0.00    +0.000 A 
ATOM     13  H   UNL     1     -15.824  43.441 -10.213  0.00  0.00    +0.000 HD
ATOM     14  H   UNL     1     -15.900  42.574 -11.666  0.00  0.00    +0.000 HD
ENDROOT
BRANCH   2  15
ATOM     15  C   UNL     1     -17.442  40.567 -12.163  0.00  0.00    +0.000 C 
ATOM     16  C   UNL     1     -18.513  39.793 -12.939  0.00  0.00    +0.000 C 
ATOM     17  C   UNL     1     -16.979  41.776 -12.982  0.00  0.00    +0.000 C 
ATOM     18  C   UNL     1     -16.249  39.647 -11.877  0.00  0.00    +0.000 C 
ENDBRANCH   2  15
TORSDOF 1
ENDMDL
MODEL 2
REMARK VINA RESULT:    -6.806      1.742      2.577
REMARK INTER + INTRA:          -4.864
REMARK INTER:                  -7.239
REMARK INTRA:                   2.375
REMARK UNBOUND:                 2.340
REMARK  Name = 139494745
REMARK  4 active torsions:
REMARK  status: ('A' for Active; 'I' for Inactive)
REMARK    1  A    between atoms: N_2  and  C_6
REMARK    2  A    between atoms: C_6  and  C_7
REMARK    3  A    between atoms: C_6  and  C_8
REMARK    4  A    between atoms: C_6  and  C_9
REMARK                            x       y       z     vdW  Elec       q    Type
REMARK                         _______ _______ _______ _____ _____    ______ ____
ROOT
ATOM      1  O   UNL     1     -17.375  42.596  -9.381  0.00  0.00    +0.000 OA
ATOM      2  N   UNL     1     -18.229  40.866 -10.711  0.00  0.00    +0.000 N 
ATOM      3  N   UNL     1     -20.243  39.778 -10.072  0.00  0.00    +0.000 NA
ATOM      4  N   UNL     1     -19.189  39.079 -12.008  0.00  0.00    +0.000 N 
ATOM      5  N   UNL     1     -21.379  40.404  -8.144  0.00  0.00    +0.000 NA
ATOM      6  C   UNL     1     -18.223  41.740  -9.614  0.00  0.00    +0.000 A 
ATOM      7  C   UNL     1     -19.245  39.905 -10.908  0.00  0.00    +0.000 A 
ATOM      8  C   UNL     1     -19.354  41.579  -8.686  0.00  0.00    +0.000 A 
ATOM      9  C   UNL     1     -20.312  40.611  -8.951  0.00  0.00    +0.000 A 
ATOM     10  C   UNL     1     -19.489  42.373  -7.549  0.00  0.00    +0.000 A 
ATOM     11  C   UNL     1     -20.577  42.176  -6.708  0.00  0.00    +0.000 A 
ATOM     12  C   UNL     1     -21.486  41.189  -7.047  0.00  0.00    +0.000 A 
ATOM     13  H   UNL     1     -19.946  38.419 -12.155  0.00  0.00    +0.000 HD
ATOM     14  H   UNL     1     -18.411  38.951 -12.633  0.00  0.00    +0.000 HD
ENDROOT
BRANCH   2  15
ATOM     15  C   UNL     1     -17.131  40.974 -11.671  0.00  0.00    +0.000 C 
ATOM     16  C   UNL     1     -16.310  39.680 -11.649  0.00  0.00    +0.000 C 
ATOM     17  C   UNL     1     -17.710  41.198 -13.071  0.00  0.00    +0.000 C 
ATOM     18  C   UNL     1     -16.237  42.158 -11.284  0.00  0.00    +0.000 C 
ENDBRANCH   2  15
TORSDOF 1
ENDMDL
MODEL 3
REMARK VINA RESULT:    -6.602      3.146      5.584
REMARK INTER + INTRA:          -4.648
REMARK INTER:                  -6.960
REMARK INTRA:                   2.312
REMARK UNBOUND:                 2.340
REMARK  Name = 139494745
REMARK  4 active torsions:
REMARK  status: ('A' for Active; 'I' for Inactive)
REMARK    1  A    between atoms: N_2  and  C_6
REMARK    2  A    between atoms: C_6  and  C_7
REMARK    3  A    between atoms: C_6  and  C_8
REMARK    4  A    between atoms: C_6  and  C_9
REMARK                            x       y       z     vdW  Elec       q    Type
REMARK                         _______ _______ _______ _____ _____    ______ ____
ROOT
ATOM      1  O   UNL     1     -17.336  43.847 -11.236  0.00  0.00    +0.000 OA
ATOM      2  N   UNL     1     -18.592  41.951 -11.803  0.00  0.00    +0.000 N 
ATOM      3  N   UNL     1     -19.724  41.873 -13.890  0.00  0.00    +0.000 NA
ATOM      4  N   UNL     1     -19.906  40.050 -12.479  0.00  0.00    +0.000 N 
ATOM      5  N   UNL     1     -19.606  43.653 -15.380  0.00  0.00    +0.000 NA
ATOM      6  C   UNL     1     -18.057  43.230 -12.014  0.00  0.00    +0.000 A 
ATOM      7  C   UNL     1     -19.415  41.307 -12.752  0.00  0.00    +0.000 A 
ATOM      8  C   UNL     1     -18.418  43.848 -13.301  0.00  0.00    +0.000 A 
ATOM      9  C   UNL     1     -19.231  43.149 -14.180  0.00  0.00    +0.000 A 
ATOM     10  C   UNL     1     -17.964  45.116 -13.658  0.00  0.00    +0.000 A 
ATOM     11  C   UNL     1     -18.338  45.651 -14.884  0.00  0.00    +0.000 A 
ATOM     12  C   UNL     1     -19.152  44.886 -15.702  0.00  0.00    +0.000 A 
ATOM     13  H   UNL     1     -20.466  39.587 -13.187  0.00  0.00    +0.000 HD
ATOM     14  H   UNL     1     -19.891  39.571 -11.595  0.00  0.00    +0.000 HD
ENDROOT
BRANCH   2  15
ATOM     15  C   UNL     1     -18.272  41.282 -10.543  0.00  0.00    +0.000 C 
ATOM     16  C   UNL     1     -19.456  40.408 -10.117  0.00  0.00    +0.000 C 
ATOM     17  C   UNL     1     -17.027  40.410 -10.741  0.00  0.00    +0.000 C 
ATOM     18  C   UNL     1     -17.998  42.337  -9.465  0.00  0.00    +0.000 C 
ENDBRANCH   2  15
TORSDOF 1
ENDMDL
MODEL 4
REMARK VINA RESULT:    -6.323      3.317      4.854
REMARK INTER + INTRA:          -4.353
REMARK INTER:                  -6.714
REMARK INTRA:                   2.361
REMARK UNBOUND:                 2.340
REMARK  Name = 139494745
REMARK  4 active torsions:
REMARK  status: ('A' for Active; 'I' for Inactive)
REMARK    1  A    between atoms: N_2  and  C_6
REMARK    2  A    between atoms: C_6  and  C_7
REMARK    3  A    between atoms: C_6  and  C_8
REMARK    4  A    between atoms: C_6  and  C_9
REMARK                            x       y       z     vdW  Elec       q    Type
REMARK                         _______ _______ _______ _____ _____    ______ ____
ROOT
ATOM      1  O   UNL     1     -17.369  43.924 -11.098  0.00  0.00    +0.000 OA
ATOM      2  N   UNL     1     -18.242  43.868 -13.273  0.00  0.00    +0.000 N 
ATOM      3  N   UNL     1     -19.268  41.881 -14.075  0.00  0.00    +0.000 NA
ATOM      4  N   UNL     1     -19.169  43.708 -15.489  0.00  0.00    +0.000 N 
ATOM      5  N   UNL     1     -19.417  39.988 -12.733  0.00  0.00    +0.000 NA
ATOM      6  C   UNL     1     -17.938  43.334 -12.012  0.00  0.00    +0.000 A 
ATOM      7  C   UNL     1     -18.901  43.120 -14.273  0.00  0.00    +0.000 A 
ATOM      8  C   UNL     1     -18.359  41.938 -11.811  0.00  0.00    +0.000 A 
ATOM      9  C   UNL     1     -19.003  41.273 -12.844  0.00  0.00    +0.000 A 
ATOM     10  C   UNL     1     -18.128  41.267 -10.612  0.00  0.00    +0.000 A 
ATOM     11  C   UNL     1     -18.546  39.950 -10.479  0.00  0.00    +0.000 A 
ATOM     12  C   UNL     1     -19.181  39.360 -11.558  0.00  0.00    +0.000 A 
ATOM     13  H   UNL     1     -19.677  43.168 -16.183  0.00  0.00    +0.000 HD
ATOM     14  H   UNL     1     -18.806  44.579 -15.836  0.00  0.00    +0.000 HD
ENDROOT
BRANCH   2  15
ATOM     15  C   UNL     1     -17.849  45.251 -13.537  0.00  0.00    +0.000 C 
ATOM     16  C   UNL     1     -18.629  45.778 -14.746  0.00  0.00    +0.000 C 
ATOM     17  C   UNL     1     -18.163  46.105 -12.304  0.00  0.00    +0.000 C 
ATOM     18  C   UNL     1     -16.346  45.303 -13.833  0.00  0.00    +0.000 C 
ENDBRANCH   2  15
TORSDOF 1
ENDMDL
MODEL 5
REMARK VINA RESULT:    -6.033      2.603      4.962
REMARK INTER + INTRA:          -4.045
REMARK INTER:                  -6.404
REMARK INTRA:                   2.359
REMARK UNBOUND:                 2.340
REMARK  Name = 139494745
REMARK  4 active torsions:
REMARK  status: ('A' for Active; 'I' for Inactive)
REMARK    1  A    between atoms: N_2  and  C_6
REMARK    2  A    between atoms: C_6  and  C_7
REMARK    3  A    between atoms: C_6  and  C_8
REMARK    4  A    between atoms: C_6  and  C_9
REMARK                            x       y       z     vdW  Elec       q    Type
REMARK                         _______ _______ _______ _____ _____    ______ ____
ROOT
ATOM      1  O   UNL     1     -19.671  40.813 -13.218  0.00  0.00    +0.000 OA
ATOM      2  N   UNL     1     -17.784  41.584 -12.061  0.00  0.00    +0.000 N 
ATOM      3  N   UNL     1     -16.842  43.691 -12.624  0.00  0.00    +0.000 NA
ATOM      4  N   UNL     1     -15.849  42.466 -10.933  0.00  0.00    +0.000 N 
ATOM      5  N   UNL     1     -17.764  45.000 -14.310  0.00  0.00    +0.000 NA
ATOM      6  C   UNL     1     -18.808  41.661 -13.017  0.00  0.00    +0.000 A 
ATOM      7  C   UNL     1     -16.826  42.608 -11.893  0.00  0.00    +0.000 A 
ATOM      8  C   UNL     1     -18.806  42.889 -13.830  0.00  0.00    +0.000 A 
ATOM      9  C   UNL     1     -17.830  43.848 -13.602  0.00  0.00    +0.000 A 
ATOM     10  C   UNL     1     -19.759  43.113 -14.821  0.00  0.00    +0.000 A 
ATOM     11  C   UNL     1     -19.708  44.289 -15.558  0.00  0.00    +0.000 A 
ATOM     12  C   UNL     1     -18.701  45.193 -15.266  0.00  0.00    +0.000 A 
ATOM     13  H   UNL     1     -15.190  43.227 -10.801  0.00  0.00    +0.000 HD
ATOM     14  H   UNL     1     -15.616  41.633 -10.422  0.00  0.00    +0.000 HD
ENDROOT
BRANCH   2  15
ATOM     15  C   UNL     1     -17.730  40.389 -11.221  0.00  0.00    +0.000 C 
ATOM     16  C   UNL     1     -16.358  39.723 -11.375  0.00  0.00    +0.000 C 
ATOM     17  C   UNL     1     -17.950  40.792  -9.760  0.00  0.00    +0.000 C 
ATOM     18  C   UNL     1     -18.827  39.412 -11.660  0.00  0.00    +0.000 C 
ENDBRANCH   2  15
TORSDOF 1
ENDMDL
