MODEL 1
REMARK VINA RESULT:    -6.143      0.000      0.000
REMARK INTER + INTRA:          -3.946
REMARK INTER:                  -6.502
REMARK INTRA:                   2.556
REMARK UNBOUND:                 2.556
REMARK  Name = 139494866
REMARK  4 active torsions:
REMARK  status: ('A' for Active; 'I' for Inactive)
REMARK    1  A    between atoms: N_2  and  C_6
REMARK    2  A    between atoms: C_6  and  C_7
REMARK    3  A    between atoms: C_6  and  C_8
REMARK    4  A    between atoms: C_6  and  C_9
REMARK                            x       y       z     vdW  Elec       q    Type
REMARK                         _______ _______ _______ _____ _____    ______ ____
ROOT
ATOM      1  O   UNL     1     -18.522  44.634 -14.642  0.00  0.00    +0.000 OA
ATOM      2  N   UNL     1     -18.065  41.432 -12.262  0.00  0.00    +0.000 N 
ATOM      3  N   UNL     1     -19.438  42.761 -13.709  0.00  0.00    +0.000 NA
ATOM      4  N   UNL     1     -15.908  42.256 -11.509  0.00  0.00    +0.000 NA
ATOM      5  N   UNL     1     -20.281  40.819 -12.787  0.00  0.00    +0.000 N 
ATOM      6  C   UNL     1     -17.032  42.406 -12.259  0.00  0.00    +0.000 A 
ATOM      7  C   UNL     1     -19.246  41.713 -12.945  0.00  0.00    +0.000 A 
ATOM      8  C   UNL     1     -17.201  43.538 -13.060  0.00  0.00    +0.000 A 
ATOM      9  C   UNL     1     -18.433  43.686 -13.869  0.00  0.00    +0.000 A 
ATOM     10  C   UNL     1     -16.207  44.520 -13.100  0.00  0.00    +0.000 A 
ATOM     11  C   UNL     1     -14.961  43.222 -11.562  0.00  0.00    +0.000 A 
ATOM     12  C   UNL     1     -15.061  44.361 -12.335  0.00  0.00    +0.000 A 
ATOM     13  H   UNL     1     -21.168  41.019 -13.240  0.00  0.00    +0.000 HD
ATOM     14  H   UNL     1     -20.215  39.891 -12.405  0.00  0.00    +0.000 HD
ENDROOT
BRANCH   2  15
ATOM     15  C   UNL     1     -17.819  40.253 -11.434  0.00  0.00    +0.000 C 
ATOM     16  C   UNL     1     -18.923  39.226 -11.701  0.00  0.00    +0.000 C 
ATOM     17  C   UNL     1     -16.453  39.674 -11.806  0.00  0.00    +0.000 C 
ATOM     18  C   UNL     1     -17.837  40.673  -9.962  0.00  0.00    +0.000 C 
ENDBRANCH   2  15
TORSDOF 1
ENDMDL
MODEL 2
REMARK VINA RESULT:    -5.569      1.422      3.395
REMARK INTER + INTRA:          -3.339
REMARK INTER:                  -5.887
REMARK INTRA:                   2.548
REMARK UNBOUND:                 2.556
REMARK  Name = 139494866
REMARK  4 active torsions:
REMARK  status: ('A' for Active; 'I' for Inactive)
REMARK    1  A    between atoms: N_2  and  C_6
REMARK    2  A    between atoms: C_6  and  C_7
REMARK    3  A    between atoms: C_6  and  C_8
REMARK    4  A    between atoms: C_6  and  C_9
REMARK                            x       y       z     vdW  Elec       q    Type
REMARK                         _______ _______ _______ _____ _____    ______ ____
ROOT
ATOM      1  O   UNL     1     -16.152  45.720 -12.951  0.00  0.00    +0.000 OA
ATOM      2  N   UNL     1     -17.505  41.991 -12.323  0.00  0.00    +0.000 N 
ATOM      3  N   UNL     1     -15.854  43.688 -11.949  0.00  0.00    +0.000 NA
ATOM      4  N   UNL     1     -19.223  42.292 -14.013  0.00  0.00    +0.000 NA
ATOM      5  N   UNL     1     -15.649  41.635 -10.912  0.00  0.00    +0.000 N 
ATOM      6  C   UNL     1     -18.156  42.767 -13.317  0.00  0.00    +0.000 A 
ATOM      7  C   UNL     1     -16.338  42.486 -11.746  0.00  0.00    +0.000 A 
ATOM      8  C   UNL     1     -17.669  44.054 -13.562  0.00  0.00    +0.000 A 
ATOM      9  C   UNL     1     -16.505  44.555 -12.795  0.00  0.00    +0.000 A 
ATOM     10  C   UNL     1     -18.284  44.862 -14.522  0.00  0.00    +0.000 A 
ATOM     11  C   UNL     1     -19.799  43.092 -14.940  0.00  0.00    +0.000 A 
ATOM     12  C   UNL     1     -19.373  44.373 -15.229  0.00  0.00    +0.000 A 
ATOM     13  H   UNL     1     -14.773  41.954 -10.509  0.00  0.00    +0.000 HD
ATOM     14  H   UNL     1     -15.996  40.779 -10.514  0.00  0.00    +0.000 HD
ENDROOT
BRANCH   2  15
ATOM     15  C   UNL     1     -18.078  40.668 -12.083  0.00  0.00    +0.000 C 
ATOM     16  C   UNL     1     -17.617  40.173 -10.709  0.00  0.00    +0.000 C 
ATOM     17  C   UNL     1     -19.603  40.786 -12.120  0.00  0.00    +0.000 C 
ATOM     18  C   UNL     1     -17.591  39.715 -13.177  0.00  0.00    +0.000 C 
ENDBRANCH   2  15
TORSDOF 1
ENDMDL
MODEL 3
REMARK VINA RESULT:    -5.215      2.051      3.154
REMARK INTER + INTRA:          -2.964
REMARK INTER:                  -5.507
REMARK INTRA:                   2.544
REMARK UNBOUND:                 2.556
REMARK  Name = 139494866
REMARK  4 active torsions:
REMARK  status: ('A' for Active; 'I' for Inactive)
REMARK    1  A    between atoms: N_2  and  C_6
REMARK    2  A    between atoms: C_6  and  C_7
REMARK    3  A    between atoms: C_6  and  C_8
REMARK    4  A    between atoms: C_6  and  C_9
REMARK                            x       y       z     vdW  Elec       q    Type
REMARK                         _______ _______ _______ _____ _____    ______ ____
ROOT
ATOM      1  O   UNL     1     -20.370  44.130 -16.501  0.00  0.00    +0.000 OA
ATOM      2  N   UNL     1     -17.984  43.144 -13.424  0.00  0.00    +0.000 N 
ATOM      3  N   UNL     1     -19.785  42.598 -14.908  0.00  0.00    +0.000 NA
ATOM      4  N   UNL     1     -17.075  45.395 -13.363  0.00  0.00    +0.000 NA
ATOM      5  N   UNL     1     -19.099  41.068 -13.322  0.00  0.00    +0.000 N 
ATOM      6  C   UNL     1     -17.927  44.481 -13.898  0.00  0.00    +0.000 A 
ATOM      7  C   UNL     1     -18.973  42.299 -13.924  0.00  0.00    +0.000 A 
ATOM      8  C   UNL     1     -18.779  44.838 -14.947  0.00  0.00    +0.000 A 
ATOM      9  C   UNL     1     -19.702  43.829 -15.517  0.00  0.00    +0.000 A 
ATOM     10  C   UNL     1     -18.751  46.140 -15.456  0.00  0.00    +0.000 A 
ATOM     11  C   UNL     1     -17.070  46.650 -13.871  0.00  0.00    +0.000 A 
ATOM     12  C   UNL     1     -17.879  47.068 -14.907  0.00  0.00    +0.000 A 
ATOM     13  H   UNL     1     -19.838  40.447 -13.637  0.00  0.00    +0.000 HD
ATOM     14  H   UNL     1     -18.432  40.634 -12.707  0.00  0.00    +0.000 HD
ENDROOT
BRANCH   2  15
ATOM     15  C   UNL     1     -17.047  42.817 -12.352  0.00  0.00    +0.000 C 
ATOM     16  C   UNL     1     -17.569  43.414 -11.042  0.00  0.00    +0.000 C 
ATOM     17  C   UNL     1     -16.950  41.294 -12.239  0.00  0.00    +0.000 C 
ATOM     18  C   UNL     1     -15.679  43.413 -12.694  0.00  0.00    +0.000 C 
ENDBRANCH   2  15
TORSDOF 1
ENDMDL
MODEL 4
REMARK VINA RESULT:    -4.942     13.588     14.929
REMARK INTER + INTRA:          -2.675
REMARK INTER:                  -5.327
REMARK INTRA:                   2.653
REMARK UNBOUND:                 2.556
REMARK  Name = 139494866
REMARK  4 active torsions:
REMARK  status: ('A' for Active; 'I' for Inactive)
REMARK    1  A    between atoms: N_2  and  C_6
REMARK    2  A    between atoms: C_6  and  C_7
REMARK    3  A    between atoms: C_6  and  C_8
REMARK    4  A    between atoms: C_6  and  C_9
REMARK                            x       y       z     vdW  Elec       q    Type
REMARK                         _______ _______ _______ _____ _____    ______ ____
ROOT
ATOM      1  O   UNL     1     -30.873  45.794 -12.776  0.00  0.00    +0.000 OA
ATOM      2  N   UNL     1     -30.946  43.954 -16.344  0.00  0.00    +0.000 N 
ATOM      3  N   UNL     1     -30.118  45.703 -14.931  0.00  0.00    +0.000 NA
ATOM      4  N   UNL     1     -32.808  42.568 -15.631  0.00  0.00    +0.000 NA
ATOM      5  N   UNL     1     -29.345  45.513 -17.098  0.00  0.00    +0.000 N 
ATOM      6  C   UNL     1     -31.910  43.557 -15.381  0.00  0.00    +0.000 A 
ATOM      7  C   UNL     1     -30.148  45.063 -16.075  0.00  0.00    +0.000 A 
ATOM      8  C   UNL     1     -31.910  44.217 -14.149  0.00  0.00    +0.000 A 
ATOM      9  C   UNL     1     -30.925  45.295 -13.895  0.00  0.00    +0.000 A 
ATOM     10  C   UNL     1     -32.832  43.855 -13.163  0.00  0.00    +0.000 A 
ATOM     11  C   UNL     1     -33.693  42.238 -14.661  0.00  0.00    +0.000 A 
ATOM     12  C   UNL     1     -33.745  42.844 -13.422  0.00  0.00    +0.000 A 
ATOM     13  H   UNL     1     -28.783  46.344 -16.944  0.00  0.00    +0.000 HD
ATOM     14  H   UNL     1     -29.118  45.014 -17.941  0.00  0.00    +0.000 HD
ENDROOT
BRANCH   2  15
ATOM     15  C   UNL     1     -30.968  43.206 -17.600  0.00  0.00    +0.000 C 
ATOM     16  C   UNL     1     -29.998  43.865 -18.583  0.00  0.00    +0.000 C 
ATOM     17  C   UNL     1     -30.539  41.765 -17.315  0.00  0.00    +0.000 C 
ATOM     18  C   UNL     1     -32.391  43.235 -18.165  0.00  0.00    +0.000 C 
ENDBRANCH   2  15
TORSDOF 1
ENDMDL
MODEL 5
REMARK VINA RESULT:    -4.784      3.476      5.683
REMARK INTER + INTRA:          -2.507
REMARK INTER:                  -5.063
REMARK INTRA:                   2.556
REMARK UNBOUND:                 2.556
REMARK  Name = 139494866
REMARK  4 active torsions:
REMARK  status: ('A' for Active; 'I' for Inactive)
REMARK    1  A    between atoms: N_2  and  C_6
REMARK    2  A    between atoms: C_6  and  C_7
REMARK    3  A    between atoms: C_6  and  C_8
REMARK    4  A    between atoms: C_6  and  C_9
REMARK                            x       y       z     vdW  Elec       q    Type
REMARK                         _______ _______ _______ _____ _____    ______ ____
ROOT
ATOM      1  O   UNL     1     -17.545  46.806 -14.265  0.00  0.00    +0.000 OA
ATOM      2  N   UNL     1     -20.192  44.688 -16.419  0.00  0.00    +0.000 N 
ATOM      3  N   UNL     1     -19.151  46.782 -15.891  0.00  0.00    +0.000 NA
ATOM      4  N   UNL     1     -19.833  42.742 -15.011  0.00  0.00    +0.000 NA
ATOM      5  N   UNL     1     -20.731  46.674 -17.571  0.00  0.00    +0.000 N 
ATOM      6  C   UNL     1     -19.574  44.041 -15.316  0.00  0.00    +0.000 A 
ATOM      7  C   UNL     1     -19.987  46.055 -16.593  0.00  0.00    +0.000 A 
ATOM      8  C   UNL     1     -18.677  44.784 -14.544  0.00  0.00    +0.000 A 
ATOM      9  C   UNL     1     -18.408  46.199 -14.891  0.00  0.00    +0.000 A 
ATOM     10  C   UNL     1     -18.034  44.188 -13.455  0.00  0.00    +0.000 A 
ATOM     11  C   UNL     1     -19.201  42.189 -13.950  0.00  0.00    +0.000 A 
ATOM     12  C   UNL     1     -18.301  42.862 -13.149  0.00  0.00    +0.000 A 
ATOM     13  H   UNL     1     -20.633  47.677 -17.693  0.00  0.00    +0.000 HD
ATOM     14  H   UNL     1     -21.250  46.220 -18.303  0.00  0.00    +0.000 HD
ENDROOT
BRANCH   2  15
ATOM     15  C   UNL     1     -21.092  43.855 -17.213  0.00  0.00    +0.000 C 
ATOM     16  C   UNL     1     -21.255  44.485 -18.598  0.00  0.00    +0.000 C 
ATOM     17  C   UNL     1     -20.481  42.457 -17.334  0.00  0.00    +0.000 C 
ATOM     18  C   UNL     1     -22.448  43.783 -16.505  0.00  0.00    +0.000 C 
ENDBRANCH   2  15
TORSDOF 1
ENDMDL
