MODEL 1
REMARK VINA RESULT:    -5.306      0.000      0.000
REMARK INTER + INTRA:          -6.060
REMARK INTER:                  -5.926
REMARK INTRA:                  -0.134
REMARK UNBOUND:                -0.134
REMARK  Name = 139520423
REMARK  2 active torsions:
REMARK  status: ('A' for Active; 'I' for Inactive)
REMARK    1  A    between atoms: N_3  and  C_6
REMARK    2  A    between atoms: C_5  and  C_10
REMARK                            x       y       z     vdW  Elec       q    Type
REMARK                         _______ _______ _______ _____ _____    ______ ____
ROOT
ATOM      1  N   UNL     1     -18.520  42.203  -8.515  0.00  0.00    +0.000 NA
ATOM      2  C   UNL     1     -19.209  40.452 -10.031  0.00  0.00    +0.000 A 
ATOM      3  C   UNL     1     -18.396  41.514  -9.671  0.00  0.00    +0.000 A 
ATOM      4  C   UNL     1     -20.213  40.071  -9.148  0.00  0.00    +0.000 A 
ATOM      5  C   UNL     1     -20.373  40.755  -7.949  0.00  0.00    +0.000 A 
ATOM      6  C   UNL     1     -19.508  41.804  -7.681  0.00  0.00    +0.000 A 
ENDROOT
BRANCH   3   7
ATOM      7  N   UNL     1     -17.365  41.947 -10.512  0.00  0.00    +0.000 NA
ATOM      8  N   UNL     1     -16.588  43.812 -11.777  0.00  0.00    +0.000 N 
ATOM      9  C   UNL     1     -17.460  43.164 -10.951  0.00  0.00    +0.000 C 
ATOM     10  H   UNL     1     -16.748  44.769 -12.072  0.00  0.00    +0.000 HD
ATOM     11  H   UNL     1     -15.753  43.353 -12.122  0.00  0.00    +0.000 HD
ENDBRANCH   3   7
BRANCH   2  13
ATOM     12  O   UNL     1     -19.479  38.597 -11.477  0.00  0.00    +0.000 OA
ATOM     13  C   UNL     1     -19.038  39.734 -11.286  0.00  0.00    +0.000 C 
ENDBRANCH   2  13
TORSDOF 2
ENDMDL
MODEL 2
REMARK VINA RESULT:    -4.869      2.798      3.754
REMARK INTER + INTRA:          -5.572
REMARK INTER:                  -5.434
REMARK INTRA:                  -0.138
REMARK UNBOUND:                -0.134
REMARK  Name = 139520423
REMARK  2 active torsions:
REMARK  status: ('A' for Active; 'I' for Inactive)
REMARK    1  A    between atoms: N_3  and  C_6
REMARK    2  A    between atoms: C_5  and  C_10
REMARK                            x       y       z     vdW  Elec       q    Type
REMARK                         _______ _______ _______ _____ _____    ______ ____
ROOT
ATOM      1  N   UNL     1     -18.361  43.454 -12.685  0.00  0.00    +0.000 NA
ATOM      2  C   UNL     1     -18.687  41.208 -11.854  0.00  0.00    +0.000 A 
ATOM      3  C   UNL     1     -18.840  42.196 -12.813  0.00  0.00    +0.000 A 
ATOM      4  C   UNL     1     -17.997  41.529 -10.691  0.00  0.00    +0.000 A 
ATOM      5  C   UNL     1     -17.489  42.813 -10.522  0.00  0.00    +0.000 A 
ATOM      6  C   UNL     1     -17.696  43.730 -11.540  0.00  0.00    +0.000 A 
ENDROOT
BRANCH   3   7
ATOM      7  N   UNL     1     -19.521  41.939 -14.007  0.00  0.00    +0.000 NA
ATOM      8  N   UNL     1     -20.505  42.987 -15.908  0.00  0.00    +0.000 N 
ATOM      9  C   UNL     1     -19.843  42.977 -14.716  0.00  0.00    +0.000 C 
ATOM     10  H   UNL     1     -20.718  43.854 -16.391  0.00  0.00    +0.000 HD
ATOM     11  H   UNL     1     -20.805  42.125 -16.349  0.00  0.00    +0.000 HD
ENDBRANCH   3   7
BRANCH   2  13
ATOM     12  O   UNL     1     -19.057  38.961 -11.207  0.00  0.00    +0.000 OA
ATOM     13  C   UNL     1     -19.216  39.864 -12.034  0.00  0.00    +0.000 C 
ENDBRANCH   2  13
TORSDOF 2
ENDMDL
MODEL 3
REMARK VINA RESULT:    -4.799      1.836      3.870
REMARK INTER + INTRA:          -5.494
REMARK INTER:                  -5.386
REMARK INTRA:                  -0.108
REMARK UNBOUND:                -0.134
REMARK  Name = 139520423
REMARK  2 active torsions:
REMARK  status: ('A' for Active; 'I' for Inactive)
REMARK    1  A    between atoms: N_3  and  C_6
REMARK    2  A    between atoms: C_5  and  C_10
REMARK                            x       y       z     vdW  Elec       q    Type
REMARK                         _______ _______ _______ _____ _____    ______ ____
ROOT
ATOM      1  N   UNL     1     -17.825  42.552 -10.330  0.00  0.00    +0.000 NA
ATOM      2  C   UNL     1     -17.863  41.111 -12.270  0.00  0.00    +0.000 A 
ATOM      3  C   UNL     1     -18.100  41.373 -10.930  0.00  0.00    +0.000 A 
ATOM      4  C   UNL     1     -17.311  42.125 -13.044  0.00  0.00    +0.000 A 
ATOM      5  C   UNL     1     -17.014  43.353 -12.463  0.00  0.00    +0.000 A 
ATOM      6  C   UNL     1     -17.288  43.515 -11.114  0.00  0.00    +0.000 A 
ENDROOT
BRANCH   3   7
ATOM      7  N   UNL     1     -18.656  40.398 -10.095  0.00  0.00    +0.000 NA
ATOM      8  N   UNL     1     -20.652  39.776  -8.951  0.00  0.00    +0.000 N 
ATOM      9  C   UNL     1     -19.893  40.579  -9.751  0.00  0.00    +0.000 C 
ATOM     10  H   UNL     1     -21.617  40.003  -8.732  0.00  0.00    +0.000 HD
ATOM     11  H   UNL     1     -20.272  38.926  -8.550  0.00  0.00    +0.000 HD
ENDBRANCH   3   7
BRANCH   2  13
ATOM     12  O   UNL     1     -19.327  39.482 -13.166  0.00  0.00    +0.000 OA
ATOM     13  C   UNL     1     -18.178  39.826 -12.877  0.00  0.00    +0.000 C 
ENDBRANCH   2  13
TORSDOF 2
ENDMDL
MODEL 4
REMARK VINA RESULT:    -4.606      3.220      4.899
REMARK INTER + INTRA:          -5.278
REMARK INTER:                  -5.204
REMARK INTRA:                  -0.074
REMARK UNBOUND:                -0.134
REMARK  Name = 139520423
REMARK  2 active torsions:
REMARK  status: ('A' for Active; 'I' for Inactive)
REMARK    1  A    between atoms: N_3  and  C_6
REMARK    2  A    between atoms: C_5  and  C_10
REMARK                            x       y       z     vdW  Elec       q    Type
REMARK                         _______ _______ _______ _____ _____    ______ ____
ROOT
ATOM      1  N   UNL     1     -17.999  42.513 -11.669  0.00  0.00    +0.000 NA
ATOM      2  C   UNL     1     -18.877  43.344 -13.761  0.00  0.00    +0.000 A 
ATOM      3  C   UNL     1     -18.635  42.331 -12.848  0.00  0.00    +0.000 A 
ATOM      4  C   UNL     1     -18.439  44.625 -13.445  0.00  0.00    +0.000 A 
ATOM      5  C   UNL     1     -17.781  44.852 -12.242  0.00  0.00    +0.000 A 
ATOM      6  C   UNL     1     -17.588  43.771 -11.395  0.00  0.00    +0.000 A 
ENDROOT
BRANCH   3   7
ATOM      7  N   UNL     1     -19.051  41.020 -13.102  0.00  0.00    +0.000 NA
ATOM      8  N   UNL     1     -19.759  39.002 -12.049  0.00  0.00    +0.000 N 
ATOM      9  C   UNL     1     -19.335  40.299 -12.062  0.00  0.00    +0.000 C 
ATOM     10  H   UNL     1     -19.954  38.516 -11.180  0.00  0.00    +0.000 HD
ATOM     11  H   UNL     1     -19.890  38.485 -12.911  0.00  0.00    +0.000 HD
ENDBRANCH   3   7
BRANCH   2  13
ATOM     12  O   UNL     1     -20.772  42.835 -15.085  0.00  0.00    +0.000 OA
ATOM     13  C   UNL     1     -19.570  43.105 -15.019  0.00  0.00    +0.000 C 
ENDBRANCH   2  13
TORSDOF 2
ENDMDL
MODEL 5
REMARK VINA RESULT:    -4.572      3.206      4.141
REMARK INTER + INTRA:          -5.240
REMARK INTER:                  -5.092
REMARK INTRA:                  -0.148
REMARK UNBOUND:                -0.134
REMARK  Name = 139520423
REMARK  2 active torsions:
REMARK  status: ('A' for Active; 'I' for Inactive)
REMARK    1  A    between atoms: N_3  and  C_6
REMARK    2  A    between atoms: C_5  and  C_10
REMARK                            x       y       z     vdW  Elec       q    Type
REMARK                         _______ _______ _______ _____ _____    ______ ____
ROOT
ATOM      1  N   UNL     1     -19.140  40.451 -13.203  0.00  0.00    +0.000 NA
ATOM      2  C   UNL     1     -18.135  41.937 -11.584  0.00  0.00    +0.000 A 
ATOM      3  C   UNL     1     -18.609  41.643 -12.852  0.00  0.00    +0.000 A 
ATOM      4  C   UNL     1     -18.210  40.944 -10.614  0.00  0.00    +0.000 A 
ATOM      5  C   UNL     1     -18.750  39.704 -10.937  0.00  0.00    +0.000 A 
ATOM      6  C   UNL     1     -19.197  39.510 -12.234  0.00  0.00    +0.000 A 
ENDROOT
BRANCH   3   7
ATOM      7  N   UNL     1     -18.565  42.597 -13.874  0.00  0.00    +0.000 NA
ATOM      8  N   UNL     1     -19.930  43.912 -15.320  0.00  0.00    +0.000 N 
ATOM      9  C   UNL     1     -19.711  42.997 -14.332  0.00  0.00    +0.000 C 
ATOM     10  H   UNL     1     -20.868  44.161 -15.616  0.00  0.00    +0.000 HD
ATOM     11  H   UNL     1     -19.158  44.373 -15.788  0.00  0.00    +0.000 HD
ENDBRANCH   3   7
BRANCH   2  13
ATOM     12  O   UNL     1     -16.376  43.506 -11.371  0.00  0.00    +0.000 OA
ATOM     13  C   UNL     1     -17.574  43.237 -11.247  0.00  0.00    +0.000 C 
ENDBRANCH   2  13
TORSDOF 2
ENDMDL
