MODEL 1
REMARK VINA RESULT:    -7.869      0.000      0.000
REMARK INTER + INTRA:          -7.869
REMARK INTER:                  -7.869
REMARK INTRA:                   0.000
REMARK UNBOUND:                 0.000
REMARK  Name = 139729466
REMARK  1 active torsions:
REMARK  status: ('A' for Active; 'I' for Inactive)
REMARK    1  A    between atoms: C_10  and  C_15
REMARK                            x       y       z     vdW  Elec       q    Type
REMARK                         _______ _______ _______ _____ _____    ______ ____
ROOT
ATOM      1  O   UNL     1     -18.972  38.980 -11.283  0.00  0.00    +0.000 OA
ATOM      2  N   UNL     1     -17.640  42.355 -10.017  0.00  0.00    +0.000 NA
ATOM      3  N   UNL     1     -16.544  43.175 -11.827  0.00  0.00    +0.000 NA
ATOM      4  N   UNL     1     -19.480  41.067 -12.116  0.00  0.00    +0.000 NA
ATOM      5  N   UNL     1     -18.856  42.257  -8.054  0.00  0.00    +0.000 NA
ATOM      6  C   UNL     1     -18.776  42.148 -12.213  0.00  0.00    +0.000 A 
ATOM      7  C   UNL     1     -17.641  42.531 -11.300  0.00  0.00    +0.000 A 
ATOM      8  C   UNL     1     -19.417  40.670  -9.753  0.00  0.00    +0.000 A 
ATOM      9  C   UNL     1     -18.688  41.762  -9.303  0.00  0.00    +0.000 A 
ATOM     10  C   UNL     1     -16.735  43.848 -12.919  0.00  0.00    +0.000 A 
ATOM     11  C   UNL     1     -19.014  43.112 -13.308  0.00  0.00    +0.000 A 
ATOM     12  C   UNL     1     -18.034  43.957 -13.635  0.00  0.00    +0.000 A 
ATOM     13  C   UNL     1     -19.234  40.166 -11.116  0.00  0.00    +0.000 A 
ATOM     14  C   UNL     1     -20.341  40.055  -8.910  0.00  0.00    +0.000 A 
ATOM     15  C   UNL     1     -15.560  44.584 -13.509  0.00  0.00    +0.000 C 
ATOM     16  C   UNL     1     -20.526  40.560  -7.632  0.00  0.00    +0.000 A 
ATOM     17  C   UNL     1     -19.769  41.655  -7.256  0.00  0.00    +0.000 A 
ENDROOT
TORSDOF 0
ENDMDL
MODEL 2
REMARK VINA RESULT:    -6.190      2.842      3.488
REMARK INTER + INTRA:          -6.190
REMARK INTER:                  -6.190
REMARK INTRA:                   0.000
REMARK UNBOUND:                 0.000
REMARK  Name = 139729466
REMARK  1 active torsions:
REMARK  status: ('A' for Active; 'I' for Inactive)
REMARK    1  A    between atoms: C_10  and  C_15
REMARK                            x       y       z     vdW  Elec       q    Type
REMARK                         _______ _______ _______ _____ _____    ______ ____
ROOT
ATOM      1  O   UNL     1     -19.606  42.350 -14.835  0.00  0.00    +0.000 OA
ATOM      2  N   UNL     1     -16.407  42.725 -12.739  0.00  0.00    +0.000 NA
ATOM      3  N   UNL     1     -15.719  44.828 -13.243  0.00  0.00    +0.000 NA
ATOM      4  N   UNL     1     -19.220  43.889 -13.165  0.00  0.00    +0.000 NA
ATOM      5  N   UNL     1     -16.772  40.761 -11.576  0.00  0.00    +0.000 NA
ATOM      6  C   UNL     1     -18.142  44.498 -12.790  0.00  0.00    +0.000 A 
ATOM      7  C   UNL     1     -16.743  43.959 -12.939  0.00  0.00    +0.000 A 
ATOM      8  C   UNL     1     -18.590  41.593 -12.888  0.00  0.00    +0.000 A 
ATOM      9  C   UNL     1     -17.305  41.713 -12.378  0.00  0.00    +0.000 A 
ATOM     10  C   UNL     1     -15.888  46.067 -12.902  0.00  0.00    +0.000 A 
ATOM     11  C   UNL     1     -18.202  45.853 -12.202  0.00  0.00    +0.000 A 
ATOM     12  C   UNL     1     -17.101  46.607 -12.231  0.00  0.00    +0.000 A 
ATOM     13  C   UNL     1     -19.153  42.646 -13.735  0.00  0.00    +0.000 A 
ATOM     14  C   UNL     1     -19.357  40.471 -12.584  0.00  0.00    +0.000 A 
ATOM     15  C   UNL     1     -14.776  47.039 -13.199  0.00  0.00    +0.000 C 
ATOM     16  C   UNL     1     -18.824  39.494 -11.757  0.00  0.00    +0.000 A 
ATOM     17  C   UNL     1     -17.539  39.686 -11.280  0.00  0.00    +0.000 A 
ENDROOT
TORSDOF 0
ENDMDL
MODEL 3
REMARK VINA RESULT:    -6.063      4.372      7.122
REMARK INTER + INTRA:          -6.063
REMARK INTER:                  -6.063
REMARK INTRA:                   0.000
REMARK UNBOUND:                 0.000
REMARK  Name = 139729466
REMARK  1 active torsions:
REMARK  status: ('A' for Active; 'I' for Inactive)
REMARK    1  A    between atoms: C_10  and  C_15
REMARK                            x       y       z     vdW  Elec       q    Type
REMARK                         _______ _______ _______ _____ _____    ______ ____
ROOT
ATOM      1  O   UNL     1     -18.487  45.336 -17.729  0.00  0.00    +0.000 OA
ATOM      2  N   UNL     1     -20.593  42.910 -15.622  0.00  0.00    +0.000 NA
ATOM      3  N   UNL     1     -19.045  41.932 -14.281  0.00  0.00    +0.000 NA
ATOM      4  N   UNL     1     -18.738  45.354 -15.439  0.00  0.00    +0.000 NA
ATOM      5  N   UNL     1     -22.600  43.770 -16.382  0.00  0.00    +0.000 NA
ATOM      6  C   UNL     1     -18.899  44.396 -14.585  0.00  0.00    +0.000 A 
ATOM      7  C   UNL     1     -19.543  43.067 -14.880  0.00  0.00    +0.000 A 
ATOM      8  C   UNL     1     -20.626  45.027 -16.879  0.00  0.00    +0.000 A 
ATOM      9  C   UNL     1     -21.262  43.954 -16.271  0.00  0.00    +0.000 A 
ATOM     10  C   UNL     1     -18.414  42.096 -13.160  0.00  0.00    +0.000 A 
ATOM     11  C   UNL     1     -18.395  44.522 -13.201  0.00  0.00    +0.000 A 
ATOM     12  C   UNL     1     -18.184  43.407 -12.498  0.00  0.00    +0.000 A 
ATOM     13  C   UNL     1     -19.183  45.218 -16.727  0.00  0.00    +0.000 A 
ATOM     14  C   UNL     1     -21.366  45.939 -17.630  0.00  0.00    +0.000 A 
ATOM     15  C   UNL     1     -17.877  40.870 -12.467  0.00  0.00    +0.000 C 
ATOM     16  C   UNL     1     -22.736  45.764 -17.743  0.00  0.00    +0.000 A 
ATOM     17  C   UNL     1     -23.301  44.676 -17.102  0.00  0.00    +0.000 A 
ENDROOT
TORSDOF 0
ENDMDL
MODEL 4
REMARK VINA RESULT:    -6.052      3.547      4.799
REMARK INTER + INTRA:          -6.052
REMARK INTER:                  -6.052
REMARK INTRA:                   0.000
REMARK UNBOUND:                 0.000
REMARK  Name = 139729466
REMARK  1 active torsions:
REMARK  status: ('A' for Active; 'I' for Inactive)
REMARK    1  A    between atoms: C_10  and  C_15
REMARK                            x       y       z     vdW  Elec       q    Type
REMARK                         _______ _______ _______ _____ _____    ______ ____
ROOT
ATOM      1  O   UNL     1     -18.013  44.485 -11.322  0.00  0.00    +0.000 OA
ATOM      2  N   UNL     1     -19.419  41.758 -13.636  0.00  0.00    +0.000 NA
ATOM      3  N   UNL     1     -20.885  42.905 -14.934  0.00  0.00    +0.000 NA
ATOM      4  N   UNL     1     -17.857  44.406 -13.619  0.00  0.00    +0.000 NA
ATOM      5  N   UNL     1     -17.877  40.180 -12.945  0.00  0.00    +0.000 NA
ATOM      6  C   UNL     1     -18.666  43.951 -14.520  0.00  0.00    +0.000 A 
ATOM      7  C   UNL     1     -19.657  42.835 -14.315  0.00  0.00    +0.000 A 
ATOM      8  C   UNL     1     -17.471  42.446 -12.294  0.00  0.00    +0.000 A 
ATOM      9  C   UNL     1     -18.212  41.492 -12.978  0.00  0.00    +0.000 A 
ATOM     10  C   UNL     1     -20.951  43.621 -16.013  0.00  0.00    +0.000 A 
ATOM     11  C   UNL     1     -18.714  44.552 -15.870  0.00  0.00    +0.000 A 
ATOM     12  C   UNL     1     -19.812  44.371 -16.607  0.00  0.00    +0.000 A 
ATOM     13  C   UNL     1     -17.840  43.862 -12.363  0.00  0.00    +0.000 A 
ATOM     14  C   UNL     1     -16.362  42.059 -11.545  0.00  0.00    +0.000 A 
ATOM     15  C   UNL     1     -22.274  43.700 -16.728  0.00  0.00    +0.000 C 
ATOM     16  C   UNL     1     -16.006  40.720 -11.510  0.00  0.00    +0.000 A 
ATOM     17  C   UNL     1     -16.787  39.828 -12.224  0.00  0.00    +0.000 A 
ENDROOT
TORSDOF 0
ENDMDL
MODEL 5
REMARK VINA RESULT:    -5.187      2.737      5.619
REMARK INTER + INTRA:          -5.187
REMARK INTER:                  -5.187
REMARK INTRA:                   0.000
REMARK UNBOUND:                 0.000
REMARK  Name = 139729466
REMARK  1 active torsions:
REMARK  status: ('A' for Active; 'I' for Inactive)
REMARK    1  A    between atoms: C_10  and  C_15
REMARK                            x       y       z     vdW  Elec       q    Type
REMARK                         _______ _______ _______ _____ _____    ______ ____
ROOT
ATOM      1  O   UNL     1     -18.860  46.563 -11.970  0.00  0.00    +0.000 OA
ATOM      2  N   UNL     1     -16.624  43.529 -11.221  0.00  0.00    +0.000 NA
ATOM      3  N   UNL     1     -18.125  41.844 -10.982  0.00  0.00    +0.000 NA
ATOM      4  N   UNL     1     -18.674  44.640 -13.224  0.00  0.00    +0.000 NA
ATOM      5  N   UNL     1     -14.673  44.670 -11.707  0.00  0.00    +0.000 NA
ATOM      6  C   UNL     1     -18.461  43.410 -12.885  0.00  0.00    +0.000 A 
ATOM      7  C   UNL     1     -17.703  42.965 -11.661  0.00  0.00    +0.000 A 
ATOM      8  C   UNL     1     -16.727  45.722 -12.339  0.00  0.00    +0.000 A 
ATOM      9  C   UNL     1     -16.024  44.648 -11.810  0.00  0.00    +0.000 A 
ATOM     10  C   UNL     1     -18.797  40.970 -11.664  0.00  0.00    +0.000 A 
ATOM     11  C   UNL     1     -19.011  42.296 -13.686  0.00  0.00    +0.000 A 
ATOM     12  C   UNL     1     -19.151  41.103 -13.103  0.00  0.00    +0.000 A 
ATOM     13  C   UNL     1     -18.185  45.666 -12.461  0.00  0.00    +0.000 A 
ATOM     14  C   UNL     1     -16.043  46.857 -12.769  0.00  0.00    +0.000 A 
ATOM     15  C   UNL     1     -19.253  39.721 -10.956  0.00  0.00    +0.000 C 
ATOM     16  C   UNL     1     -14.660  46.886 -12.675  0.00  0.00    +0.000 A 
ATOM     17  C   UNL     1     -14.027  45.776 -12.146  0.00  0.00    +0.000 A 
ENDROOT
TORSDOF 0
ENDMDL
