MODEL 1
REMARK VINA RESULT:    -6.506      0.000      0.000
REMARK INTER + INTRA:          -9.616
REMARK INTER:                  -8.598
REMARK INTRA:                  -1.019
REMARK UNBOUND:                -1.019
REMARK  Name = 140073612
REMARK  7 active torsions:
REMARK  status: ('A' for Active; 'I' for Inactive)
REMARK    1  A    between atoms: N_2  and  N_3
REMARK    2  A    between atoms: N_2  and  N_5
REMARK    3  A    between atoms: N_2  and  C_10
REMARK    4  A    between atoms: N_3  and  N_6
REMARK    5  A    between atoms: N_3  and  N_7
REMARK    6  A    between atoms: N_6  and  N_9
REMARK    7  A    between atoms: C_11  and  C_14
REMARK                            x       y       z     vdW  Elec       q    Type
REMARK                         _______ _______ _______ _____ _____    ______ ____
ROOT
ATOM      1  N   UNL     1     -17.319  41.384 -10.659  0.00  0.00    +0.000 N 
ENDROOT
BRANCH   1   3
ATOM      2  N   UNL     1     -18.318  41.984  -8.584  0.00  0.00    +0.000 NA
ATOM      3  C   UNL     1     -18.408  41.288  -9.739  0.00  0.00    +0.000 A 
ATOM      4  C   UNL     1     -19.486  40.488 -10.081  0.00  0.00    +0.000 A 
ATOM      5  C   UNL     1     -20.541  40.397  -9.179  0.00  0.00    +0.000 A 
ATOM      6  C   UNL     1     -20.485  41.098  -7.979  0.00  0.00    +0.000 A 
ATOM      7  C   UNL     1     -19.361  41.871  -7.732  0.00  0.00    +0.000 A 
BRANCH   4  10
ATOM      8  O   UNL     1     -19.291  38.534 -11.380  0.00  0.00    +0.000 OA
ATOM      9  N   UNL     1     -19.902  40.450 -12.481  0.00  0.00    +0.000 N 
ATOM     10  C   UNL     1     -19.553  39.747 -11.333  0.00  0.00    +0.000 C 
ATOM     11  H   UNL     1     -20.113  41.443 -12.462  0.00  0.00    +0.000 HD
ATOM     12  H   UNL     1     -19.957  39.985 -13.381  0.00  0.00    +0.000 HD
ENDBRANCH   4  10
ENDBRANCH   1   3
BRANCH   1  13
ATOM     13  N   UNL     1     -16.197  40.553 -10.538  0.00  0.00    +0.000 NA
ATOM     14  H   UNL     1     -16.492  39.608 -10.296  0.00  0.00    +0.000 HD
ATOM     15  H   UNL     1     -15.630  40.889  -9.762  0.00  0.00    +0.000 HD
ENDBRANCH   1  13
BRANCH   1  16
ATOM     16  N   UNL     1     -17.379  42.298 -11.728  0.00  0.00    +0.000 NA
BRANCH  16  17
ATOM     17  N   UNL     1     -17.178  43.644 -11.294  0.00  0.00    +0.000 NA
ATOM     18  H   UNL     1     -17.716  43.798 -10.442  0.00  0.00    +0.000 HD
ATOM     19  H   UNL     1     -16.200  43.772 -11.039  0.00  0.00    +0.000 HD
ENDBRANCH  16  17
BRANCH  16  20
ATOM     20  N   UNL     1     -16.490  41.975 -12.802  0.00  0.00    +0.000 NA
ATOM     21  H   UNL     1     -16.555  42.693 -13.521  0.00  0.00    +0.000 HD
BRANCH  20  22
ATOM     22  N   UNL     1     -16.795  40.706 -13.372  0.00  0.00    +0.000 NA
ATOM     23  H   UNL     1     -17.501  40.831 -14.095  0.00  0.00    +0.000 HD
ATOM     24  H   UNL     1     -15.967  40.347 -13.844  0.00  0.00    +0.000 HD
ENDBRANCH  20  22
ENDBRANCH  16  20
ENDBRANCH   1  16
TORSDOF 7
ENDMDL
MODEL 2
REMARK VINA RESULT:    -6.474      2.015      3.253
REMARK INTER + INTRA:          -9.575
REMARK INTER:                  -8.542
REMARK INTRA:                  -1.033
REMARK UNBOUND:                -1.019
REMARK  Name = 140073612
REMARK  7 active torsions:
REMARK  status: ('A' for Active; 'I' for Inactive)
REMARK    1  A    between atoms: N_2  and  N_3
REMARK    2  A    between atoms: N_2  and  N_5
REMARK    3  A    between atoms: N_2  and  C_10
REMARK    4  A    between atoms: N_3  and  N_6
REMARK    5  A    between atoms: N_3  and  N_7
REMARK    6  A    between atoms: N_6  and  N_9
REMARK    7  A    between atoms: C_11  and  C_14
REMARK                            x       y       z     vdW  Elec       q    Type
REMARK                         _______ _______ _______ _____ _____    ______ ____
ROOT
ATOM      1  N   UNL     1     -18.221  39.906 -11.612  0.00  0.00    +0.000 N 
ENDROOT
BRANCH   1   3
ATOM      2  N   UNL     1     -19.383  39.754  -9.541  0.00  0.00    +0.000 NA
ATOM      3  C   UNL     1     -18.576  40.475 -10.352  0.00  0.00    +0.000 A 
ATOM      4  C   UNL     1     -18.081  41.729 -10.035  0.00  0.00    +0.000 A 
ATOM      5  C   UNL     1     -18.434  42.278  -8.807  0.00  0.00    +0.000 A 
ATOM      6  C   UNL     1     -19.262  41.566  -7.947  0.00  0.00    +0.000 A 
ATOM      7  C   UNL     1     -19.706  40.319  -8.357  0.00  0.00    +0.000 A 
BRANCH   4  10
ATOM      8  O   UNL     1     -17.686  43.221 -11.813  0.00  0.00    +0.000 OA
ATOM      9  N   UNL     1     -15.841  42.336 -10.777  0.00  0.00    +0.000 N 
ATOM     10  C   UNL     1     -17.216  42.484 -10.931  0.00  0.00    +0.000 C 
ATOM     11  H   UNL     1     -15.440  41.733 -10.067  0.00  0.00    +0.000 HD
ATOM     12  H   UNL     1     -15.193  42.833 -11.379  0.00  0.00    +0.000 HD
ENDBRANCH   4  10
ENDBRANCH   1   3
BRANCH   1  13
ATOM     13  N   UNL     1     -16.924  39.427 -11.848  0.00  0.00    +0.000 NA
ATOM     14  H   UNL     1     -16.351  40.167 -12.251  0.00  0.00    +0.000 HD
ATOM     15  H   UNL     1     -16.976  38.686 -12.544  0.00  0.00    +0.000 HD
ENDBRANCH   1  13
BRANCH   1  16
ATOM     16  N   UNL     1     -19.187  39.785 -12.629  0.00  0.00    +0.000 NA
BRANCH  16  17
ATOM     17  N   UNL     1     -20.030  38.648 -12.434  0.00  0.00    +0.000 NA
ATOM     18  H   UNL     1     -19.867  38.275 -11.500  0.00  0.00    +0.000 HD
ATOM     19  H   UNL     1     -21.004  38.946 -12.454  0.00  0.00    +0.000 HD
ENDBRANCH  16  17
BRANCH  16  20
ATOM     20  N   UNL     1     -19.969  40.969 -12.813  0.00  0.00    +0.000 NA
ATOM     21  H   UNL     1     -20.915  40.708 -13.088  0.00  0.00    +0.000 HD
BRANCH  20  22
ATOM     22  N   UNL     1     -19.405  41.820 -13.806  0.00  0.00    +0.000 NA
ATOM     23  H   UNL     1     -18.562  41.384 -14.174  0.00  0.00    +0.000 HD
ATOM     24  H   UNL     1     -20.053  41.889 -14.590  0.00  0.00    +0.000 HD
ENDBRANCH  20  22
ENDBRANCH  16  20
ENDBRANCH   1  16
TORSDOF 7
ENDMDL
MODEL 3
REMARK VINA RESULT:    -6.410      2.018      3.165
REMARK INTER + INTRA:          -9.490
REMARK INTER:                  -8.325
REMARK INTRA:                  -1.165
REMARK UNBOUND:                -1.019
REMARK  Name = 140073612
REMARK  7 active torsions:
REMARK  status: ('A' for Active; 'I' for Inactive)
REMARK    1  A    between atoms: N_2  and  N_3
REMARK    2  A    between atoms: N_2  and  N_5
REMARK    3  A    between atoms: N_2  and  C_10
REMARK    4  A    between atoms: N_3  and  N_6
REMARK    5  A    between atoms: N_3  and  N_7
REMARK    6  A    between atoms: N_6  and  N_9
REMARK    7  A    between atoms: C_11  and  C_14
REMARK                            x       y       z     vdW  Elec       q    Type
REMARK                         _______ _______ _______ _____ _____    ______ ____
ROOT
ATOM      1  N   UNL     1     -18.616  40.749 -12.196  0.00  0.00    +0.000 N 
ENDROOT
BRANCH   1   3
ATOM      2  N   UNL     1     -19.679  39.923 -10.233  0.00  0.00    +0.000 NA
ATOM      3  C   UNL     1     -18.852  40.836 -10.790  0.00  0.00    +0.000 A 
ATOM      4  C   UNL     1     -18.225  41.847 -10.081  0.00  0.00    +0.000 A 
ATOM      5  C   UNL     1     -18.462  41.927  -8.713  0.00  0.00    +0.000 A 
ATOM      6  C   UNL     1     -19.307  41.006  -8.105  0.00  0.00    +0.000 A 
ATOM      7  C   UNL     1     -19.886  40.032  -8.902  0.00  0.00    +0.000 A 
BRANCH   4  10
ATOM      8  O   UNL     1     -17.767  43.916 -11.110  0.00  0.00    +0.000 OA
ATOM      9  N   UNL     1     -16.004  42.469 -10.865  0.00  0.00    +0.000 N 
ATOM     10  C   UNL     1     -17.341  42.820 -10.710  0.00  0.00    +0.000 C 
ATOM     11  H   UNL     1     -15.640  41.576 -10.550  0.00  0.00    +0.000 HD
ATOM     12  H   UNL     1     -15.346  43.106 -11.303  0.00  0.00    +0.000 HD
ENDBRANCH   4  10
ENDBRANCH   1   3
BRANCH   1  13
ATOM     13  N   UNL     1     -19.464  41.390 -13.110  0.00  0.00    +0.000 NA
ATOM     14  H   UNL     1     -19.635  42.348 -12.809  0.00  0.00    +0.000 HD
ATOM     15  H   UNL     1     -20.365  40.916 -13.101  0.00  0.00    +0.000 HD
ENDBRANCH   1  13
BRANCH   1  16
ATOM     16  N   UNL     1     -17.500  40.042 -12.681  0.00  0.00    +0.000 NA
BRANCH  16  17
ATOM     17  N   UNL     1     -16.620  40.880 -13.432  0.00  0.00    +0.000 NA
ATOM     18  H   UNL     1     -16.785  41.849 -13.167  0.00  0.00    +0.000 HD
ATOM     19  H   UNL     1     -15.657  40.674 -13.169  0.00  0.00    +0.000 HD
ENDBRANCH  16  17
BRANCH  16  20
ATOM     20  N   UNL     1     -16.784  39.341 -11.660  0.00  0.00    +0.000 NA
ATOM     21  H   UNL     1     -17.168  39.588 -10.749  0.00  0.00    +0.000 HD
BRANCH  20  22
ATOM     22  N   UNL     1     -15.394  39.650 -11.687  0.00  0.00    +0.000 NA
ATOM     23  H   UNL     1     -15.264  40.612 -11.379  0.00  0.00    +0.000 HD
ATOM     24  H   UNL     1     -14.911  39.068 -11.005  0.00  0.00    +0.000 HD
ENDBRANCH  20  22
ENDBRANCH  16  20
ENDBRANCH   1  16
TORSDOF 7
ENDMDL
MODEL 4
REMARK VINA RESULT:    -5.878      2.549      3.600
REMARK INTER + INTRA:          -8.787
REMARK INTER:                  -7.800
REMARK INTRA:                  -0.987
REMARK UNBOUND:                -1.019
REMARK  Name = 140073612
REMARK  7 active torsions:
REMARK  status: ('A' for Active; 'I' for Inactive)
REMARK    1  A    between atoms: N_2  and  N_3
REMARK    2  A    between atoms: N_2  and  N_5
REMARK    3  A    between atoms: N_2  and  C_10
REMARK    4  A    between atoms: N_3  and  N_6
REMARK    5  A    between atoms: N_3  and  N_7
REMARK    6  A    between atoms: N_6  and  N_9
REMARK    7  A    between atoms: C_11  and  C_14
REMARK                            x       y       z     vdW  Elec       q    Type
REMARK                         _______ _______ _______ _____ _____    ______ ____
ROOT
ATOM      1  N   UNL     1     -17.040  40.883 -10.619  0.00  0.00    +0.000 N 
ENDROOT
BRANCH   1   3
ATOM      2  N   UNL     1     -17.347  43.173 -11.187  0.00  0.00    +0.000 NA
ATOM      3  C   UNL     1     -17.526  41.876 -11.523  0.00  0.00    +0.000 A 
ATOM      4  C   UNL     1     -18.153  41.456 -12.685  0.00  0.00    +0.000 A 
ATOM      5  C   UNL     1     -18.625  42.429 -13.558  0.00  0.00    +0.000 A 
ATOM      6  C   UNL     1     -18.460  43.774 -13.247  0.00  0.00    +0.000 A 
ATOM      7  C   UNL     1     -17.820  44.090 -12.059  0.00  0.00    +0.000 A 
BRANCH   4  10
ATOM      8  O   UNL     1     -17.422  39.386 -13.538  0.00  0.00    +0.000 OA
ATOM      9  N   UNL     1     -19.574  39.479 -12.752  0.00  0.00    +0.000 N 
ATOM     10  C   UNL     1     -18.334  40.049 -13.018  0.00  0.00    +0.000 C 
ATOM     11  H   UNL     1     -20.333  40.008 -12.334  0.00  0.00    +0.000 HD
ATOM     12  H   UNL     1     -19.758  38.505 -12.970  0.00  0.00    +0.000 HD
ENDBRANCH   4  10
ENDBRANCH   1   3
BRANCH   1  13
ATOM     13  N   UNL     1     -15.815  40.241 -10.843  0.00  0.00    +0.000 NA
ATOM     14  H   UNL     1     -15.812  39.331 -10.384  0.00  0.00    +0.000 HD
ATOM     15  H   UNL     1     -15.078  40.791 -10.405  0.00  0.00    +0.000 HD
ENDBRANCH   1  13
BRANCH   1  16
ATOM     16  N   UNL     1     -17.777  40.561  -9.464  0.00  0.00    +0.000 NA
BRANCH  16  17
ATOM     17  N   UNL     1     -18.180  41.727  -8.744  0.00  0.00    +0.000 NA
ATOM     18  H   UNL     1     -18.008  41.576  -7.751  0.00  0.00    +0.000 HD
ATOM     19  H   UNL     1     -17.590  42.511  -9.018  0.00  0.00    +0.000 HD
ENDBRANCH  16  17
BRANCH  16  20
ATOM     20  N   UNL     1     -18.900  39.713  -9.723  0.00  0.00    +0.000 NA
ATOM     21  H   UNL     1     -18.778  39.261 -10.629  0.00  0.00    +0.000 HD
BRANCH  20  22
ATOM     22  N   UNL     1     -20.122  40.444  -9.721  0.00  0.00    +0.000 NA
ATOM     23  H   UNL     1     -20.848  39.871  -9.292  0.00  0.00    +0.000 HD
ATOM     24  H   UNL     1     -20.017  41.262  -9.122  0.00  0.00    +0.000 HD
ENDBRANCH  20  22
ENDBRANCH  16  20
ENDBRANCH   1  16
TORSDOF 7
ENDMDL
MODEL 5
REMARK VINA RESULT:    -5.713      2.993      4.708
REMARK INTER + INTRA:          -8.569
REMARK INTER:                  -7.968
REMARK INTRA:                  -0.601
REMARK UNBOUND:                -1.019
REMARK  Name = 140073612
REMARK  7 active torsions:
REMARK  status: ('A' for Active; 'I' for Inactive)
REMARK    1  A    between atoms: N_2  and  N_3
REMARK    2  A    between atoms: N_2  and  N_5
REMARK    3  A    between atoms: N_2  and  C_10
REMARK    4  A    between atoms: N_3  and  N_6
REMARK    5  A    between atoms: N_3  and  N_7
REMARK    6  A    between atoms: N_6  and  N_9
REMARK    7  A    between atoms: C_11  and  C_14
REMARK                            x       y       z     vdW  Elec       q    Type
REMARK                         _______ _______ _______ _____ _____    ______ ____
ROOT
ATOM      1  N   UNL     1     -18.386  40.364 -12.124  0.00  0.00    +0.000 N 
ENDROOT
BRANCH   1   3
ATOM      2  N   UNL     1     -19.193  41.797 -13.845  0.00  0.00    +0.000 NA
ATOM      3  C   UNL     1     -18.521  41.674 -12.678  0.00  0.00    +0.000 A 
ATOM      4  C   UNL     1     -17.954  42.737 -11.995  0.00  0.00    +0.000 A 
ATOM      5  C   UNL     1     -18.086  44.008 -12.542  0.00  0.00    +0.000 A 
ATOM      6  C   UNL     1     -18.771  44.175 -13.741  0.00  0.00    +0.000 A 
ATOM      7  C   UNL     1     -19.301  43.047 -14.347  0.00  0.00    +0.000 A 
BRANCH   4  10
ATOM      8  O   UNL     1     -17.810  42.660  -9.645  0.00  0.00    +0.000 OA
ATOM      9  N   UNL     1     -15.863  42.332 -10.812  0.00  0.00    +0.000 N 
ATOM     10  C   UNL     1     -17.231  42.572 -10.741  0.00  0.00    +0.000 C 
ATOM     11  H   UNL     1     -15.373  42.264 -11.698  0.00  0.00    +0.000 HD
ATOM     12  H   UNL     1     -15.310  42.216  -9.969  0.00  0.00    +0.000 HD
ENDBRANCH   4  10
ENDBRANCH   1   3
BRANCH   1  13
ATOM     13  N   UNL     1     -17.201  39.633 -12.280  0.00  0.00    +0.000 NA
ATOM     14  H   UNL     1     -16.621  39.735 -11.449  0.00  0.00    +0.000 HD
ATOM     15  H   UNL     1     -16.674  40.035 -13.054  0.00  0.00    +0.000 HD
ENDBRANCH   1  13
BRANCH   1  16
ATOM     16  N   UNL     1     -19.440  39.804 -11.378  0.00  0.00    +0.000 NA
BRANCH  16  17
ATOM     17  N   UNL     1     -19.717  38.458 -11.770  0.00  0.00    +0.000 NA
ATOM     18  H   UNL     1     -20.716  38.368 -11.951  0.00  0.00    +0.000 HD
ATOM     19  H   UNL     1     -19.250  38.264 -12.654  0.00  0.00    +0.000 HD
ENDBRANCH  16  17
BRANCH  16  20
ATOM     20  N   UNL     1     -19.242  39.889  -9.963  0.00  0.00    +0.000 NA
ATOM     21  H   UNL     1     -18.702  39.083  -9.650  0.00  0.00    +0.000 HD
BRANCH  20  22
ATOM     22  N   UNL     1     -20.481  39.929  -9.261  0.00  0.00    +0.000 NA
ATOM     23  H   UNL     1     -20.360  40.479  -8.412  0.00  0.00    +0.000 HD
ATOM     24  H   UNL     1     -21.166  40.429  -9.827  0.00  0.00    +0.000 HD
ENDBRANCH  20  22
ENDBRANCH  16  20
ENDBRANCH   1  16
TORSDOF 7
ENDMDL
