MODEL 1
REMARK VINA RESULT:    -6.890      0.000      0.000
REMARK INTER + INTRA:          -7.374
REMARK INTER:                  -7.293
REMARK INTRA:                  -0.081
REMARK UNBOUND:                -0.081
REMARK  Name = 140385835
REMARK  2 active torsions:
REMARK  status: ('A' for Active; 'I' for Inactive)
REMARK    1  A    between atoms: C_6  and  C_7
REMARK    2  A    between atoms: C_7  and  C_14
REMARK                            x       y       z     vdW  Elec       q    Type
REMARK                         _______ _______ _______ _____ _____    ______ ____
ROOT
ATOM      1  O   UNL     1     -18.847  45.935 -13.600  0.00  0.00    +0.000 OA
ATOM      2  N   UNL     1     -19.593  41.278 -12.361  0.00  0.00    +0.000 NA
ATOM      3  N   UNL     1     -20.012  42.345 -14.319  0.00  0.00    +0.000 NA
ATOM      4  N   UNL     1     -17.555  44.028 -13.556  0.00  0.00    +0.000 NA
ATOM      5  N   UNL     1     -20.297  42.740 -16.579  0.00  0.00    +0.000 NA
ATOM      6  C   UNL     1     -18.652  40.665 -11.713  0.00  0.00    +0.000 A 
ATOM      7  C   UNL     1     -17.833  42.810 -13.226  0.00  0.00    +0.000 A 
ATOM      8  C   UNL     1     -19.193  42.168 -13.332  0.00  0.00    +0.000 A 
ATOM      9  C   UNL     1     -17.196  40.868 -11.932  0.00  0.00    +0.000 A 
ATOM     10  C   UNL     1     -16.801  41.925 -12.646  0.00  0.00    +0.000 A 
ATOM     11  C   UNL     1     -19.123  44.409 -15.329  0.00  0.00    +0.000 A 
ATOM     12  C   UNL     1     -19.754  43.176 -15.416  0.00  0.00    +0.000 A 
ATOM     13  C   UNL     1     -18.525  44.848 -14.066  0.00  0.00    +0.000 A 
ATOM     14  C   UNL     1     -19.043  45.231 -16.451  0.00  0.00    +0.000 A 
ATOM     15  C   UNL     1     -19.588  44.791 -17.648  0.00  0.00    +0.000 A 
ATOM     16  C   UNL     1     -20.194  43.548 -17.662  0.00  0.00    +0.000 A 
ENDROOT
BRANCH   6  17
ATOM     17  C   UNL     1     -19.058  39.666 -10.659  0.00  0.00    +0.000 C 
ATOM     18  C   UNL     1     -19.815  40.362  -9.554  0.00  0.00    +0.000 C 
ENDBRANCH   6  17
TORSDOF 1
ENDMDL
MODEL 2
REMARK VINA RESULT:    -6.654      1.933      5.849
REMARK INTER + INTRA:          -7.124
REMARK INTER:                  -7.036
REMARK INTRA:                  -0.088
REMARK UNBOUND:                -0.081
REMARK  Name = 140385835
REMARK  2 active torsions:
REMARK  status: ('A' for Active; 'I' for Inactive)
REMARK    1  A    between atoms: C_6  and  C_7
REMARK    2  A    between atoms: C_7  and  C_14
REMARK                            x       y       z     vdW  Elec       q    Type
REMARK                         _______ _______ _______ _____ _____    ______ ____
ROOT
ATOM      1  O   UNL     1     -15.889  41.049 -11.228  0.00  0.00    +0.000 OA
ATOM      2  N   UNL     1     -19.484  42.047 -14.366  0.00  0.00    +0.000 NA
ATOM      3  N   UNL     1     -19.580  41.136 -12.291  0.00  0.00    +0.000 NA
ATOM      4  N   UNL     1     -17.133  42.916 -11.747  0.00  0.00    +0.000 NA
ATOM      5  N   UNL     1     -20.345  40.559 -10.187  0.00  0.00    +0.000 NA
ATOM      6  C   UNL     1     -19.453  43.188 -14.981  0.00  0.00    +0.000 A 
ATOM      7  C   UNL     1     -18.093  43.101 -12.593  0.00  0.00    +0.000 A 
ATOM      8  C   UNL     1     -19.058  42.040 -13.058  0.00  0.00    +0.000 A 
ATOM      9  C   UNL     1     -18.981  44.464 -14.382  0.00  0.00    +0.000 A 
ATOM     10  C   UNL     1     -18.298  44.416 -13.235  0.00  0.00    +0.000 A 
ATOM     11  C   UNL     1     -18.042  41.181 -10.367  0.00  0.00    +0.000 A 
ATOM     12  C   UNL     1     -19.300  41.007 -10.924  0.00  0.00    +0.000 A 
ATOM     13  C   UNL     1     -16.933  41.687 -11.179  0.00  0.00    +0.000 A 
ATOM     14  C   UNL     1     -17.830  40.886  -9.021  0.00  0.00    +0.000 A 
ATOM     15  C   UNL     1     -18.894  40.435  -8.255  0.00  0.00    +0.000 A 
ATOM     16  C   UNL     1     -20.122  40.294  -8.878  0.00  0.00    +0.000 A 
ENDROOT
BRANCH   6  17
ATOM     17  C   UNL     1     -19.935  43.234 -16.409  0.00  0.00    +0.000 C 
ATOM     18  C   UNL     1     -20.782  44.464 -16.627  0.00  0.00    +0.000 C 
ENDBRANCH   6  17
TORSDOF 1
ENDMDL
MODEL 3
REMARK VINA RESULT:    -5.902      4.537      6.544
REMARK INTER + INTRA:          -6.328
REMARK INTER:                  -6.231
REMARK INTRA:                  -0.097
REMARK UNBOUND:                -0.081
REMARK  Name = 140385835
REMARK  2 active torsions:
REMARK  status: ('A' for Active; 'I' for Inactive)
REMARK    1  A    between atoms: C_6  and  C_7
REMARK    2  A    between atoms: C_7  and  C_14
REMARK                            x       y       z     vdW  Elec       q    Type
REMARK                         _______ _______ _______ _____ _____    ______ ____
ROOT
ATOM      1  O   UNL     1     -19.976  40.600 -11.951  0.00  0.00    +0.000 OA
ATOM      2  N   UNL     1     -15.990  43.252 -11.026  0.00  0.00    +0.000 NA
ATOM      3  N   UNL     1     -17.748  42.755  -9.681  0.00  0.00    +0.000 NA
ATOM      4  N   UNL     1     -17.821  40.133 -11.285  0.00  0.00    +0.000 NA
ATOM      5  N   UNL     1     -18.998  42.303  -7.788  0.00  0.00    +0.000 NA
ATOM      6  C   UNL     1     -14.847  42.788 -11.426  0.00  0.00    +0.000 A 
ATOM      7  C   UNL     1     -16.811  40.903 -11.042  0.00  0.00    +0.000 A 
ATOM      8  C   UNL     1     -16.901  42.329 -10.562  0.00  0.00    +0.000 A 
ATOM      9  C   UNL     1     -14.468  41.351 -11.434  0.00  0.00    +0.000 A 
ATOM     10  C   UNL     1     -15.428  40.437 -11.273  0.00  0.00    +0.000 A 
ATOM     11  C   UNL     1     -19.437  40.962  -9.721  0.00  0.00    +0.000 A 
ATOM     12  C   UNL     1     -18.715  41.950  -9.066  0.00  0.00    +0.000 A 
ATOM     13  C   UNL     1     -19.100  40.583 -11.095  0.00  0.00    +0.000 A 
ATOM     14  C   UNL     1     -20.483  40.314  -9.065  0.00  0.00    +0.000 A 
ATOM     15  C   UNL     1     -20.774  40.662  -7.756  0.00  0.00    +0.000 A 
ATOM     16  C   UNL     1     -20.006  41.650  -7.165  0.00  0.00    +0.000 A 
ENDROOT
BRANCH   6  17
ATOM     17  C   UNL     1     -13.819  43.776 -11.918  0.00  0.00    +0.000 C 
ATOM     18  C   UNL     1     -12.434  43.199 -11.755  0.00  0.00    +0.000 C 
ENDBRANCH   6  17
TORSDOF 1
ENDMDL
MODEL 4
REMARK VINA RESULT:    -5.585      2.663      5.567
REMARK INTER + INTRA:          -5.993
REMARK INTER:                  -5.912
REMARK INTRA:                  -0.082
REMARK UNBOUND:                -0.081
REMARK  Name = 140385835
REMARK  2 active torsions:
REMARK  status: ('A' for Active; 'I' for Inactive)
REMARK    1  A    between atoms: C_6  and  C_7
REMARK    2  A    between atoms: C_7  and  C_14
REMARK                            x       y       z     vdW  Elec       q    Type
REMARK                         _______ _______ _______ _____ _____    ______ ____
ROOT
ATOM      1  O   UNL     1     -20.019  42.271 -13.920  0.00  0.00    +0.000 OA
ATOM      2  N   UNL     1     -17.887  45.892 -11.445  0.00  0.00    +0.000 NA
ATOM      3  N   UNL     1     -17.562  43.650 -11.308  0.00  0.00    +0.000 NA
ATOM      4  N   UNL     1     -18.247  43.691 -14.305  0.00  0.00    +0.000 NA
ATOM      5  N   UNL     1     -16.539  41.603 -10.982  0.00  0.00    +0.000 NA
ATOM      6  C   UNL     1     -17.510  46.939 -12.109  0.00  0.00    +0.000 A 
ATOM      7  C   UNL     1     -17.724  44.628 -13.583  0.00  0.00    +0.000 A 
ATOM      8  C   UNL     1     -17.741  44.677 -12.076  0.00  0.00    +0.000 A 
ATOM      9  C   UNL     1     -16.955  46.919 -13.488  0.00  0.00    +0.000 A 
ATOM     10  C   UNL     1     -17.084  45.803 -14.210  0.00  0.00    +0.000 A 
ATOM     11  C   UNL     1     -18.007  41.792 -12.863  0.00  0.00    +0.000 A 
ATOM     12  C   UNL     1     -17.351  42.346 -11.773  0.00  0.00    +0.000 A 
ATOM     13  C   UNL     1     -18.863  42.621 -13.715  0.00  0.00    +0.000 A 
ATOM     14  C   UNL     1     -17.842  40.440 -13.160  0.00  0.00    +0.000 A 
ATOM     15  C   UNL     1     -17.008  39.672 -12.363  0.00  0.00    +0.000 A 
ATOM     16  C   UNL     1     -16.380  40.296 -11.299  0.00  0.00    +0.000 A 
ENDROOT
BRANCH   6  17
ATOM     17  C   UNL     1     -17.636  48.283 -11.436  0.00  0.00    +0.000 C 
ATOM     18  C   UNL     1     -18.839  48.292 -10.525  0.00  0.00    +0.000 C 
ENDBRANCH   6  17
TORSDOF 1
ENDMDL
MODEL 5
REMARK VINA RESULT:    -5.518     12.538     13.789
REMARK INTER + INTRA:          -5.922
REMARK INTER:                  -5.822
REMARK INTRA:                  -0.100
REMARK UNBOUND:                -0.081
REMARK  Name = 140385835
REMARK  2 active torsions:
REMARK  status: ('A' for Active; 'I' for Inactive)
REMARK    1  A    between atoms: C_6  and  C_7
REMARK    2  A    between atoms: C_7  and  C_14
REMARK                            x       y       z     vdW  Elec       q    Type
REMARK                         _______ _______ _______ _____ _____    ______ ____
ROOT
ATOM      1  O   UNL     1     -30.492  41.085 -17.513  0.00  0.00    +0.000 OA
ATOM      2  N   UNL     1     -32.734  42.775 -13.527  0.00  0.00    +0.000 NA
ATOM      3  N   UNL     1     -31.352  43.840 -14.977  0.00  0.00    +0.000 NA
ATOM      4  N   UNL     1     -32.583  41.932 -17.050  0.00  0.00    +0.000 NA
ATOM      5  N   UNL     1     -30.375  45.508 -16.245  0.00  0.00    +0.000 NA
ATOM      6  C   UNL     1     -33.978  42.455 -13.349  0.00  0.00    +0.000 A 
ATOM      7  C   UNL     1     -33.105  42.380 -15.955  0.00  0.00    +0.000 A 
ATOM      8  C   UNL     1     -32.339  43.016 -14.823  0.00  0.00    +0.000 A 
ATOM      9  C   UNL     1     -34.984  42.316 -14.434  0.00  0.00    +0.000 A 
ATOM     10  C   UNL     1     -34.555  42.254 -15.697  0.00  0.00    +0.000 A 
ATOM     11  C   UNL     1     -30.698  43.390 -17.309  0.00  0.00    +0.000 A 
ATOM     12  C   UNL     1     -30.846  44.238 -16.221  0.00  0.00    +0.000 A 
ATOM     13  C   UNL     1     -31.235  42.027 -17.267  0.00  0.00    +0.000 A 
ATOM     14  C   UNL     1     -30.048  43.838 -18.458  0.00  0.00    +0.000 A 
ATOM     15  C   UNL     1     -29.569  45.138 -18.496  0.00  0.00    +0.000 A 
ATOM     16  C   UNL     1     -29.760  45.929 -17.377  0.00  0.00    +0.000 A 
ENDROOT
BRANCH   6  17
ATOM     17  C   UNL     1     -34.448  42.207 -11.938  0.00  0.00    +0.000 C 
ATOM     18  C   UNL     1     -35.949  42.054 -11.915  0.00  0.00    +0.000 C 
ENDBRANCH   6  17
TORSDOF 1
ENDMDL
