MODEL 1
REMARK VINA RESULT:    -6.454      0.000      0.000
REMARK INTER + INTRA:          -7.527
REMARK INTER:                  -7.208
REMARK INTRA:                  -0.319
REMARK UNBOUND:                -0.319
REMARK  Name = 14045773
REMARK  2 active torsions:
REMARK  status: ('A' for Active; 'I' for Inactive)
REMARK    1  A    between atoms: N_3  and  C_8
REMARK    2  A    between atoms: C_6  and  C_8
REMARK                            x       y       z     vdW  Elec       q    Type
REMARK                         _______ _______ _______ _____ _____    ______ ____
ROOT
ATOM      1  N   UNL     1     -18.421  40.399  -9.378  0.00  0.00    +0.000 NA
ATOM      2  N   UNL     1     -18.099  39.356 -11.524  0.00  0.00    +0.000 N 
ATOM      3  N   UNL     1     -18.808  41.520 -11.382  0.00  0.00    +0.000 N 
ATOM      4  C   UNL     1     -18.437  40.394 -10.685  0.00  0.00    +0.000 C 
ATOM      5  H   UNL     1     -17.800  38.461 -11.154  0.00  0.00    +0.000 HD
ATOM      6  H   UNL     1     -18.144  39.454 -12.533  0.00  0.00    +0.000 HD
ATOM      7  H   UNL     1     -19.077  42.384 -10.927  0.00  0.00    +0.000 HD
ATOM      8  H   UNL     1     -18.822  41.522 -12.397  0.00  0.00    +0.000 HD
ENDROOT
BRANCH   1  10
ATOM      9  O   UNL     1     -18.060  42.545  -8.593  0.00  0.00    +0.000 OA
ATOM     10  C   UNL     1     -18.796  41.543  -8.675  0.00  0.00    +0.000 C 
BRANCH  10  12
ATOM     11  N   UNL     1     -22.342  40.661  -7.898  0.00  0.00    +0.000 NA
ATOM     12  C   UNL     1     -20.080  41.509  -7.996  0.00  0.00    +0.000 A 
ATOM     13  C   UNL     1     -20.300  42.252  -6.842  0.00  0.00    +0.000 A 
ATOM     14  C   UNL     1     -21.123  40.736  -8.479  0.00  0.00    +0.000 A 
ATOM     15  C   UNL     1     -21.540  42.201  -6.215  0.00  0.00    +0.000 A 
ATOM     16  C   UNL     1     -22.519  41.397  -6.778  0.00  0.00    +0.000 A 
ENDBRANCH  10  12
ENDBRANCH   1  10
TORSDOF 2
ENDMDL
MODEL 2
REMARK VINA RESULT:    -6.190      2.277      3.123
REMARK INTER + INTRA:          -7.232
REMARK INTER:                  -6.824
REMARK INTRA:                  -0.408
REMARK UNBOUND:                -0.319
REMARK  Name = 14045773
REMARK  2 active torsions:
REMARK  status: ('A' for Active; 'I' for Inactive)
REMARK    1  A    between atoms: N_3  and  C_8
REMARK    2  A    between atoms: C_6  and  C_8
REMARK                            x       y       z     vdW  Elec       q    Type
REMARK                         _______ _______ _______ _____ _____    ______ ____
ROOT
ATOM      1  N   UNL     1     -19.676  40.829 -12.245  0.00  0.00    +0.000 NA
ATOM      2  N   UNL     1     -19.110  42.040 -14.248  0.00  0.00    +0.000 N 
ATOM      3  N   UNL     1     -17.474  41.148 -12.932  0.00  0.00    +0.000 N 
ATOM      4  C   UNL     1     -18.826  41.326 -13.105  0.00  0.00    +0.000 C 
ATOM      5  H   UNL     1     -20.067  42.246 -14.512  0.00  0.00    +0.000 HD
ATOM      6  H   UNL     1     -18.373  42.382 -14.855  0.00  0.00    +0.000 HD
ATOM      7  H   UNL     1     -17.083  40.635 -12.150  0.00  0.00    +0.000 HD
ATOM      8  H   UNL     1     -16.810  41.531 -13.597  0.00  0.00    +0.000 HD
ENDROOT
BRANCH   1  10
ATOM      9  O   UNL     1     -18.721  38.989 -11.220  0.00  0.00    +0.000 OA
ATOM     10  C   UNL     1     -19.218  40.127 -11.131  0.00  0.00    +0.000 C 
BRANCH  10  12
ATOM     11  N   UNL     1     -18.536  42.283  -8.158  0.00  0.00    +0.000 NA
ATOM     12  C   UNL     1     -19.384  40.764  -9.836  0.00  0.00    +0.000 A 
ATOM     13  C   UNL     1     -20.492  40.492  -9.040  0.00  0.00    +0.000 A 
ATOM     14  C   UNL     1     -18.444  41.659  -9.354  0.00  0.00    +0.000 A 
ATOM     15  C   UNL     1     -20.623  41.115  -7.804  0.00  0.00    +0.000 A 
ATOM     16  C   UNL     1     -19.626  41.995  -7.412  0.00  0.00    +0.000 A 
ENDBRANCH  10  12
ENDBRANCH   1  10
TORSDOF 2
ENDMDL
MODEL 3
REMARK VINA RESULT:    -5.577      2.181      4.889
REMARK INTER + INTRA:          -6.548
REMARK INTER:                  -6.184
REMARK INTRA:                  -0.364
REMARK UNBOUND:                -0.319
REMARK  Name = 14045773
REMARK  2 active torsions:
REMARK  status: ('A' for Active; 'I' for Inactive)
REMARK    1  A    between atoms: N_3  and  C_8
REMARK    2  A    between atoms: C_6  and  C_8
REMARK                            x       y       z     vdW  Elec       q    Type
REMARK                         _______ _______ _______ _____ _____    ______ ____
ROOT
ATOM      1  N   UNL     1     -19.144  41.256  -8.370  0.00  0.00    +0.000 NA
ATOM      2  N   UNL     1     -20.018  42.395  -6.436  0.00  0.00    +0.000 N 
ATOM      3  N   UNL     1     -21.422  41.341  -7.892  0.00  0.00    +0.000 N 
ATOM      4  C   UNL     1     -20.118  41.659  -7.595  0.00  0.00    +0.000 C 
ATOM      5  H   UNL     1     -19.116  42.699  -6.086  0.00  0.00    +0.000 HD
ATOM      6  H   UNL     1     -20.839  42.657  -5.902  0.00  0.00    +0.000 HD
ATOM      7  H   UNL     1     -21.683  40.793  -8.703  0.00  0.00    +0.000 HD
ATOM      8  H   UNL     1     -22.181  41.651  -7.294  0.00  0.00    +0.000 HD
ENDROOT
BRANCH   1  10
ATOM      9  O   UNL     1     -20.020  39.422  -9.474  0.00  0.00    +0.000 OA
ATOM     10  C   UNL     1     -19.421  40.513  -9.516  0.00  0.00    +0.000 C 
BRANCH  10  12
ATOM     11  N   UNL     1     -18.980  40.985 -13.196  0.00  0.00    +0.000 NA
ATOM     12  C   UNL     1     -18.939  41.046 -10.779  0.00  0.00    +0.000 A 
ATOM     13  C   UNL     1     -18.010  42.080 -10.813  0.00  0.00    +0.000 A 
ATOM     14  C   UNL     1     -19.389  40.538 -11.987  0.00  0.00    +0.000 A 
ATOM     15  C   UNL     1     -17.565  42.568 -12.037  0.00  0.00    +0.000 A 
ATOM     16  C   UNL     1     -18.077  41.992 -13.189  0.00  0.00    +0.000 A 
ENDBRANCH  10  12
ENDBRANCH   1  10
TORSDOF 2
ENDMDL
MODEL 4
REMARK VINA RESULT:    -5.562      3.008      4.423
REMARK INTER + INTRA:          -6.531
REMARK INTER:                  -6.134
REMARK INTRA:                  -0.396
REMARK UNBOUND:                -0.319
REMARK  Name = 14045773
REMARK  2 active torsions:
REMARK  status: ('A' for Active; 'I' for Inactive)
REMARK    1  A    between atoms: N_3  and  C_8
REMARK    2  A    between atoms: C_6  and  C_8
REMARK                            x       y       z     vdW  Elec       q    Type
REMARK                         _______ _______ _______ _____ _____    ______ ____
ROOT
ATOM      1  N   UNL     1     -19.251  41.833 -13.626  0.00  0.00    +0.000 NA
ATOM      2  N   UNL     1     -20.800  43.019 -15.038  0.00  0.00    +0.000 N 
ATOM      3  N   UNL     1     -19.186  44.146 -13.886  0.00  0.00    +0.000 N 
ATOM      4  C   UNL     1     -19.742  42.919 -14.163  0.00  0.00    +0.000 C 
ATOM      5  H   UNL     1     -21.308  42.195 -15.340  0.00  0.00    +0.000 HD
ATOM      6  H   UNL     1     -21.105  43.915 -15.403  0.00  0.00    +0.000 HD
ATOM      7  H   UNL     1     -18.390  44.262 -13.271  0.00  0.00    +0.000 HD
ATOM      8  H   UNL     1     -19.563  44.993 -14.300  0.00  0.00    +0.000 HD
ENDROOT
BRANCH   1  10
ATOM      9  O   UNL     1     -17.003  42.095 -13.152  0.00  0.00    +0.000 OA
ATOM     10  C   UNL     1     -18.168  41.909 -12.752  0.00  0.00    +0.000 C 
BRANCH  10  12
ATOM     11  N   UNL     1     -18.066  42.393  -9.050  0.00  0.00    +0.000 NA
ATOM     12  C   UNL     1     -18.446  41.717 -11.339  0.00  0.00    +0.000 A 
ATOM     13  C   UNL     1     -19.314  40.720 -10.909  0.00  0.00    +0.000 A 
ATOM     14  C   UNL     1     -17.853  42.520 -10.379  0.00  0.00    +0.000 A 
ATOM     15  C   UNL     1     -19.559  40.559  -9.550  0.00  0.00    +0.000 A 
ATOM     16  C   UNL     1     -18.916  41.414  -8.668  0.00  0.00    +0.000 A 
ENDBRANCH  10  12
ENDBRANCH   1  10
TORSDOF 2
ENDMDL
MODEL 5
REMARK VINA RESULT:    -5.177      2.521      3.688
REMARK INTER + INTRA:          -6.101
REMARK INTER:                  -5.734
REMARK INTRA:                  -0.367
REMARK UNBOUND:                -0.319
REMARK  Name = 14045773
REMARK  2 active torsions:
REMARK  status: ('A' for Active; 'I' for Inactive)
REMARK    1  A    between atoms: N_3  and  C_8
REMARK    2  A    between atoms: C_6  and  C_8
REMARK                            x       y       z     vdW  Elec       q    Type
REMARK                         _______ _______ _______ _____ _____    ______ ____
ROOT
ATOM      1  N   UNL     1     -17.574  41.840 -12.719  0.00  0.00    +0.000 NA
ATOM      2  N   UNL     1     -16.470  43.798 -13.582  0.00  0.00    +0.000 N 
ATOM      3  N   UNL     1     -15.422  42.449 -12.070  0.00  0.00    +0.000 N 
ATOM      4  C   UNL     1     -16.565  42.668 -12.802  0.00  0.00    +0.000 C 
ATOM      5  H   UNL     1     -17.235  44.085 -14.182  0.00  0.00    +0.000 HD
ATOM      6  H   UNL     1     -15.637  44.377 -13.577  0.00  0.00    +0.000 HD
ATOM      7  H   UNL     1     -15.310  41.657 -11.449  0.00  0.00    +0.000 HD
ATOM      8  H   UNL     1     -14.636  43.089 -12.130  0.00  0.00    +0.000 HD
ENDROOT
BRANCH   1  10
ATOM      9  O   UNL     1     -16.812  39.735 -12.137  0.00  0.00    +0.000 OA
ATOM     10  C   UNL     1     -17.507  40.734 -11.872  0.00  0.00    +0.000 C 
BRANCH  10  12
ATOM     11  N   UNL     1     -20.158  39.856  -9.392  0.00  0.00    +0.000 NA
ATOM     12  C   UNL     1     -18.324  40.772 -10.672  0.00  0.00    +0.000 A 
ATOM     13  C   UNL     1     -18.091  41.716  -9.677  0.00  0.00    +0.000 A 
ATOM     14  C   UNL     1     -19.360  39.872 -10.483  0.00  0.00    +0.000 A 
ATOM     15  C   UNL     1     -18.891  41.730  -8.539  0.00  0.00    +0.000 A 
ATOM     16  C   UNL     1     -19.902  40.786  -8.446  0.00  0.00    +0.000 A 
ENDBRANCH  10  12
ENDBRANCH   1  10
TORSDOF 2
ENDMDL
