MODEL 1
REMARK VINA RESULT:    -7.272      0.000      0.000
REMARK INTER + INTRA:          -8.812
REMARK INTER:                  -8.548
REMARK INTRA:                  -0.265
REMARK UNBOUND:                -0.265
REMARK  Name = 140671083
REMARK  4 active torsions:
REMARK  status: ('A' for Active; 'I' for Inactive)
REMARK    1  A    between atoms: N_5  and  C_8
REMARK    2  A    between atoms: N_5  and  C_10
REMARK    3  A    between atoms: C_8  and  C_11
REMARK    4  A    between atoms: C_14  and  C_16
REMARK                            x       y       z     vdW  Elec       q    Type
REMARK                         _______ _______ _______ _____ _____    ______ ____
ROOT
ATOM      1  N   UNL     1     -18.354  40.317 -10.480  0.00  0.00    +0.000 N 
ATOM      2  N   UNL     1     -18.505  41.771  -8.598  0.00  0.00    +0.000 NA
ATOM      3  C   UNL     1     -19.091  40.847  -9.392  0.00  0.00    +0.000 A 
ATOM      4  C   UNL     1     -18.949  39.327 -11.349  0.00  0.00    +0.000 C 
ATOM      5  C   UNL     1     -20.382  40.376  -9.212  0.00  0.00    +0.000 A 
ATOM      6  C   UNL     1     -21.119  40.887  -8.149  0.00  0.00    +0.000 A 
ATOM      7  C   UNL     1     -20.550  41.838  -7.310  0.00  0.00    +0.000 A 
ATOM      8  C   UNL     1     -19.252  42.243  -7.575  0.00  0.00    +0.000 A 
ENDROOT
BRANCH   7  11
ATOM      9  O   UNL     1     -21.111  41.988  -5.028  0.00  0.00    +0.000 OA
ATOM     10  N   UNL     1     -22.209  43.405  -6.457  0.00  0.00    +0.000 N 
ATOM     11  C   UNL     1     -21.294  42.391  -6.191  0.00  0.00    +0.000 C 
ATOM     12  H   UNL     1     -22.412  43.791  -7.371  0.00  0.00    +0.000 HD
ATOM     13  H   UNL     1     -22.737  43.814  -5.692  0.00  0.00    +0.000 HD
ENDBRANCH   7  11
BRANCH   1  14
ATOM     14  C   UNL     1     -17.003  40.769 -10.731  0.00  0.00    +0.000 C 
BRANCH  14  18
ATOM     15  F   UNL     1     -15.931  42.590 -11.765  0.00  0.00    +0.000 F 
ATOM     16  F   UNL     1     -16.904  41.136 -13.065  0.00  0.00    +0.000 F 
ATOM     17  F   UNL     1     -18.107  42.520 -11.875  0.00  0.00    +0.000 F 
ATOM     18  C   UNL     1     -16.991  41.759 -11.871  0.00  0.00    +0.000 C 
ENDBRANCH  14  18
ENDBRANCH   1  14
TORSDOF 3
ENDMDL
MODEL 2
REMARK VINA RESULT:    -7.018      1.601      2.500
REMARK INTER + INTRA:          -8.513
REMARK INTER:                  -8.301
REMARK INTRA:                  -0.213
REMARK UNBOUND:                -0.265
REMARK  Name = 140671083
REMARK  4 active torsions:
REMARK  status: ('A' for Active; 'I' for Inactive)
REMARK    1  A    between atoms: N_5  and  C_8
REMARK    2  A    between atoms: N_5  and  C_10
REMARK    3  A    between atoms: C_8  and  C_11
REMARK    4  A    between atoms: C_14  and  C_16
REMARK                            x       y       z     vdW  Elec       q    Type
REMARK                         _______ _______ _______ _____ _____    ______ ____
ROOT
ATOM      1  N   UNL     1     -18.146  40.456 -10.276  0.00  0.00    +0.000 N 
ATOM      2  N   UNL     1     -20.267  40.095  -9.250  0.00  0.00    +0.000 NA
ATOM      3  C   UNL     1     -19.126  40.816  -9.316  0.00  0.00    +0.000 A 
ATOM      4  C   UNL     1     -16.914  41.206 -10.374  0.00  0.00    +0.000 C 
ATOM      5  C   UNL     1     -18.843  41.899  -8.500  0.00  0.00    +0.000 A 
ATOM      6  C   UNL     1     -19.794  42.266  -7.553  0.00  0.00    +0.000 A 
ATOM      7  C   UNL     1     -20.981  41.549  -7.455  0.00  0.00    +0.000 A 
ATOM      8  C   UNL     1     -21.167  40.482  -8.319  0.00  0.00    +0.000 A 
ENDROOT
BRANCH   7  11
ATOM      9  O   UNL     1     -23.077  41.297  -6.412  0.00  0.00    +0.000 OA
ATOM     10  N   UNL     1     -21.708  42.944  -5.594  0.00  0.00    +0.000 N 
ATOM     11  C   UNL     1     -21.993  41.906  -6.477  0.00  0.00    +0.000 C 
ATOM     12  H   UNL     1     -20.852  43.485  -5.578  0.00  0.00    +0.000 HD
ATOM     13  H   UNL     1     -22.395  43.210  -4.897  0.00  0.00    +0.000 HD
ENDBRANCH   7  11
BRANCH   1  14
ATOM     14  C   UNL     1     -18.371  39.331 -11.157  0.00  0.00    +0.000 C 
BRANCH  14  18
ATOM     15  F   UNL     1     -19.967  38.967 -12.846  0.00  0.00    +0.000 F 
ATOM     16  F   UNL     1     -19.513  41.036 -12.330  0.00  0.00    +0.000 F 
ATOM     17  F   UNL     1     -18.062  39.841 -13.445  0.00  0.00    +0.000 F 
ATOM     18  C   UNL     1     -18.979  39.803 -12.455  0.00  0.00    +0.000 C 
ENDBRANCH  14  18
ENDBRANCH   1  14
TORSDOF 3
ENDMDL
MODEL 3
REMARK VINA RESULT:    -6.149      4.222      6.080
REMARK INTER + INTRA:          -7.491
REMARK INTER:                  -8.543
REMARK INTRA:                   1.052
REMARK UNBOUND:                -0.265
REMARK  Name = 140671083
REMARK  4 active torsions:
REMARK  status: ('A' for Active; 'I' for Inactive)
REMARK    1  A    between atoms: N_5  and  C_8
REMARK    2  A    between atoms: N_5  and  C_10
REMARK    3  A    between atoms: C_8  and  C_11
REMARK    4  A    between atoms: C_14  and  C_16
REMARK                            x       y       z     vdW  Elec       q    Type
REMARK                         _______ _______ _______ _____ _____    ______ ____
ROOT
ATOM      1  N   UNL     1     -20.527  41.025  -8.096  0.00  0.00    +0.000 N 
ATOM      2  N   UNL     1     -18.347  41.295  -9.018  0.00  0.00    +0.000 NA
ATOM      3  C   UNL     1     -19.573  40.735  -9.104  0.00  0.00    +0.000 A 
ATOM      4  C   UNL     1     -21.849  40.443  -8.156  0.00  0.00    +0.000 C 
ATOM      5  C   UNL     1     -19.969  39.884 -10.123  0.00  0.00    +0.000 A 
ATOM      6  C   UNL     1     -19.045  39.590 -11.120  0.00  0.00    +0.000 A 
ATOM      7  C   UNL     1     -17.773  40.148 -11.067  0.00  0.00    +0.000 A 
ATOM      8  C   UNL     1     -17.476  40.987 -10.005  0.00  0.00    +0.000 A 
ENDROOT
BRANCH   7  11
ATOM      9  O   UNL     1     -17.104  39.752 -13.290  0.00  0.00    +0.000 OA
ATOM     10  N   UNL     1     -15.456  39.726 -11.696  0.00  0.00    +0.000 N 
ATOM     11  C   UNL     1     -16.785  39.860 -12.092  0.00  0.00    +0.000 C 
ATOM     12  H   UNL     1     -15.115  39.803 -10.746  0.00  0.00    +0.000 HD
ATOM     13  H   UNL     1     -14.745  39.531 -12.393  0.00  0.00    +0.000 HD
ENDBRANCH   7  11
BRANCH   1  14
ATOM     14  C   UNL     1     -20.180  41.899  -6.997  0.00  0.00    +0.000 C 
BRANCH  14  18
ATOM     15  F   UNL     1     -21.130  42.656  -4.982  0.00  0.00    +0.000 F 
ATOM     16  F   UNL     1     -22.005  43.394  -6.837  0.00  0.00    +0.000 F 
ATOM     17  F   UNL     1     -22.337  41.325  -6.216  0.00  0.00    +0.000 F 
ATOM     18  C   UNL     1     -21.427  42.321  -6.258  0.00  0.00    +0.000 C 
ENDBRANCH  14  18
ENDBRANCH   1  14
TORSDOF 3
ENDMDL
MODEL 4
REMARK VINA RESULT:    -5.888      3.962      5.803
REMARK INTER + INTRA:          -7.185
REMARK INTER:                  -6.987
REMARK INTRA:                  -0.199
REMARK UNBOUND:                -0.265
REMARK  Name = 140671083
REMARK  4 active torsions:
REMARK  status: ('A' for Active; 'I' for Inactive)
REMARK    1  A    between atoms: N_5  and  C_8
REMARK    2  A    between atoms: N_5  and  C_10
REMARK    3  A    between atoms: C_8  and  C_11
REMARK    4  A    between atoms: C_14  and  C_16
REMARK                            x       y       z     vdW  Elec       q    Type
REMARK                         _______ _______ _______ _____ _____    ______ ____
ROOT
ATOM      1  N   UNL     1     -18.525  40.481 -10.631  0.00  0.00    +0.000 N 
ATOM      2  N   UNL     1     -17.587  42.669 -10.720  0.00  0.00    +0.000 NA
ATOM      3  C   UNL     1     -18.138  41.623 -11.375  0.00  0.00    +0.000 A 
ATOM      4  C   UNL     1     -19.118  39.344 -11.300  0.00  0.00    +0.000 C 
ATOM      5  C   UNL     1     -18.352  41.590 -12.744  0.00  0.00    +0.000 A 
ATOM      6  C   UNL     1     -17.977  42.703 -13.488  0.00  0.00    +0.000 A 
ATOM      7  C   UNL     1     -17.408  43.799 -12.850  0.00  0.00    +0.000 A 
ATOM      8  C   UNL     1     -17.236  43.733 -11.477  0.00  0.00    +0.000 A 
ENDROOT
BRANCH   7  11
ATOM      9  O   UNL     1     -17.752  45.968 -13.702  0.00  0.00    +0.000 OA
ATOM     10  N   UNL     1     -15.743  44.974 -14.187  0.00  0.00    +0.000 N 
ATOM     11  C   UNL     1     -17.005  44.977 -13.599  0.00  0.00    +0.000 C 
ATOM     12  H   UNL     1     -15.077  44.212 -14.146  0.00  0.00    +0.000 HD
ATOM     13  H   UNL     1     -15.434  45.786 -14.710  0.00  0.00    +0.000 HD
ENDBRANCH   7  11
BRANCH   1  14
ATOM     14  C   UNL     1     -18.324  40.443  -9.199  0.00  0.00    +0.000 C 
BRANCH  14  18
ATOM     15  F   UNL     1     -20.443  41.457  -9.080  0.00  0.00    +0.000 F 
ATOM     16  F   UNL     1     -20.309  39.357  -8.512  0.00  0.00    +0.000 F 
ATOM     17  F   UNL     1     -19.495  40.902  -7.197  0.00  0.00    +0.000 F 
ATOM     18  C   UNL     1     -19.652  40.535  -8.487  0.00  0.00    +0.000 C 
ENDBRANCH  14  18
ENDBRANCH   1  14
TORSDOF 3
ENDMDL
MODEL 5
REMARK VINA RESULT:    -5.701      5.027      6.589
REMARK INTER + INTRA:          -6.965
REMARK INTER:                  -6.806
REMARK INTRA:                  -0.159
REMARK UNBOUND:                -0.265
REMARK  Name = 140671083
REMARK  4 active torsions:
REMARK  status: ('A' for Active; 'I' for Inactive)
REMARK    1  A    between atoms: N_5  and  C_8
REMARK    2  A    between atoms: N_5  and  C_10
REMARK    3  A    between atoms: C_8  and  C_11
REMARK    4  A    between atoms: C_14  and  C_16
REMARK                            x       y       z     vdW  Elec       q    Type
REMARK                         _______ _______ _______ _____ _____    ______ ____
ROOT
ATOM      1  N   UNL     1     -19.611  43.797 -15.230  0.00  0.00    +0.000 N 
ATOM      2  N   UNL     1     -19.432  41.843 -13.877  0.00  0.00    +0.000 NA
ATOM      3  C   UNL     1     -18.932  43.045 -14.238  0.00  0.00    +0.000 A 
ATOM      4  C   UNL     1     -19.104  45.087 -15.640  0.00  0.00    +0.000 C 
ATOM      5  C   UNL     1     -17.784  43.602 -13.698  0.00  0.00    +0.000 A 
ATOM      6  C   UNL     1     -17.105  42.877 -12.724  0.00  0.00    +0.000 A 
ATOM      7  C   UNL     1     -17.589  41.637 -12.326  0.00  0.00    +0.000 A 
ATOM      8  C   UNL     1     -18.747  41.168 -12.927  0.00  0.00    +0.000 A 
ENDROOT
BRANCH   7  11
ATOM      9  O   UNL     1     -17.525  40.088 -10.553  0.00  0.00    +0.000 OA
ATOM     10  N   UNL     1     -15.519  40.974 -11.224  0.00  0.00    +0.000 N 
ATOM     11  C   UNL     1     -16.904  40.855 -11.312  0.00  0.00    +0.000 C 
ATOM     12  H   UNL     1     -14.942  41.569 -11.805  0.00  0.00    +0.000 HD
ATOM     13  H   UNL     1     -15.015  40.434 -10.529  0.00  0.00    +0.000 HD
ENDBRANCH   7  11
BRANCH   1  14
ATOM     14  C   UNL     1     -20.813  43.273 -15.842  0.00  0.00    +0.000 C 
BRANCH  14  18
ATOM     15  F   UNL     1     -21.250  41.913 -17.710  0.00  0.00    +0.000 F 
ATOM     16  F   UNL     1     -20.994  44.048 -18.069  0.00  0.00    +0.000 F 
ATOM     17  F   UNL     1     -19.266  42.805 -17.568  0.00  0.00    +0.000 F 
ATOM     18  C   UNL     1     -20.575  43.013 -17.310  0.00  0.00    +0.000 C 
ENDBRANCH  14  18
ENDBRANCH   1  14
TORSDOF 3
ENDMDL
