MODEL 1
REMARK VINA RESULT:    -6.159      0.000      0.000
REMARK INTER + INTRA:          -8.461
REMARK INTER:                  -8.140
REMARK INTRA:                  -0.321
REMARK UNBOUND:                -0.321
REMARK  Name = 140808813
REMARK  6 active torsions:
REMARK  status: ('A' for Active; 'I' for Inactive)
REMARK    1  A    between atoms: N_2  and  C_7
REMARK    2  A    between atoms: N_3  and  C_8
REMARK    3  A    between atoms: N_5  and  C_14
REMARK    4  A    between atoms: C_6  and  C_7
REMARK    5  A    between atoms: C_6  and  C_8
REMARK    6  A    between atoms: C_9  and  C_10
REMARK                            x       y       z     vdW  Elec       q    Type
REMARK                         _______ _______ _______ _____ _____    ______ ____
ROOT
ATOM      1  O   UNL     1     -19.227  38.946 -11.204  0.00  0.00    +0.000 OA
ATOM      2  N   UNL     1     -17.323  40.187 -10.736  0.00  0.00    +0.000 N 
ATOM      3  C   UNL     1     -18.633  39.774 -10.517  0.00  0.00    +0.000 C 
ATOM      4  H   UNL     1     -16.912  40.917 -10.164  0.00  0.00    +0.000 HD
ENDROOT
BRANCH   3   6
ATOM      5  N   UNL     1     -19.297  42.002  -7.554  0.00  0.00    +0.000 NA
ATOM      6  C   UNL     1     -19.340  40.419  -9.381  0.00  0.00    +0.000 A 
ATOM      7  C   UNL     1     -20.651  40.080  -9.067  0.00  0.00    +0.000 A 
ATOM      8  C   UNL     1     -18.712  41.377  -8.601  0.00  0.00    +0.000 A 
ATOM      9  C   UNL     1     -21.287  40.702  -7.998  0.00  0.00    +0.000 A 
ATOM     10  C   UNL     1     -20.573  41.647  -7.279  0.00  0.00    +0.000 A 
BRANCH  10  11
ATOM     11  N   UNL     1     -21.226  42.253  -6.218  0.00  0.00    +0.000 NA
ATOM     12  C   UNL     1     -21.779  42.766  -5.320  0.00  0.00    +0.000 C 
ENDBRANCH  10  11
ENDBRANCH   3   6
BRANCH   2  13
ATOM     13  C   UNL     1     -16.516  39.674 -11.810  0.00  0.00    +0.000 C 
BRANCH  13  14
ATOM     14  C   UNL     1     -16.987  40.157 -13.178  0.00  0.00    +0.000 C 
BRANCH  14  15
ATOM     15  C   UNL     1     -17.341  41.645 -13.180  0.00  0.00    +0.000 C 
BRANCH  15  16
ATOM     16  N   UNL     1     -16.181  42.439 -12.789  0.00  0.00    +0.000 NA
ATOM     17  H   UNL     1     -16.286  42.735 -11.819  0.00  0.00    +0.000 HD
ATOM     18  H   UNL     1     -16.145  43.292 -13.346  0.00  0.00    +0.000 HD
ENDBRANCH  15  16
ENDBRANCH  14  15
ENDBRANCH  13  14
ENDBRANCH   2  13
TORSDOF 6
ENDMDL
MODEL 2
REMARK VINA RESULT:    -5.649      2.355      6.327
REMARK INTER + INTRA:          -7.786
REMARK INTER:                  -7.568
REMARK INTRA:                  -0.218
REMARK UNBOUND:                -0.321
REMARK  Name = 140808813
REMARK  6 active torsions:
REMARK  status: ('A' for Active; 'I' for Inactive)
REMARK    1  A    between atoms: N_2  and  C_7
REMARK    2  A    between atoms: N_3  and  C_8
REMARK    3  A    between atoms: N_5  and  C_14
REMARK    4  A    between atoms: C_6  and  C_7
REMARK    5  A    between atoms: C_6  and  C_8
REMARK    6  A    between atoms: C_9  and  C_10
REMARK                            x       y       z     vdW  Elec       q    Type
REMARK                         _______ _______ _______ _____ _____    ______ ____
ROOT
ATOM      1  O   UNL     1     -17.566  40.514  -9.391  0.00  0.00    +0.000 OA
ATOM      2  N   UNL     1     -19.667  41.310  -8.809  0.00  0.00    +0.000 N 
ATOM      3  C   UNL     1     -18.623  41.063  -9.694  0.00  0.00    +0.000 C 
ATOM      4  H   UNL     1     -20.491  41.817  -9.114  0.00  0.00    +0.000 HD
ENDROOT
BRANCH   3   6
ATOM      5  N   UNL     1     -19.901  41.223 -13.234  0.00  0.00    +0.000 NA
ATOM      6  C   UNL     1     -18.825  41.529 -11.090  0.00  0.00    +0.000 A 
ATOM      7  C   UNL     1     -18.172  42.658 -11.571  0.00  0.00    +0.000 A 
ATOM      8  C   UNL     1     -19.672  40.852 -11.953  0.00  0.00    +0.000 A 
ATOM      9  C   UNL     1     -18.383  43.071 -12.882  0.00  0.00    +0.000 A 
ATOM     10  C   UNL     1     -19.248  42.325 -13.666  0.00  0.00    +0.000 A 
BRANCH  10  11
ATOM     11  N   UNL     1     -19.443  42.755 -14.968  0.00  0.00    +0.000 NA
ATOM     12  C   UNL     1     -19.606  43.119 -16.071  0.00  0.00    +0.000 C 
ENDBRANCH  10  11
ENDBRANCH   3   6
BRANCH   2  13
ATOM     13  C   UNL     1     -19.612  40.939  -7.421  0.00  0.00    +0.000 C 
BRANCH  13  14
ATOM     14  C   UNL     1     -20.178  42.020  -6.504  0.00  0.00    +0.000 C 
BRANCH  14  15
ATOM     15  C   UNL     1     -21.704  42.085  -6.554  0.00  0.00    +0.000 C 
BRANCH  15  16
ATOM     16  N   UNL     1     -22.154  43.470  -6.458  0.00  0.00    +0.000 NA
ATOM     17  H   UNL     1     -23.006  43.588  -7.005  0.00  0.00    +0.000 HD
ATOM     18  H   UNL     1     -21.458  44.086  -6.877  0.00  0.00    +0.000 HD
ENDBRANCH  15  16
ENDBRANCH  14  15
ENDBRANCH  13  14
ENDBRANCH   2  13
TORSDOF 6
ENDMDL
MODEL 3
REMARK VINA RESULT:    -5.534      1.836      6.121
REMARK INTER + INTRA:          -7.635
REMARK INTER:                  -7.433
REMARK INTRA:                  -0.202
REMARK UNBOUND:                -0.321
REMARK  Name = 140808813
REMARK  6 active torsions:
REMARK  status: ('A' for Active; 'I' for Inactive)
REMARK    1  A    between atoms: N_2  and  C_7
REMARK    2  A    between atoms: N_3  and  C_8
REMARK    3  A    between atoms: N_5  and  C_14
REMARK    4  A    between atoms: C_6  and  C_7
REMARK    5  A    between atoms: C_6  and  C_8
REMARK    6  A    between atoms: C_9  and  C_10
REMARK                            x       y       z     vdW  Elec       q    Type
REMARK                         _______ _______ _______ _____ _____    ______ ____
ROOT
ATOM      1  O   UNL     1     -19.587  39.316 -10.223  0.00  0.00    +0.000 OA
ATOM      2  N   UNL     1     -20.460  41.110  -9.040  0.00  0.00    +0.000 N 
ATOM      3  C   UNL     1     -19.660  40.524 -10.014  0.00  0.00    +0.000 C 
ATOM      4  H   UNL     1     -20.430  42.112  -8.884  0.00  0.00    +0.000 HD
ENDROOT
BRANCH   3   6
ATOM      5  N   UNL     1     -17.014  43.047 -10.920  0.00  0.00    +0.000 NA
ATOM      6  C   UNL     1     -18.830  41.453 -10.824  0.00  0.00    +0.000 A 
ATOM      7  C   UNL     1     -19.054  41.615 -12.186  0.00  0.00    +0.000 A 
ATOM      8  C   UNL     1     -17.807  42.186 -10.242  0.00  0.00    +0.000 A 
ATOM      9  C   UNL     1     -18.259  42.491 -12.916  0.00  0.00    +0.000 A 
ATOM     10  C   UNL     1     -17.262  43.178 -12.243  0.00  0.00    +0.000 A 
BRANCH  10  11
ATOM     11  N   UNL     1     -16.483  44.045 -12.991  0.00  0.00    +0.000 NA
ATOM     12  C   UNL     1     -15.824  44.780 -13.625  0.00  0.00    +0.000 C 
ENDBRANCH  10  11
ENDBRANCH   3   6
BRANCH   2  13
ATOM     13  C   UNL     1     -21.302  40.343  -8.162  0.00  0.00    +0.000 C 
BRANCH  13  14
ATOM     14  C   UNL     1     -22.399  41.186  -7.518  0.00  0.00    +0.000 C 
BRANCH  14  15
ATOM     15  C   UNL     1     -21.854  42.471  -6.892  0.00  0.00    +0.000 C 
BRANCH  15  16
ATOM     16  N   UNL     1     -22.814  43.012  -5.936  0.00  0.00    +0.000 NA
ATOM     17  H   UNL     1     -23.673  42.462  -5.970  0.00  0.00    +0.000 HD
ATOM     18  H   UNL     1     -23.072  43.960  -6.208  0.00  0.00    +0.000 HD
ENDBRANCH  15  16
ENDBRANCH  14  15
ENDBRANCH  13  14
ENDBRANCH   2  13
TORSDOF 6
ENDMDL
MODEL 4
REMARK VINA RESULT:    -5.351      4.249      5.679
REMARK INTER + INTRA:          -7.393
REMARK INTER:                  -6.852
REMARK INTRA:                  -0.541
REMARK UNBOUND:                -0.321
REMARK  Name = 140808813
REMARK  6 active torsions:
REMARK  status: ('A' for Active; 'I' for Inactive)
REMARK    1  A    between atoms: N_2  and  C_7
REMARK    2  A    between atoms: N_3  and  C_8
REMARK    3  A    between atoms: N_5  and  C_14
REMARK    4  A    between atoms: C_6  and  C_7
REMARK    5  A    between atoms: C_6  and  C_8
REMARK    6  A    between atoms: C_9  and  C_10
REMARK                            x       y       z     vdW  Elec       q    Type
REMARK                         _______ _______ _______ _____ _____    ______ ____
ROOT
ATOM      1  O   UNL     1     -18.840  44.700 -14.980  0.00  0.00    +0.000 OA
ATOM      2  N   UNL     1     -19.662  42.702 -15.825  0.00  0.00    +0.000 N 
ATOM      3  C   UNL     1     -19.153  43.522 -14.825  0.00  0.00    +0.000 C 
ATOM      4  H   UNL     1     -19.848  41.721 -15.642  0.00  0.00    +0.000 HD
ENDROOT
BRANCH   3   6
ATOM      5  N   UNL     1     -17.917  42.938 -11.315  0.00  0.00    +0.000 NA
ATOM      6  C   UNL     1     -18.966  42.890 -13.493  0.00  0.00    +0.000 A 
ATOM      7  C   UNL     1     -19.621  41.710 -13.161  0.00  0.00    +0.000 A 
ATOM      8  C   UNL     1     -18.131  43.459 -12.545  0.00  0.00    +0.000 A 
ATOM      9  C   UNL     1     -19.426  41.143 -11.906  0.00  0.00    +0.000 A 
ATOM     10  C   UNL     1     -18.571  41.790 -11.028  0.00  0.00    +0.000 A 
BRANCH  10  11
ATOM     11  N   UNL     1     -18.393  41.207  -9.784  0.00  0.00    +0.000 NA
ATOM     12  C   UNL     1     -18.240  40.712  -8.731  0.00  0.00    +0.000 C 
ENDBRANCH  10  11
ENDBRANCH   3   6
BRANCH   2  13
ATOM     13  C   UNL     1     -19.878  43.161 -17.171  0.00  0.00    +0.000 C 
BRANCH  13  14
ATOM     14  C   UNL     1     -21.341  43.066 -17.594  0.00  0.00    +0.000 C 
BRANCH  14  15
ATOM     15  C   UNL     1     -22.188  44.201 -17.017  0.00  0.00    +0.000 C 
BRANCH  15  16
ATOM     16  N   UNL     1     -22.753  43.804 -15.732  0.00  0.00    +0.000 NA
ATOM     17  H   UNL     1     -22.927  44.635 -15.167  0.00  0.00    +0.000 HD
ATOM     18  H   UNL     1     -22.074  43.245 -15.216  0.00  0.00    +0.000 HD
ENDBRANCH  15  16
ENDBRANCH  14  15
ENDBRANCH  13  14
ENDBRANCH   2  13
TORSDOF 6
ENDMDL
MODEL 5
REMARK VINA RESULT:    -5.120      2.609      6.165
REMARK INTER + INTRA:          -7.088
REMARK INTER:                  -6.594
REMARK INTRA:                  -0.493
REMARK UNBOUND:                -0.321
REMARK  Name = 140808813
REMARK  6 active torsions:
REMARK  status: ('A' for Active; 'I' for Inactive)
REMARK    1  A    between atoms: N_2  and  C_7
REMARK    2  A    between atoms: N_3  and  C_8
REMARK    3  A    between atoms: N_5  and  C_14
REMARK    4  A    between atoms: C_6  and  C_7
REMARK    5  A    between atoms: C_6  and  C_8
REMARK    6  A    between atoms: C_9  and  C_10
REMARK                            x       y       z     vdW  Elec       q    Type
REMARK                         _______ _______ _______ _____ _____    ______ ____
ROOT
ATOM      1  O   UNL     1     -17.883  40.052 -11.360  0.00  0.00    +0.000 OA
ATOM      2  N   UNL     1     -18.572  41.665  -9.842  0.00  0.00    +0.000 N 
ATOM      3  C   UNL     1     -18.289  41.186 -11.116  0.00  0.00    +0.000 C 
ATOM      4  H   UNL     1     -18.851  42.631  -9.706  0.00  0.00    +0.000 HD
ENDROOT
BRANCH   3   6
ATOM      5  N   UNL     1     -17.710  44.107 -13.421  0.00  0.00    +0.000 NA
ATOM      6  C   UNL     1     -18.478  42.147 -12.233  0.00  0.00    +0.000 A 
ATOM      7  C   UNL     1     -19.544  42.019 -13.116  0.00  0.00    +0.000 A 
ATOM      8  C   UNL     1     -17.597  43.199 -12.425  0.00  0.00    +0.000 A 
ATOM      9  C   UNL     1     -19.694  42.934 -14.153  0.00  0.00    +0.000 A 
ATOM     10  C   UNL     1     -18.759  43.951 -14.260  0.00  0.00    +0.000 A 
BRANCH  10  11
ATOM     11  N   UNL     1     -18.929  44.850 -15.300  0.00  0.00    +0.000 NA
ATOM     12  C   UNL     1     -19.071  45.611 -16.182  0.00  0.00    +0.000 C 
ENDBRANCH  10  11
ENDBRANCH   3   6
BRANCH   2  13
ATOM     13  C   UNL     1     -18.416  40.864  -8.658  0.00  0.00    +0.000 C 
BRANCH  13  14
ATOM     14  C   UNL     1     -19.488  41.152  -7.611  0.00  0.00    +0.000 C 
BRANCH  14  15
ATOM     15  C   UNL     1     -20.902  40.921  -8.147  0.00  0.00    +0.000 C 
BRANCH  15  16
ATOM     16  N   UNL     1     -20.925  39.753  -9.021  0.00  0.00    +0.000 NA
ATOM     17  H   UNL     1     -20.749  40.046  -9.982  0.00  0.00    +0.000 HD
ATOM     18  H   UNL     1     -21.857  39.339  -9.015  0.00  0.00    +0.000 HD
ENDBRANCH  15  16
ENDBRANCH  14  15
ENDBRANCH  13  14
ENDBRANCH   2  13
TORSDOF 6
ENDMDL
