MODEL 1
REMARK VINA RESULT:    -6.082      0.000      0.000
REMARK INTER + INTRA:          -7.137
REMARK INTER:                  -6.793
REMARK INTRA:                  -0.344
REMARK UNBOUND:                -0.344
REMARK  Name = 141212359
REMARK  2 active torsions:
REMARK  status: ('A' for Active; 'I' for Inactive)
REMARK    1  A    between atoms: N_2  and  C_8
REMARK    2  A    between atoms: C_10  and  C_12
REMARK                            x       y       z     vdW  Elec       q    Type
REMARK                         _______ _______ _______ _____ _____    ______ ____
ROOT
ATOM      1  N   UNL     1     -18.416  42.426  -8.690  0.00  0.00    +0.000 NA
ATOM      2  C   UNL     1     -18.460  41.776  -9.875  0.00  0.00    +0.000 A 
ATOM      3  C   UNL     1     -19.232  40.651 -10.114  0.00  0.00    +0.000 A 
ATOM      4  C   UNL     1     -20.012  40.162  -9.071  0.00  0.00    +0.000 A 
ATOM      5  C   UNL     1     -19.993  40.803  -7.837  0.00  0.00    +0.000 A 
ATOM      6  C   UNL     1     -19.186  41.921  -7.700  0.00  0.00    +0.000 A 
ENDROOT
BRANCH   3   9
ATOM      7  O   UNL     1     -18.647  38.903 -11.579  0.00  0.00    +0.000 OA
ATOM      8  N   UNL     1     -20.004  40.547 -12.423  0.00  0.00    +0.000 N 
ATOM      9  C   UNL     1     -19.257  39.970 -11.401  0.00  0.00    +0.000 C 
ATOM     10  H   UNL     1     -20.515  41.415 -12.294  0.00  0.00    +0.000 HD
ATOM     11  H   UNL     1     -20.061  40.112 -13.338  0.00  0.00    +0.000 HD
ENDBRANCH   3   9
BRANCH   2  12
ATOM     12  N   UNL     1     -17.662  42.279 -10.933  0.00  0.00    +0.000 N 
ATOM     13  N   UNL     1     -18.174  43.157 -11.797  0.00  0.00    +0.000 NA
ATOM     14  C   UNL     1     -16.310  41.875 -11.148  0.00  0.00    +0.000 C 
ATOM     15  C   UNL     1     -15.939  42.672 -12.385  0.00  0.00    +0.000 C 
ATOM     16  C   UNL     1     -17.219  43.396 -12.629  0.00  0.00    +0.000 C 
ENDBRANCH   2  12
TORSDOF 2
ENDMDL
MODEL 2
REMARK VINA RESULT:    -5.116      2.896      5.285
REMARK INTER + INTRA:          -6.058
REMARK INTER:                  -5.736
REMARK INTRA:                  -0.322
REMARK UNBOUND:                -0.344
REMARK  Name = 141212359
REMARK  2 active torsions:
REMARK  status: ('A' for Active; 'I' for Inactive)
REMARK    1  A    between atoms: N_2  and  C_8
REMARK    2  A    between atoms: C_10  and  C_12
REMARK                            x       y       z     vdW  Elec       q    Type
REMARK                         _______ _______ _______ _____ _____    ______ ____
ROOT
ATOM      1  N   UNL     1     -19.673  42.305 -14.666  0.00  0.00    +0.000 NA
ATOM      2  C   UNL     1     -18.729  42.421 -13.705  0.00  0.00    +0.000 A 
ATOM      3  C   UNL     1     -17.979  43.566 -13.490  0.00  0.00    +0.000 A 
ATOM      4  C   UNL     1     -18.213  44.663 -14.312  0.00  0.00    +0.000 A 
ATOM      5  C   UNL     1     -19.176  44.582 -15.312  0.00  0.00    +0.000 A 
ATOM      6  C   UNL     1     -19.872  43.391 -15.446  0.00  0.00    +0.000 A 
ENDROOT
BRANCH   3   9
ATOM      7  O   UNL     1     -17.232  44.123 -11.327  0.00  0.00    +0.000 OA
ATOM      8  N   UNL     1     -15.688  43.195 -12.745  0.00  0.00    +0.000 N 
ATOM      9  C   UNL     1     -16.965  43.660 -12.448  0.00  0.00    +0.000 C 
ATOM     10  H   UNL     1     -15.453  42.806 -13.653  0.00  0.00    +0.000 HD
ATOM     11  H   UNL     1     -14.945  43.230 -12.055  0.00  0.00    +0.000 HD
ENDBRANCH   3   9
BRANCH   2  12
ATOM     12  N   UNL     1     -18.495  41.299 -12.872  0.00  0.00    +0.000 N 
ATOM     13  N   UNL     1     -17.397  40.559 -13.041  0.00  0.00    +0.000 NA
ATOM     14  C   UNL     1     -19.399  40.887 -11.848  0.00  0.00    +0.000 C 
ATOM     15  C   UNL     1     -18.702  39.659 -11.291  0.00  0.00    +0.000 C 
ATOM     16  C   UNL     1     -17.490  39.624 -12.157  0.00  0.00    +0.000 C 
ENDBRANCH   2  12
TORSDOF 2
ENDMDL
MODEL 3
REMARK VINA RESULT:    -4.791      6.932      8.535
REMARK INTER + INTRA:          -5.695
REMARK INTER:                  -5.331
REMARK INTRA:                  -0.364
REMARK UNBOUND:                -0.344
REMARK  Name = 141212359
REMARK  2 active torsions:
REMARK  status: ('A' for Active; 'I' for Inactive)
REMARK    1  A    between atoms: N_2  and  C_8
REMARK    2  A    between atoms: C_10  and  C_12
REMARK                            x       y       z     vdW  Elec       q    Type
REMARK                         _______ _______ _______ _____ _____    ______ ____
ROOT
ATOM      1  N   UNL     1     -21.869  46.091 -18.380  0.00  0.00    +0.000 NA
ATOM      2  C   UNL     1     -21.025  45.090 -18.039  0.00  0.00    +0.000 A 
ATOM      3  C   UNL     1     -21.351  44.066 -17.165  0.00  0.00    +0.000 A 
ATOM      4  C   UNL     1     -22.624  44.067 -16.605  0.00  0.00    +0.000 A 
ATOM      5  C   UNL     1     -23.520  45.079 -16.931  0.00  0.00    +0.000 A 
ATOM      6  C   UNL     1     -23.097  46.059 -17.815  0.00  0.00    +0.000 A 
ENDROOT
BRANCH   3   9
ATOM      7  O   UNL     1     -20.478  41.887 -17.357  0.00  0.00    +0.000 OA
ATOM      8  N   UNL     1     -19.445  43.285 -15.862  0.00  0.00    +0.000 N 
ATOM      9  C   UNL     1     -20.419  43.002 -16.815  0.00  0.00    +0.000 C 
ATOM     10  H   UNL     1     -19.376  44.193 -15.414  0.00  0.00    +0.000 HD
ATOM     11  H   UNL     1     -18.766  42.584 -15.585  0.00  0.00    +0.000 HD
ENDBRANCH   3   9
BRANCH   2  12
ATOM     12  N   UNL     1     -19.729  45.096 -18.613  0.00  0.00    +0.000 N 
ATOM     13  N   UNL     1     -18.710  45.651 -17.954  0.00  0.00    +0.000 NA
ATOM     14  C   UNL     1     -19.444  44.548 -19.899  0.00  0.00    +0.000 C 
ATOM     15  C   UNL     1     -17.959  44.828 -20.036  0.00  0.00    +0.000 C 
ATOM     16  C   UNL     1     -17.696  45.512 -18.739  0.00  0.00    +0.000 C 
ENDBRANCH   2  12
TORSDOF 2
ENDMDL
MODEL 4
REMARK VINA RESULT:    -4.684      2.541      3.085
REMARK INTER + INTRA:          -5.576
REMARK INTER:                  -5.534
REMARK INTRA:                  -0.042
REMARK UNBOUND:                -0.344
REMARK  Name = 141212359
REMARK  2 active torsions:
REMARK  status: ('A' for Active; 'I' for Inactive)
REMARK    1  A    between atoms: N_2  and  C_8
REMARK    2  A    between atoms: C_10  and  C_12
REMARK                            x       y       z     vdW  Elec       q    Type
REMARK                         _______ _______ _______ _____ _____    ______ ____
ROOT
ATOM      1  N   UNL     1     -17.342  41.248 -10.892  0.00  0.00    +0.000 NA
ATOM      2  C   UNL     1     -17.811  42.030 -11.891  0.00  0.00    +0.000 A 
ATOM      3  C   UNL     1     -18.908  41.711 -12.674  0.00  0.00    +0.000 A 
ATOM      4  C   UNL     1     -19.568  40.515 -12.417  0.00  0.00    +0.000 A 
ATOM      5  C   UNL     1     -19.116  39.684 -11.397  0.00  0.00    +0.000 A 
ATOM      6  C   UNL     1     -18.009  40.093 -10.671  0.00  0.00    +0.000 A 
ENDROOT
BRANCH   3   9
ATOM      7  O   UNL     1     -19.231  42.267 -14.940  0.00  0.00    +0.000 OA
ATOM      8  N   UNL     1     -20.047  43.744 -13.387  0.00  0.00    +0.000 N 
ATOM      9  C   UNL     1     -19.388  42.573 -13.746  0.00  0.00    +0.000 C 
ATOM     10  H   UNL     1     -20.191  44.007 -12.418  0.00  0.00    +0.000 HD
ATOM     11  H   UNL     1     -20.407  44.378 -14.093  0.00  0.00    +0.000 HD
ENDBRANCH   3   9
BRANCH   2  12
ATOM     12  N   UNL     1     -17.133  43.247 -12.149  0.00  0.00    +0.000 N 
ATOM     13  N   UNL     1     -16.221  43.310 -13.122  0.00  0.00    +0.000 NA
ATOM     14  C   UNL     1     -17.356  44.438 -11.396  0.00  0.00    +0.000 C 
ATOM     15  C   UNL     1     -16.388  45.408 -12.049  0.00  0.00    +0.000 C 
ATOM     16  C   UNL     1     -15.785  44.524 -13.086  0.00  0.00    +0.000 C 
ENDBRANCH   2  12
TORSDOF 2
ENDMDL
MODEL 5
REMARK VINA RESULT:    -4.521      4.371      6.092
REMARK INTER + INTRA:          -5.393
REMARK INTER:                  -5.171
REMARK INTRA:                  -0.222
REMARK UNBOUND:                -0.344
REMARK  Name = 141212359
REMARK  2 active torsions:
REMARK  status: ('A' for Active; 'I' for Inactive)
REMARK    1  A    between atoms: N_2  and  C_8
REMARK    2  A    between atoms: C_10  and  C_12
REMARK                            x       y       z     vdW  Elec       q    Type
REMARK                         _______ _______ _______ _____ _____    ______ ____
ROOT
ATOM      1  N   UNL     1     -19.307  41.760 -13.830  0.00  0.00    +0.000 NA
ATOM      2  C   UNL     1     -19.323  42.926 -14.516  0.00  0.00    +0.000 A 
ATOM      3  C   UNL     1     -18.537  44.022 -14.200  0.00  0.00    +0.000 A 
ATOM      4  C   UNL     1     -17.678  43.917 -13.111  0.00  0.00    +0.000 A 
ATOM      5  C   UNL     1     -17.634  42.734 -12.380  0.00  0.00    +0.000 A 
ATOM      6  C   UNL     1     -18.461  41.695 -12.778  0.00  0.00    +0.000 A 
ENDROOT
BRANCH   3   9
ATOM      7  O   UNL     1     -18.972  46.324 -14.440  0.00  0.00    +0.000 OA
ATOM      8  N   UNL     1     -18.142  45.233 -16.278  0.00  0.00    +0.000 N 
ATOM      9  C   UNL     1     -18.578  45.265 -14.957  0.00  0.00    +0.000 C 
ATOM     10  H   UNL     1     -17.810  44.379 -16.715  0.00  0.00    +0.000 HD
ATOM     11  H   UNL     1     -18.143  46.071 -16.849  0.00  0.00    +0.000 HD
ENDBRANCH   3   9
BRANCH   2  12
ATOM     12  N   UNL     1     -20.201  43.026 -15.623  0.00  0.00    +0.000 N 
ATOM     13  N   UNL     1     -19.817  42.586 -16.823  0.00  0.00    +0.000 NA
ATOM     14  C   UNL     1     -21.501  43.607 -15.536  0.00  0.00    +0.000 C 
ATOM     15  C   UNL     1     -21.995  43.487 -16.966  0.00  0.00    +0.000 C 
ATOM     16  C   UNL     1     -20.816  42.834 -17.601  0.00  0.00    +0.000 C 
ENDBRANCH   2  12
TORSDOF 2
ENDMDL
