MODEL 1
REMARK VINA RESULT:    -6.200      0.000      0.000
REMARK INTER + INTRA:          -7.092
REMARK INTER:                  -6.925
REMARK INTRA:                  -0.167
REMARK UNBOUND:                -0.167
REMARK  Name = 141362462
REMARK  2 active torsions:
REMARK  status: ('A' for Active; 'I' for Inactive)
REMARK    1  A    between atoms: N_2  and  C_5
REMARK    2  A    between atoms: C_6  and  C_13
REMARK                            x       y       z     vdW  Elec       q    Type
REMARK                         _______ _______ _______ _____ _____    ______ ____
ROOT
ATOM      1  N   UNL     1     -18.503  42.334  -8.463  0.00  0.00    +0.000 NA
ATOM      2  C   UNL     1     -18.492  41.723  -9.669  0.00  0.00    +0.000 A 
ATOM      3  C   UNL     1     -19.316  40.662 -10.009  0.00  0.00    +0.000 A 
ATOM      4  C   UNL     1     -20.209  40.198  -9.050  0.00  0.00    +0.000 A 
ATOM      5  C   UNL     1     -20.250  40.802  -7.797  0.00  0.00    +0.000 A 
ATOM      6  C   UNL     1     -19.384  41.856  -7.556  0.00  0.00    +0.000 A 
ENDROOT
BRANCH   3   9
ATOM      7  O   UNL     1     -18.657  38.963 -11.501  0.00  0.00    +0.000 OA
ATOM      8  N   UNL     1     -19.992  40.624 -12.350  0.00  0.00    +0.000 N 
ATOM      9  C   UNL     1     -19.283  40.021 -11.316  0.00  0.00    +0.000 C 
ATOM     10  H   UNL     1     -20.512  41.485 -12.215  0.00  0.00    +0.000 HD
ATOM     11  H   UNL     1     -20.007  40.217 -13.279  0.00  0.00    +0.000 HD
ENDBRANCH   3   9
BRANCH   2  12
ATOM     12  N   UNL     1     -17.588  42.207 -10.606  0.00  0.00    +0.000 N 
ATOM     13  C   UNL     1     -17.752  43.349 -11.345  0.00  0.00    +0.000 A 
ATOM     14  C   UNL     1     -16.397  41.614 -10.935  0.00  0.00    +0.000 A 
ATOM     15  C   UNL     1     -16.649  43.487 -12.158  0.00  0.00    +0.000 A 
ATOM     16  C   UNL     1     -15.791  42.389 -11.898  0.00  0.00    +0.000 A 
ENDBRANCH   2  12
TORSDOF 2
ENDMDL
MODEL 2
REMARK VINA RESULT:    -5.140      2.772      5.211
REMARK INTER + INTRA:          -5.909
REMARK INTER:                  -5.670
REMARK INTRA:                  -0.239
REMARK UNBOUND:                -0.167
REMARK  Name = 141362462
REMARK  2 active torsions:
REMARK  status: ('A' for Active; 'I' for Inactive)
REMARK    1  A    between atoms: N_2  and  C_5
REMARK    2  A    between atoms: C_6  and  C_13
REMARK                            x       y       z     vdW  Elec       q    Type
REMARK                         _______ _______ _______ _____ _____    ______ ____
ROOT
ATOM      1  N   UNL     1     -19.960  42.276 -14.371  0.00  0.00    +0.000 NA
ATOM      2  C   UNL     1     -18.952  42.351 -13.474  0.00  0.00    +0.000 A 
ATOM      3  C   UNL     1     -18.042  43.394 -13.414  0.00  0.00    +0.000 A 
ATOM      4  C   UNL     1     -18.174  44.427 -14.335  0.00  0.00    +0.000 A 
ATOM      5  C   UNL     1     -19.199  44.386 -15.274  0.00  0.00    +0.000 A 
ATOM      6  C   UNL     1     -20.058  43.299 -15.251  0.00  0.00    +0.000 A 
ENDROOT
BRANCH   3   9
ATOM      7  O   UNL     1     -17.147  43.912 -11.298  0.00  0.00    +0.000 OA
ATOM      8  N   UNL     1     -15.723  42.946 -12.813  0.00  0.00    +0.000 N 
ATOM      9  C   UNL     1     -16.964  43.449 -12.436  0.00  0.00    +0.000 C 
ATOM     10  H   UNL     1     -15.558  42.559 -13.737  0.00  0.00    +0.000 HD
ATOM     11  H   UNL     1     -14.939  42.955 -12.169  0.00  0.00    +0.000 HD
ENDBRANCH   3   9
BRANCH   2  12
ATOM     12  N   UNL     1     -18.845  41.304 -12.568  0.00  0.00    +0.000 N 
ATOM     13  C   UNL     1     -19.474  41.242 -11.352  0.00  0.00    +0.000 A 
ATOM     14  C   UNL     1     -18.090  40.175 -12.752  0.00  0.00    +0.000 A 
ATOM     15  C   UNL     1     -19.116  40.056 -10.752  0.00  0.00    +0.000 A 
ATOM     16  C   UNL     1     -18.240  39.380 -11.637  0.00  0.00    +0.000 A 
ENDBRANCH   2  12
TORSDOF 2
ENDMDL
MODEL 3
REMARK VINA RESULT:    -5.006      2.135      4.614
REMARK INTER + INTRA:          -5.759
REMARK INTER:                  -5.647
REMARK INTRA:                  -0.112
REMARK UNBOUND:                -0.167
REMARK  Name = 141362462
REMARK  2 active torsions:
REMARK  status: ('A' for Active; 'I' for Inactive)
REMARK    1  A    between atoms: N_2  and  C_5
REMARK    2  A    between atoms: C_6  and  C_13
REMARK                            x       y       z     vdW  Elec       q    Type
REMARK                         _______ _______ _______ _____ _____    ______ ____
ROOT
ATOM      1  N   UNL     1     -15.788  42.168 -11.309  0.00  0.00    +0.000 NA
ATOM      2  C   UNL     1     -16.990  42.156 -11.927  0.00  0.00    +0.000 A 
ATOM      3  C   UNL     1     -17.350  43.032 -12.937  0.00  0.00    +0.000 A 
ATOM      4  C   UNL     1     -16.418  43.981 -13.340  0.00  0.00    +0.000 A 
ATOM      5  C   UNL     1     -15.170  44.024 -12.729  0.00  0.00    +0.000 A 
ATOM      6  C   UNL     1     -14.906  43.104 -11.727  0.00  0.00    +0.000 A 
ENDROOT
BRANCH   3   9
ATOM      7  O   UNL     1     -18.962  42.086 -14.372  0.00  0.00    +0.000 OA
ATOM      8  N   UNL     1     -19.555  44.014 -13.281  0.00  0.00    +0.000 N 
ATOM      9  C   UNL     1     -18.655  42.998 -13.586  0.00  0.00    +0.000 C 
ATOM     10  H   UNL     1     -19.322  44.764 -12.638  0.00  0.00    +0.000 HD
ATOM     11  H   UNL     1     -20.478  44.036 -13.700  0.00  0.00    +0.000 HD
ENDBRANCH   3   9
BRANCH   2  12
ATOM     12  N   UNL     1     -17.901  41.198 -11.501  0.00  0.00    +0.000 N 
ATOM     13  C   UNL     1     -18.017  39.934 -12.017  0.00  0.00    +0.000 A 
ATOM     14  C   UNL     1     -18.823  41.373 -10.503  0.00  0.00    +0.000 A 
ATOM     15  C   UNL     1     -19.029  39.293 -11.338  0.00  0.00    +0.000 A 
ATOM     16  C   UNL     1     -19.539  40.203 -10.380  0.00  0.00    +0.000 A 
ENDBRANCH   2  12
TORSDOF 2
ENDMDL
MODEL 4
REMARK VINA RESULT:    -4.863      2.018      2.753
REMARK INTER + INTRA:          -5.599
REMARK INTER:                  -5.404
REMARK INTRA:                  -0.194
REMARK UNBOUND:                -0.167
REMARK  Name = 141362462
REMARK  2 active torsions:
REMARK  status: ('A' for Active; 'I' for Inactive)
REMARK    1  A    between atoms: N_2  and  C_5
REMARK    2  A    between atoms: C_6  and  C_13
REMARK                            x       y       z     vdW  Elec       q    Type
REMARK                         _______ _______ _______ _____ _____    ______ ____
ROOT
ATOM      1  N   UNL     1     -17.536  41.864 -10.186  0.00  0.00    +0.000 NA
ATOM      2  C   UNL     1     -17.859  42.342 -11.408  0.00  0.00    +0.000 A 
ATOM      3  C   UNL     1     -18.899  41.854 -12.182  0.00  0.00    +0.000 A 
ATOM      4  C   UNL     1     -19.657  40.808 -11.670  0.00  0.00    +0.000 A 
ATOM      5  C   UNL     1     -19.356  40.289 -10.415  0.00  0.00    +0.000 A 
ATOM      6  C   UNL     1     -18.296  40.847  -9.720  0.00  0.00    +0.000 A 
ENDROOT
BRANCH   3   9
ATOM      7  O   UNL     1     -18.825  41.834 -14.537  0.00  0.00    +0.000 OA
ATOM      8  N   UNL     1     -20.013  43.532 -13.555  0.00  0.00    +0.000 N 
ATOM      9  C   UNL     1     -19.224  42.388 -13.498  0.00  0.00    +0.000 C 
ATOM     10  H   UNL     1     -20.350  43.995 -12.717  0.00  0.00    +0.000 HD
ATOM     11  H   UNL     1     -20.273  43.943 -14.445  0.00  0.00    +0.000 HD
ENDBRANCH   3   9
BRANCH   2  12
ATOM     12  N   UNL     1     -17.082  43.386 -11.894  0.00  0.00    +0.000 N 
ATOM     13  C   UNL     1     -16.009  43.247 -12.736  0.00  0.00    +0.000 A 
ATOM     14  C   UNL     1     -17.269  44.712 -11.604  0.00  0.00    +0.000 A 
ATOM     15  C   UNL     1     -15.504  44.504 -12.985  0.00  0.00    +0.000 A 
ATOM     16  C   UNL     1     -16.301  45.431 -12.270  0.00  0.00    +0.000 A 
ENDBRANCH   2  12
TORSDOF 2
ENDMDL
MODEL 5
REMARK VINA RESULT:    -4.313      2.872      5.092
REMARK INTER + INTRA:          -4.985
REMARK INTER:                  -4.739
REMARK INTRA:                  -0.246
REMARK UNBOUND:                -0.167
REMARK  Name = 141362462
REMARK  2 active torsions:
REMARK  status: ('A' for Active; 'I' for Inactive)
REMARK    1  A    between atoms: N_2  and  C_5
REMARK    2  A    between atoms: C_6  and  C_13
REMARK                            x       y       z     vdW  Elec       q    Type
REMARK                         _______ _______ _______ _____ _____    ______ ____
ROOT
ATOM      1  N   UNL     1     -15.154  42.822 -11.464  0.00  0.00    +0.000 NA
ATOM      2  C   UNL     1     -16.329  43.144 -12.050  0.00  0.00    +0.000 A 
ATOM      3  C   UNL     1     -16.601  44.379 -12.616  0.00  0.00    +0.000 A 
ATOM      4  C   UNL     1     -15.603  45.346 -12.578  0.00  0.00    +0.000 A 
ATOM      5  C   UNL     1     -14.380  45.053 -11.984  0.00  0.00    +0.000 A 
ATOM      6  C   UNL     1     -14.208  43.787 -11.447  0.00  0.00    +0.000 A 
ENDROOT
BRANCH   3   9
ATOM      7  O   UNL     1     -18.809  45.197 -12.586  0.00  0.00    +0.000 OA
ATOM      8  N   UNL     1     -18.013  44.447 -14.601  0.00  0.00    +0.000 N 
ATOM      9  C   UNL     1     -17.877  44.699 -13.240  0.00  0.00    +0.000 C 
ATOM     10  H   UNL     1     -17.260  44.045 -15.151  0.00  0.00    +0.000 HD
ATOM     11  H   UNL     1     -18.879  44.656 -15.087  0.00  0.00    +0.000 HD
ENDBRANCH   3   9
BRANCH   2  12
ATOM     12  N   UNL     1     -17.306  42.158 -12.071  0.00  0.00    +0.000 N 
ATOM     13  C   UNL     1     -18.273  41.983 -11.115  0.00  0.00    +0.000 A 
ATOM     14  C   UNL     1     -17.450  41.207 -13.048  0.00  0.00    +0.000 A 
ATOM     15  C   UNL     1     -19.045  40.906 -11.489  0.00  0.00    +0.000 A 
ATOM     16  C   UNL     1     -18.525  40.415 -12.711  0.00  0.00    +0.000 A 
ENDBRANCH   2  12
TORSDOF 2
ENDMDL
