MODEL 1
REMARK VINA RESULT:    -6.078      0.000      0.000
REMARK INTER + INTRA:          -7.381
REMARK INTER:                  -6.966
REMARK INTRA:                  -0.415
REMARK UNBOUND:                -0.415
REMARK  Name = 141396873
REMARK  3 active torsions:
REMARK  status: ('A' for Active; 'I' for Inactive)
REMARK    1  A    between atoms: N_4  and  C_7
REMARK    2  A    between atoms: C_6  and  C_9
REMARK    3  A    between atoms: C_9  and  C_12
REMARK                            x       y       z     vdW  Elec       q    Type
REMARK                         _______ _______ _______ _____ _____    ______ ____
ROOT
ATOM      1  N   UNL     1     -18.832  42.261  -8.061  0.00  0.00    +0.000 NA
ATOM      2  C   UNL     1     -18.971  40.641  -9.851  0.00  0.00    +0.000 A 
ATOM      3  C   UNL     1     -18.373  41.713  -9.209  0.00  0.00    +0.000 A 
ATOM      4  C   UNL     1     -20.113  40.094  -9.277  0.00  0.00    +0.000 A 
ATOM      5  C   UNL     1     -20.616  40.629  -8.097  0.00  0.00    +0.000 A 
ATOM      6  C   UNL     1     -19.944  41.702  -7.533  0.00  0.00    +0.000 A 
ENDROOT
BRANCH   3   7
ATOM      7  N   UNL     1     -17.206  42.275  -9.786  0.00  0.00    +0.000 N 
ATOM      8  H   UNL     1     -17.181  43.273  -9.954  0.00  0.00    +0.000 HD
ATOM      9  H   UNL     1     -16.683  41.680 -10.417  0.00  0.00    +0.000 HD
ENDBRANCH   3   7
BRANCH   2  11
ATOM     10  O   UNL     1     -17.303  39.631 -11.215  0.00  0.00    +0.000 OA
ATOM     11  C   UNL     1     -18.450  40.072 -11.086  0.00  0.00    +0.000 C 
BRANCH  11  14
ATOM     12  O   UNL     1     -19.655  38.902 -12.734  0.00  0.00    +0.000 OA
ATOM     13  N   UNL     1     -19.567  41.227 -12.870  0.00  0.00    +0.000 N 
ATOM     14  C   UNL     1     -19.297  39.996 -12.332  0.00  0.00    +0.000 C 
ATOM     15  H   UNL     1     -19.228  42.089 -12.456  0.00  0.00    +0.000 HD
ATOM     16  H   UNL     1     -20.127  41.316 -13.711  0.00  0.00    +0.000 HD
ENDBRANCH  11  14
ENDBRANCH   2  11
TORSDOF 3
ENDMDL
MODEL 2
REMARK VINA RESULT:    -5.670      1.917      2.822
REMARK INTER + INTRA:          -6.913
REMARK INTER:                  -6.542
REMARK INTRA:                  -0.372
REMARK UNBOUND:                -0.415
REMARK  Name = 141396873
REMARK  3 active torsions:
REMARK  status: ('A' for Active; 'I' for Inactive)
REMARK    1  A    between atoms: N_4  and  C_7
REMARK    2  A    between atoms: C_6  and  C_9
REMARK    3  A    between atoms: C_9  and  C_12
REMARK                            x       y       z     vdW  Elec       q    Type
REMARK                         _______ _______ _______ _____ _____    ______ ____
ROOT
ATOM      1  N   UNL     1     -20.350  39.996  -9.118  0.00  0.00    +0.000 NA
ATOM      2  C   UNL     1     -18.502  41.152 -10.164  0.00  0.00    +0.000 A 
ATOM      3  C   UNL     1     -19.492  40.185 -10.147  0.00  0.00    +0.000 A 
ATOM      4  C   UNL     1     -18.383  41.982  -9.055  0.00  0.00    +0.000 A 
ATOM      5  C   UNL     1     -19.246  41.820  -7.977  0.00  0.00    +0.000 A 
ATOM      6  C   UNL     1     -20.204  40.822  -8.057  0.00  0.00    +0.000 A 
ENDROOT
BRANCH   3   7
ATOM      7  N   UNL     1     -19.623  39.336 -11.276  0.00  0.00    +0.000 N 
ATOM      8  H   UNL     1     -19.138  38.448 -11.272  0.00  0.00    +0.000 HD
ATOM      9  H   UNL     1     -19.758  39.792 -12.170  0.00  0.00    +0.000 HD
ENDBRANCH   3   7
BRANCH   2  11
ATOM     10  O   UNL     1     -17.805  42.105 -12.231  0.00  0.00    +0.000 OA
ATOM     11  C   UNL     1     -17.595  41.332 -11.290  0.00  0.00    +0.000 C 
BRANCH  11  14
ATOM     12  O   UNL     1     -16.358  39.386 -11.757  0.00  0.00    +0.000 OA
ATOM     13  N   UNL     1     -15.207  41.286 -11.050  0.00  0.00    +0.000 N 
ATOM     14  C   UNL     1     -16.310  40.549 -11.393  0.00  0.00    +0.000 C 
ATOM     15  H   UNL     1     -15.267  42.257 -10.765  0.00  0.00    +0.000 HD
ATOM     16  H   UNL     1     -14.279  40.877 -11.076  0.00  0.00    +0.000 HD
ENDBRANCH  11  14
ENDBRANCH   2  11
TORSDOF 3
ENDMDL
MODEL 3
REMARK VINA RESULT:    -5.628      2.179      2.856
REMARK INTER + INTRA:          -6.865
REMARK INTER:                  -6.481
REMARK INTRA:                  -0.384
REMARK UNBOUND:                -0.415
REMARK  Name = 141396873
REMARK  3 active torsions:
REMARK  status: ('A' for Active; 'I' for Inactive)
REMARK    1  A    between atoms: N_4  and  C_7
REMARK    2  A    between atoms: C_6  and  C_9
REMARK    3  A    between atoms: C_9  and  C_12
REMARK                            x       y       z     vdW  Elec       q    Type
REMARK                         _______ _______ _______ _____ _____    ______ ____
ROOT
ATOM      1  N   UNL     1     -19.616  39.739  -9.724  0.00  0.00    +0.000 NA
ATOM      2  C   UNL     1     -18.398  41.036 -11.361  0.00  0.00    +0.000 A 
ATOM      3  C   UNL     1     -19.196  39.967 -10.989  0.00  0.00    +0.000 A 
ATOM      4  C   UNL     1     -18.007  41.931 -10.372  0.00  0.00    +0.000 A 
ATOM      5  C   UNL     1     -18.418  41.732  -9.059  0.00  0.00    +0.000 A 
ATOM      6  C   UNL     1     -19.216  40.631  -8.789  0.00  0.00    +0.000 A 
ENDROOT
BRANCH   3   7
ATOM      7  N   UNL     1     -19.604  39.052 -11.993  0.00  0.00    +0.000 N 
ATOM      8  H   UNL     1     -19.741  38.082 -11.736  0.00  0.00    +0.000 HD
ATOM      9  H   UNL     1     -19.291  39.247 -12.936  0.00  0.00    +0.000 HD
ENDBRANCH   3   7
BRANCH   2  11
ATOM     10  O   UNL     1     -17.063  40.617 -13.287  0.00  0.00    +0.000 OA
ATOM     11  C   UNL     1     -17.965  41.256 -12.734  0.00  0.00    +0.000 C 
BRANCH  11  14
ATOM     12  O   UNL     1     -19.753  42.177 -13.956  0.00  0.00    +0.000 OA
ATOM     13  N   UNL     1     -17.749  43.364 -13.863  0.00  0.00    +0.000 N 
ATOM     14  C   UNL     1     -18.597  42.322 -13.593  0.00  0.00    +0.000 C 
ATOM     15  H   UNL     1     -16.800  43.400 -13.508  0.00  0.00    +0.000 HD
ATOM     16  H   UNL     1     -18.051  44.148 -14.432  0.00  0.00    +0.000 HD
ENDBRANCH  11  14
ENDBRANCH   2  11
TORSDOF 3
ENDMDL
MODEL 4
REMARK VINA RESULT:    -5.399      2.380      4.356
REMARK INTER + INTRA:          -6.603
REMARK INTER:                  -6.257
REMARK INTRA:                  -0.347
REMARK UNBOUND:                -0.415
REMARK  Name = 141396873
REMARK  3 active torsions:
REMARK  status: ('A' for Active; 'I' for Inactive)
REMARK    1  A    between atoms: N_4  and  C_7
REMARK    2  A    between atoms: C_6  and  C_9
REMARK    3  A    between atoms: C_9  and  C_12
REMARK                            x       y       z     vdW  Elec       q    Type
REMARK                         _______ _______ _______ _____ _____    ______ ____
ROOT
ATOM      1  N   UNL     1     -19.541  41.971 -13.675  0.00  0.00    +0.000 NA
ATOM      2  C   UNL     1     -18.416  41.730 -11.549  0.00  0.00    +0.000 A 
ATOM      3  C   UNL     1     -19.221  41.258 -12.572  0.00  0.00    +0.000 A 
ATOM      4  C   UNL     1     -17.905  43.017 -11.664  0.00  0.00    +0.000 A 
ATOM      5  C   UNL     1     -18.210  43.783 -12.783  0.00  0.00    +0.000 A 
ATOM      6  C   UNL     1     -19.025  43.219 -13.753  0.00  0.00    +0.000 A 
ENDROOT
BRANCH   3   7
ATOM      7  N   UNL     1     -19.744  39.944 -12.464  0.00  0.00    +0.000 N 
ATOM      8  H   UNL     1     -19.359  39.220 -13.058  0.00  0.00    +0.000 HD
ATOM      9  H   UNL     1     -20.719  39.866 -12.202  0.00  0.00    +0.000 HD
ENDBRANCH   3   7
BRANCH   2  11
ATOM     10  O   UNL     1     -17.199  40.075 -10.346  0.00  0.00    +0.000 OA
ATOM     11  C   UNL     1     -18.087  40.934 -10.374  0.00  0.00    +0.000 C 
BRANCH  11  14
ATOM     12  O   UNL     1     -18.491  41.965  -8.298  0.00  0.00    +0.000 OA
ATOM     13  N   UNL     1     -19.881  40.211  -8.951  0.00  0.00    +0.000 N 
ATOM     14  C   UNL     1     -18.844  41.098  -9.080  0.00  0.00    +0.000 C 
ATOM     15  H   UNL     1     -20.104  39.526  -9.664  0.00  0.00    +0.000 HD
ATOM     16  H   UNL     1     -20.470  40.216  -8.124  0.00  0.00    +0.000 HD
ENDBRANCH  11  14
ENDBRANCH   2  11
TORSDOF 3
ENDMDL
MODEL 5
REMARK VINA RESULT:    -5.167      2.986      3.715
REMARK INTER + INTRA:          -6.337
REMARK INTER:                  -5.943
REMARK INTRA:                  -0.395
REMARK UNBOUND:                -0.415
REMARK  Name = 141396873
REMARK  3 active torsions:
REMARK  status: ('A' for Active; 'I' for Inactive)
REMARK    1  A    between atoms: N_4  and  C_7
REMARK    2  A    between atoms: C_6  and  C_9
REMARK    3  A    between atoms: C_9  and  C_12
REMARK                            x       y       z     vdW  Elec       q    Type
REMARK                         _______ _______ _______ _____ _____    ______ ____
ROOT
ATOM      1  N   UNL     1     -16.197  43.726 -11.649  0.00  0.00    +0.000 NA
ATOM      2  C   UNL     1     -17.509  41.844 -12.411  0.00  0.00    +0.000 A 
ATOM      3  C   UNL     1     -16.396  42.397 -11.801  0.00  0.00    +0.000 A 
ATOM      4  C   UNL     1     -18.483  42.709 -12.897  0.00  0.00    +0.000 A 
ATOM      5  C   UNL     1     -18.315  44.082 -12.761  0.00  0.00    +0.000 A 
ATOM      6  C   UNL     1     -17.165  44.537 -12.134  0.00  0.00    +0.000 A 
ENDROOT
BRANCH   3   7
ATOM      7  N   UNL     1     -15.400  41.522 -11.299  0.00  0.00    +0.000 N 
ATOM      8  H   UNL     1     -14.710  41.891 -10.657  0.00  0.00    +0.000 HD
ATOM      9  H   UNL     1     -15.115  40.765 -11.909  0.00  0.00    +0.000 HD
ENDBRANCH   3   7
BRANCH   2  11
ATOM     10  O   UNL     1     -17.019  39.692 -13.304  0.00  0.00    +0.000 OA
ATOM     11  C   UNL     1     -17.696  40.407 -12.555  0.00  0.00    +0.000 C 
BRANCH  11  14
ATOM     12  O   UNL     1     -18.614  39.482 -10.596  0.00  0.00    +0.000 OA
ATOM     13  N   UNL     1     -19.832  39.312 -12.576  0.00  0.00    +0.000 N 
ATOM     14  C   UNL     1     -18.770  39.676 -11.791  0.00  0.00    +0.000 C 
ATOM     15  H   UNL     1     -19.876  39.526 -13.567  0.00  0.00    +0.000 HD
ATOM     16  H   UNL     1     -20.624  38.813 -12.184  0.00  0.00    +0.000 HD
ENDBRANCH  11  14
ENDBRANCH   2  11
TORSDOF 3
ENDMDL
