MODEL 1
REMARK VINA RESULT:    -7.994      0.000      0.000
REMARK INTER + INTRA:          -8.512
REMARK INTER:                  -8.461
REMARK INTRA:                  -0.051
REMARK UNBOUND:                -0.051
REMARK  Name = 141455651
REMARK  1 active torsions:
REMARK  status: ('A' for Active; 'I' for Inactive)
REMARK    1  A    between atoms: C_12  and  C_15
REMARK                            x       y       z     vdW  Elec       q    Type
REMARK                         _______ _______ _______ _____ _____    ______ ____
ROOT
ATOM      1  N   UNL     1     -20.408  41.222  -7.957  0.00  0.00    +0.000 N 
ATOM      2  N   UNL     1     -19.790  39.769  -9.750  0.00  0.00    +0.000 NA
ATOM      3  C   UNL     1     -21.833  40.837  -8.128  0.00  0.00    +0.000 C 
ATOM      4  C   UNL     1     -19.523  40.873  -9.017  0.00  0.00    +0.000 A 
ATOM      5  C   UNL     1     -20.011  41.891  -6.803  0.00  0.00    +0.000 C 
ATOM      6  C   UNL     1     -22.731  41.431  -7.066  0.00  0.00    +0.000 C 
ATOM      7  C   UNL     1     -18.430  41.698  -9.229  0.00  0.00    +0.000 A 
ATOM      8  C   UNL     1     -20.850  42.328  -5.855  0.00  0.00    +0.000 C 
ATOM      9  C   UNL     1     -22.266  42.125  -6.017  0.00  0.00    +0.000 C 
ATOM     10  C   UNL     1     -17.799  40.242 -11.037  0.00  0.00    +0.000 A 
ATOM     11  C   UNL     1     -17.557  41.370 -10.260  0.00  0.00    +0.000 A 
ATOM     12  C   UNL     1     -18.920  39.481 -10.743  0.00  0.00    +0.000 A 
ENDROOT
BRANCH  10  15
ATOM     13  O   UNL     1     -17.311  39.773 -13.293  0.00  0.00    +0.000 OA
ATOM     14  N   UNL     1     -15.566  39.648 -11.809  0.00  0.00    +0.000 N 
ATOM     15  C   UNL     1     -16.905  39.872 -12.120  0.00  0.00    +0.000 C 
ATOM     16  H   UNL     1     -15.157  39.713 -10.885  0.00  0.00    +0.000 HD
ATOM     17  H   UNL     1     -14.919  39.395 -12.549  0.00  0.00    +0.000 HD
ENDBRANCH  10  15
TORSDOF 1
ENDMDL
MODEL 2
REMARK VINA RESULT:    -7.215      2.772      6.232
REMARK INTER + INTRA:          -7.687
REMARK INTER:                  -7.627
REMARK INTRA:                  -0.060
REMARK UNBOUND:                -0.051
REMARK  Name = 141455651
REMARK  1 active torsions:
REMARK  status: ('A' for Active; 'I' for Inactive)
REMARK    1  A    between atoms: C_12  and  C_15
REMARK                            x       y       z     vdW  Elec       q    Type
REMARK                         _______ _______ _______ _____ _____    ______ ____
ROOT
ATOM      1  N   UNL     1     -18.152  41.057 -10.222  0.00  0.00    +0.000 N 
ATOM      2  N   UNL     1     -18.820  42.138  -8.198  0.00  0.00    +0.000 NA
ATOM      3  C   UNL     1     -17.228  42.180 -10.523  0.00  0.00    +0.000 C 
ATOM      4  C   UNL     1     -19.124  41.288  -9.205  0.00  0.00    +0.000 A 
ATOM      5  C   UNL     1     -18.036  39.864 -10.927  0.00  0.00    +0.000 C 
ATOM      6  C   UNL     1     -16.381  41.928 -11.751  0.00  0.00    +0.000 C 
ATOM      7  C   UNL     1     -20.329  40.615  -9.314  0.00  0.00    +0.000 A 
ATOM      8  C   UNL     1     -17.209  39.674 -11.963  0.00  0.00    +0.000 C 
ATOM      9  C   UNL     1     -16.382  40.763 -12.414  0.00  0.00    +0.000 C 
ATOM     10  C   UNL     1     -21.012  41.698  -7.277  0.00  0.00    +0.000 A 
ATOM     11  C   UNL     1     -21.286  40.829  -8.329  0.00  0.00    +0.000 A 
ATOM     12  C   UNL     1     -19.775  42.323  -7.259  0.00  0.00    +0.000 A 
ENDROOT
BRANCH  10  15
ATOM     13  O   UNL     1     -23.068  41.321  -6.193  0.00  0.00    +0.000 OA
ATOM     14  N   UNL     1     -21.678  42.887  -5.258  0.00  0.00    +0.000 N 
ATOM     15  C   UNL     1     -21.991  41.942  -6.233  0.00  0.00    +0.000 C 
ATOM     16  H   UNL     1     -20.824  43.430  -5.217  0.00  0.00    +0.000 HD
ATOM     17  H   UNL     1     -22.341  43.073  -4.513  0.00  0.00    +0.000 HD
ENDBRANCH  10  15
TORSDOF 1
ENDMDL
MODEL 3
REMARK VINA RESULT:    -5.749      4.943      6.868
REMARK INTER + INTRA:          -6.136
REMARK INTER:                  -6.081
REMARK INTRA:                  -0.055
REMARK UNBOUND:                -0.051
REMARK  Name = 141455651
REMARK  1 active torsions:
REMARK  status: ('A' for Active; 'I' for Inactive)
REMARK    1  A    between atoms: C_12  and  C_15
REMARK                            x       y       z     vdW  Elec       q    Type
REMARK                         _______ _______ _______ _____ _____    ______ ____
ROOT
ATOM      1  N   UNL     1     -19.232  43.763 -15.012  0.00  0.00    +0.000 N 
ATOM      2  N   UNL     1     -19.882  41.954 -13.592  0.00  0.00    +0.000 NA
ATOM      3  C   UNL     1     -19.955  43.138 -16.149  0.00  0.00    +0.000 C 
ATOM      4  C   UNL     1     -18.997  42.936 -13.875  0.00  0.00    +0.000 A 
ATOM      5  C   UNL     1     -18.824  45.090 -15.103  0.00  0.00    +0.000 C 
ATOM      6  C   UNL     1     -19.970  44.010 -17.384  0.00  0.00    +0.000 C 
ATOM      7  C   UNL     1     -17.863  43.198 -13.124  0.00  0.00    +0.000 A 
ATOM      8  C   UNL     1     -18.933  45.841 -16.207  0.00  0.00    +0.000 C 
ATOM      9  C   UNL     1     -19.490  45.263 -17.401  0.00  0.00    +0.000 C 
ATOM     10  C   UNL     1     -18.508  41.378 -11.688  0.00  0.00    +0.000 A 
ATOM     11  C   UNL     1     -17.622  42.399 -12.011  0.00  0.00    +0.000 A 
ATOM     12  C   UNL     1     -19.615  41.198 -12.504  0.00  0.00    +0.000 A 
ENDROOT
BRANCH  10  15
ATOM     13  O   UNL     1     -18.535  39.309 -10.563  0.00  0.00    +0.000 OA
ATOM     14  N   UNL     1     -17.757  41.117  -9.385  0.00  0.00    +0.000 N 
ATOM     15  C   UNL     1     -18.283  40.528 -10.532  0.00  0.00    +0.000 C 
ATOM     16  H   UNL     1     -17.522  42.097  -9.281  0.00  0.00    +0.000 HD
ATOM     17  H   UNL     1     -17.584  40.544  -8.566  0.00  0.00    +0.000 HD
ENDBRANCH  10  15
TORSDOF 1
ENDMDL
MODEL 4
REMARK VINA RESULT:    -5.633      4.934      6.809
REMARK INTER + INTRA:          -6.013
REMARK INTER:                  -5.957
REMARK INTRA:                  -0.056
REMARK UNBOUND:                -0.051
REMARK  Name = 141455651
REMARK  1 active torsions:
REMARK  status: ('A' for Active; 'I' for Inactive)
REMARK    1  A    between atoms: C_12  and  C_15
REMARK                            x       y       z     vdW  Elec       q    Type
REMARK                         _______ _______ _______ _____ _____    ______ ____
ROOT
ATOM      1  N   UNL     1     -18.771  44.534 -14.386  0.00  0.00    +0.000 N 
ATOM      2  N   UNL     1     -17.584  43.488 -12.594  0.00  0.00    +0.000 NA
ATOM      3  C   UNL     1     -18.253  45.860 -13.963  0.00  0.00    +0.000 C 
ATOM      4  C   UNL     1     -18.631  43.467 -13.450  0.00  0.00    +0.000 A 
ATOM      5  C   UNL     1     -19.358  44.393 -15.639  0.00  0.00    +0.000 C 
ATOM      6  C   UNL     1     -18.634  46.969 -14.918  0.00  0.00    +0.000 C 
ATOM      7  C   UNL     1     -19.587  42.466 -13.481  0.00  0.00    +0.000 A 
ATOM      8  C   UNL     1     -19.603  45.408 -16.478  0.00  0.00    +0.000 C 
ATOM      9  C   UNL     1     -19.264  46.749 -16.081  0.00  0.00    +0.000 C 
ATOM     10  C   UNL     1     -18.400  41.405 -11.678  0.00  0.00    +0.000 A 
ATOM     11  C   UNL     1     -19.462  41.419 -12.575  0.00  0.00    +0.000 A 
ATOM     12  C   UNL     1     -17.496  42.455 -11.728  0.00  0.00    +0.000 A 
ENDROOT
BRANCH  10  15
ATOM     13  O   UNL     1     -18.614  39.166 -10.979  0.00  0.00    +0.000 OA
ATOM     14  N   UNL     1     -17.641  40.624  -9.498  0.00  0.00    +0.000 N 
ATOM     15  C   UNL     1     -18.242  40.325 -10.719  0.00  0.00    +0.000 C 
ATOM     16  H   UNL     1     -17.308  41.536  -9.213  0.00  0.00    +0.000 HD
ATOM     17  H   UNL     1     -17.513  39.886  -8.813  0.00  0.00    +0.000 HD
ENDBRANCH  10  15
TORSDOF 1
ENDMDL
MODEL 5
REMARK VINA RESULT:    -5.553      5.192      6.334
REMARK INTER + INTRA:          -5.928
REMARK INTER:                  -5.881
REMARK INTRA:                  -0.047
REMARK UNBOUND:                -0.051
REMARK  Name = 141455651
REMARK  1 active torsions:
REMARK  status: ('A' for Active; 'I' for Inactive)
REMARK    1  A    between atoms: C_12  and  C_15
REMARK                            x       y       z     vdW  Elec       q    Type
REMARK                         _______ _______ _______ _____ _____    ______ ____
ROOT
ATOM      1  N   UNL     1     -18.507  41.932 -12.609  0.00  0.00    +0.000 N 
ATOM      2  N   UNL     1     -19.699  42.336 -14.641  0.00  0.00    +0.000 NA
ATOM      3  C   UNL     1     -19.533  40.940 -12.198  0.00  0.00    +0.000 C 
ATOM      4  C   UNL     1     -18.851  42.793 -13.692  0.00  0.00    +0.000 A 
ATOM      5  C   UNL     1     -17.288  41.979 -11.939  0.00  0.00    +0.000 C 
ATOM      6  C   UNL     1     -19.172  40.222 -10.917  0.00  0.00    +0.000 C 
ATOM      7  C   UNL     1     -18.287  44.058 -13.700  0.00  0.00    +0.000 A 
ATOM      8  C   UNL     1     -16.997  41.258 -10.848  0.00  0.00    +0.000 C 
ATOM      9  C   UNL     1     -17.994  40.379 -10.296  0.00  0.00    +0.000 C 
ATOM     10  C   UNL     1     -19.482  44.476 -15.746  0.00  0.00    +0.000 A 
ATOM     11  C   UNL     1     -18.614  44.909 -14.750  0.00  0.00    +0.000 A 
ATOM     12  C   UNL     1     -19.994  43.191 -15.645  0.00  0.00    +0.000 A 
ENDROOT
BRANCH  10  15
ATOM     13  O   UNL     1     -19.064  45.536 -17.807  0.00  0.00    +0.000 OA
ATOM     14  N   UNL     1     -21.102  45.937 -16.832  0.00  0.00    +0.000 N 
ATOM     15  C   UNL     1     -19.842  45.341 -16.855  0.00  0.00    +0.000 C 
ATOM     16  H   UNL     1     -21.792  45.825 -16.100  0.00  0.00    +0.000 HD
ATOM     17  H   UNL     1     -21.381  46.540 -17.598  0.00  0.00    +0.000 HD
ENDBRANCH  10  15
TORSDOF 1
ENDMDL
