MODEL 1
REMARK VINA RESULT:    -6.830      0.000      0.000
REMARK INTER + INTRA:          -6.965
REMARK INTER:                  -7.230
REMARK INTRA:                   0.264
REMARK UNBOUND:                 0.264
REMARK  Name = 141506552
REMARK  1 active torsions:
REMARK  status: ('A' for Active; 'I' for Inactive)
REMARK    1  A    between atoms: C_7  and  C_8
REMARK                            x       y       z     vdW  Elec       q    Type
REMARK                         _______ _______ _______ _____ _____    ______ ____
ROOT
ATOM      1 CL   UNL     1     -18.385  42.625  -8.607  0.00  0.00    +0.000 Cl
ATOM      2  O   UNL     1     -20.758  39.510  -9.016  0.00  0.00    +0.000 OA
ATOM      3  O   UNL     1     -18.697  39.347 -10.708  0.00  0.00    +0.000 OA
ATOM      4  N   UNL     1     -19.045  41.106  -9.187  0.00  0.00    +0.000 N 
ATOM      5  N   UNL     1     -17.203  41.061 -10.656  0.00  0.00    +0.000 N 
ATOM      6  C   UNL     1     -20.248  40.577  -8.644  0.00  0.00    +0.000 C 
ATOM      7  C   UNL     1     -18.345  40.419 -10.213  0.00  0.00    +0.000 C 
ATOM      8  H   UNL     1     -16.903  41.945 -10.260  0.00  0.00    +0.000 HD
ATOM      9  H   UNL     1     -16.628  40.664 -11.392  0.00  0.00    +0.000 HD
ENDROOT
BRANCH   6  11
ATOM     10  N   UNL     1     -22.952  42.262  -6.694  0.00  0.00    +0.000 NA
ATOM     11  C   UNL     1     -20.915  41.310  -7.583  0.00  0.00    +0.000 A 
ATOM     12  C   UNL     1     -20.212  41.758  -6.470  0.00  0.00    +0.000 A 
ATOM     13  C   UNL     1     -22.271  41.586  -7.647  0.00  0.00    +0.000 A 
ATOM     14  C   UNL     1     -20.877  42.456  -5.468  0.00  0.00    +0.000 A 
ATOM     15  C   UNL     1     -22.236  42.680  -5.627  0.00  0.00    +0.000 A 
ENDBRANCH   6  11
TORSDOF 1
ENDMDL
MODEL 2
REMARK VINA RESULT:    -6.683      1.832      2.762
REMARK INTER + INTRA:          -6.810
REMARK INTER:                  -7.218
REMARK INTRA:                   0.409
REMARK UNBOUND:                 0.264
REMARK  Name = 141506552
REMARK  1 active torsions:
REMARK  status: ('A' for Active; 'I' for Inactive)
REMARK    1  A    between atoms: C_7  and  C_8
REMARK                            x       y       z     vdW  Elec       q    Type
REMARK                         _______ _______ _______ _____ _____    ______ ____
ROOT
ATOM      1 CL   UNL     1     -17.697  42.968 -10.804  0.00  0.00    +0.000 Cl
ATOM      2  O   UNL     1     -18.911  39.222 -10.812  0.00  0.00    +0.000 OA
ATOM      3  O   UNL     1     -17.327  39.699 -12.910  0.00  0.00    +0.000 OA
ATOM      4  N   UNL     1     -17.914  41.295 -11.285  0.00  0.00    +0.000 N 
ATOM      5  N   UNL     1     -16.523  41.817 -13.115  0.00  0.00    +0.000 N 
ATOM      6  C   UNL     1     -18.723  40.412 -10.519  0.00  0.00    +0.000 C 
ATOM      7  C   UNL     1     -17.259  40.845 -12.462  0.00  0.00    +0.000 C 
ATOM      8  H   UNL     1     -16.461  42.764 -12.759  0.00  0.00    +0.000 HD
ATOM      9  H   UNL     1     -16.019  41.608 -13.970  0.00  0.00    +0.000 HD
ENDROOT
BRANCH   6  11
ATOM     10  N   UNL     1     -19.189  42.222  -7.284  0.00  0.00    +0.000 NA
ATOM     11  C   UNL     1     -19.356  40.918  -9.313  0.00  0.00    +0.000 A 
ATOM     12  C   UNL     1     -20.680  40.616  -9.018  0.00  0.00    +0.000 A 
ATOM     13  C   UNL     1     -18.659  41.718  -8.421  0.00  0.00    +0.000 A 
ATOM     14  C   UNL     1     -21.260  41.116  -7.858  0.00  0.00    +0.000 A 
ATOM     15  C   UNL     1     -20.478  41.908  -7.031  0.00  0.00    +0.000 A 
ENDBRANCH   6  11
TORSDOF 1
ENDMDL
MODEL 3
REMARK VINA RESULT:    -6.322      1.935      5.208
REMARK INTER + INTRA:          -6.427
REMARK INTER:                  -6.428
REMARK INTRA:                   0.001
REMARK UNBOUND:                 0.264
REMARK  Name = 141506552
REMARK  1 active torsions:
REMARK  status: ('A' for Active; 'I' for Inactive)
REMARK    1  A    between atoms: C_7  and  C_8
REMARK                            x       y       z     vdW  Elec       q    Type
REMARK                         _______ _______ _______ _____ _____    ______ ____
ROOT
ATOM      1 CL   UNL     1     -18.081  42.628  -9.126  0.00  0.00    +0.000 Cl
ATOM      2  O   UNL     1     -20.469  39.510  -9.412  0.00  0.00    +0.000 OA
ATOM      3  O   UNL     1     -21.046  40.935  -7.227  0.00  0.00    +0.000 OA
ATOM      4  N   UNL     1     -19.348  41.469  -8.765  0.00  0.00    +0.000 N 
ATOM      5  N   UNL     1     -19.769  42.781  -6.852  0.00  0.00    +0.000 N 
ATOM      6  C   UNL     1     -19.589  40.359  -9.619  0.00  0.00    +0.000 C 
ATOM      7  C   UNL     1     -20.128  41.671  -7.596  0.00  0.00    +0.000 C 
ATOM      8  H   UNL     1     -19.014  43.392  -7.142  0.00  0.00    +0.000 HD
ATOM      9  H   UNL     1     -20.254  43.017  -5.994  0.00  0.00    +0.000 HD
ENDROOT
BRANCH   6  11
ATOM     10  N   UNL     1     -18.629  40.197 -13.225  0.00  0.00    +0.000 NA
ATOM     11  C   UNL     1     -18.774  40.209 -10.812  0.00  0.00    +0.000 A 
ATOM     12  C   UNL     1     -17.412  39.948 -10.722  0.00  0.00    +0.000 A 
ATOM     13  C   UNL     1     -19.330  40.323 -12.076  0.00  0.00    +0.000 A 
ATOM     14  C   UNL     1     -16.657  39.811 -11.881  0.00  0.00    +0.000 A 
ATOM     15  C   UNL     1     -17.308  39.944 -13.098  0.00  0.00    +0.000 A 
ENDBRANCH   6  11
TORSDOF 1
ENDMDL
MODEL 4
REMARK VINA RESULT:    -6.209      2.478      5.608
REMARK INTER + INTRA:          -6.307
REMARK INTER:                  -6.218
REMARK INTRA:                  -0.089
REMARK UNBOUND:                 0.264
REMARK  Name = 141506552
REMARK  1 active torsions:
REMARK  status: ('A' for Active; 'I' for Inactive)
REMARK    1  A    between atoms: C_7  and  C_8
REMARK                            x       y       z     vdW  Elec       q    Type
REMARK                         _______ _______ _______ _____ _____    ______ ____
ROOT
ATOM      1 CL   UNL     1     -20.542  39.886  -9.053  0.00  0.00    +0.000 Cl
ATOM      2  O   UNL     1     -17.843  42.751  -8.997  0.00  0.00    +0.000 OA
ATOM      3  O   UNL     1     -19.366  42.857  -6.806  0.00  0.00    +0.000 OA
ATOM      4  N   UNL     1     -19.605  41.273  -8.527  0.00  0.00    +0.000 N 
ATOM      5  N   UNL     1     -21.014  41.297  -6.638  0.00  0.00    +0.000 N 
ATOM      6  C   UNL     1     -18.536  41.775  -9.319  0.00  0.00    +0.000 C 
ATOM      7  C   UNL     1     -19.942  41.881  -7.289  0.00  0.00    +0.000 C 
ATOM      8  H   UNL     1     -21.499  40.496  -7.027  0.00  0.00    +0.000 HD
ATOM      9  H   UNL     1     -21.346  41.654  -5.749  0.00  0.00    +0.000 HD
ENDROOT
BRANCH   6  11
ATOM     10  N   UNL     1     -16.735  39.670 -11.825  0.00  0.00    +0.000 NA
ATOM     11  C   UNL     1     -18.221  41.106 -10.568  0.00  0.00    +0.000 A 
ATOM     12  C   UNL     1     -19.049  41.230 -11.678  0.00  0.00    +0.000 A 
ATOM     13  C   UNL     1     -17.085  40.321 -10.692  0.00  0.00    +0.000 A 
ATOM     14  C   UNL     1     -18.723  40.576 -12.860  0.00  0.00    +0.000 A 
ATOM     15  C   UNL     1     -17.565  39.815 -12.881  0.00  0.00    +0.000 A 
ENDBRANCH   6  11
TORSDOF 1
ENDMDL
MODEL 5
REMARK VINA RESULT:    -6.146      1.763      4.908
REMARK INTER + INTRA:          -6.241
REMARK INTER:                  -6.439
REMARK INTRA:                   0.198
REMARK UNBOUND:                 0.264
REMARK  Name = 141506552
REMARK  1 active torsions:
REMARK  status: ('A' for Active; 'I' for Inactive)
REMARK    1  A    between atoms: C_7  and  C_8
REMARK                            x       y       z     vdW  Elec       q    Type
REMARK                         _______ _______ _______ _____ _____    ______ ____
ROOT
ATOM      1 CL   UNL     1     -19.589  42.962  -7.200  0.00  0.00    +0.000 Cl
ATOM      2  O   UNL     1     -21.887  40.040  -8.498  0.00  0.00    +0.000 OA
ATOM      3  O   UNL     1     -23.103  41.389  -6.540  0.00  0.00    +0.000 OA
ATOM      4  N   UNL     1     -20.959  41.879  -7.372  0.00  0.00    +0.000 N 
ATOM      5  N   UNL     1     -21.942  43.118  -5.625  0.00  0.00    +0.000 N 
ATOM      6  C   UNL     1     -20.948  40.833  -8.335  0.00  0.00    +0.000 C 
ATOM      7  C   UNL     1     -22.080  42.075  -6.524  0.00  0.00    +0.000 C 
ATOM      8  H   UNL     1     -21.104  43.688  -5.598  0.00  0.00    +0.000 HD
ATOM      9  H   UNL     1     -22.679  43.344  -4.966  0.00  0.00    +0.000 HD
ENDROOT
BRANCH   6  11
ATOM     10  N   UNL     1     -17.392  40.399  -9.393  0.00  0.00    +0.000 NA
ATOM     11  C   UNL     1     -19.784  40.687  -9.191  0.00  0.00    +0.000 A 
ATOM     12  C   UNL     1     -19.907  40.689 -10.575  0.00  0.00    +0.000 A 
ATOM     13  C   UNL     1     -18.515  40.541  -8.654  0.00  0.00    +0.000 A 
ATOM     14  C   UNL     1     -18.776  40.545 -11.370  0.00  0.00    +0.000 A 
ATOM     15  C   UNL     1     -17.552  40.405 -10.735  0.00  0.00    +0.000 A 
ENDBRANCH   6  11
TORSDOF 1
ENDMDL
