MODEL 1
REMARK VINA RESULT:    -6.539      0.000      0.000
REMARK INTER + INTRA:          -6.539
REMARK INTER:                  -6.539
REMARK INTRA:                   0.000
REMARK UNBOUND:                 0.000
REMARK  Name = 14173724
REMARK  1 active torsions:
REMARK  status: ('A' for Active; 'I' for Inactive)
REMARK    1  A    between atoms: C_8  and  C_11
REMARK                            x       y       z     vdW  Elec       q    Type
REMARK                         _______ _______ _______ _____ _____    ______ ____
ROOT
ATOM      1  O   UNL     1     -19.630  40.210 -12.747  0.00  0.00    +0.000 OA
ATOM      2  N   UNL     1     -16.303  41.218 -12.082  0.00  0.00    +0.000 N 
ATOM      3  N   UNL     1     -17.441  40.839 -12.749  0.00  0.00    +0.000 N 
ATOM      4  N   UNL     1     -17.217  42.809 -10.527  0.00  0.00    +0.000 NA
ATOM      5  N   UNL     1     -18.335  42.099  -8.654  0.00  0.00    +0.000 NA
ATOM      6  C   UNL     1     -18.784  40.871 -10.675  0.00  0.00    +0.000 A 
ATOM      7  C   UNL     1     -18.124  41.886  -9.980  0.00  0.00    +0.000 A 
ATOM      8  C   UNL     1     -16.375  42.432 -11.439  0.00  0.00    +0.000 C 
ATOM      9  C   UNL     1     -18.648  40.619 -12.127  0.00  0.00    +0.000 C 
ATOM     10  C   UNL     1     -19.682  40.058  -9.969  0.00  0.00    +0.000 A 
ATOM     11  C   UNL     1     -15.307  43.436 -11.818  0.00  0.00    +0.000 C 
ATOM     12  C   UNL     1     -19.893  40.263  -8.613  0.00  0.00    +0.000 A 
ATOM     13  C   UNL     1     -19.200  41.289  -8.006  0.00  0.00    +0.000 A 
ATOM     14  H   UNL     1     -15.456  40.971 -12.585  0.00  0.00    +0.000 HD
ATOM     15  H   UNL     1     -17.316  40.682 -13.744  0.00  0.00    +0.000 HD
ENDROOT
TORSDOF 0
ENDMDL
MODEL 2
REMARK VINA RESULT:    -6.396      1.911      4.116
REMARK INTER + INTRA:          -6.396
REMARK INTER:                  -6.396
REMARK INTRA:                   0.000
REMARK UNBOUND:                 0.000
REMARK  Name = 14173724
REMARK  1 active torsions:
REMARK  status: ('A' for Active; 'I' for Inactive)
REMARK    1  A    between atoms: C_8  and  C_11
REMARK                            x       y       z     vdW  Elec       q    Type
REMARK                         _______ _______ _______ _____ _____    ______ ____
ROOT
ATOM      1  O   UNL     1     -19.505  38.937 -10.643  0.00  0.00    +0.000 OA
ATOM      2  N   UNL     1     -21.084  41.166  -8.392  0.00  0.00    +0.000 N 
ATOM      3  N   UNL     1     -20.754  40.025  -9.079  0.00  0.00    +0.000 N 
ATOM      4  N   UNL     1     -18.894  42.011  -7.872  0.00  0.00    +0.000 NA
ATOM      5  N   UNL     1     -17.646  43.081  -9.473  0.00  0.00    +0.000 NA
ATOM      6  C   UNL     1     -18.860  41.137 -10.210  0.00  0.00    +0.000 A 
ATOM      7  C   UNL     1     -18.491  42.047  -9.217  0.00  0.00    +0.000 A 
ATOM      8  C   UNL     1     -20.102  41.657  -7.562  0.00  0.00    +0.000 C 
ATOM      9  C   UNL     1     -19.726  39.958  -9.991  0.00  0.00    +0.000 C 
ATOM     10  C   UNL     1     -18.335  41.313 -11.498  0.00  0.00    +0.000 A 
ATOM     11  C   UNL     1     -20.504  41.846  -6.115  0.00  0.00    +0.000 C 
ATOM     12  C   UNL     1     -17.481  42.372 -11.768  0.00  0.00    +0.000 A 
ATOM     13  C   UNL     1     -17.169  43.222 -10.728  0.00  0.00    +0.000 A 
ATOM     14  H   UNL     1     -22.049  41.164  -8.074  0.00  0.00    +0.000 HD
ATOM     15  H   UNL     1     -21.363  39.233  -8.902  0.00  0.00    +0.000 HD
ENDROOT
TORSDOF 0
ENDMDL
MODEL 3
REMARK VINA RESULT:    -6.318      1.789      3.747
REMARK INTER + INTRA:          -6.318
REMARK INTER:                  -6.318
REMARK INTRA:                   0.000
REMARK UNBOUND:                 0.000
REMARK  Name = 14173724
REMARK  1 active torsions:
REMARK  status: ('A' for Active; 'I' for Inactive)
REMARK    1  A    between atoms: C_8  and  C_11
REMARK                            x       y       z     vdW  Elec       q    Type
REMARK                         _______ _______ _______ _____ _____    ______ ____
ROOT
ATOM      1  O   UNL     1     -18.539  39.605 -13.365  0.00  0.00    +0.000 OA
ATOM      2  N   UNL     1     -20.088  40.369 -10.275  0.00  0.00    +0.000 N 
ATOM      3  N   UNL     1     -19.647  39.678 -11.376  0.00  0.00    +0.000 N 
ATOM      4  N   UNL     1     -18.111  41.623  -9.725  0.00  0.00    +0.000 NA
ATOM      5  N   UNL     1     -17.540  43.489 -10.933  0.00  0.00    +0.000 NA
ATOM      6  C   UNL     1     -18.373  41.625 -12.208  0.00  0.00    +0.000 A 
ATOM      7  C   UNL     1     -18.031  42.223 -10.994  0.00  0.00    +0.000 A 
ATOM      8  C   UNL     1     -19.100  40.835  -9.438  0.00  0.00    +0.000 C 
ATOM      9  C   UNL     1     -18.857  40.234 -12.355  0.00  0.00    +0.000 C 
ATOM     10  C   UNL     1     -18.200  42.367 -13.385  0.00  0.00    +0.000 A 
ATOM     11  C   UNL     1     -19.212  40.403  -7.991  0.00  0.00    +0.000 C 
ATOM     12  C   UNL     1     -17.709  43.664 -13.329  0.00  0.00    +0.000 A 
ATOM     13  C   UNL     1     -17.396  44.175 -12.087  0.00  0.00    +0.000 A 
ATOM     14  H   UNL     1     -20.931  39.967  -9.874  0.00  0.00    +0.000 HD
ATOM     15  H   UNL     1     -19.990  38.726 -11.443  0.00  0.00    +0.000 HD
ENDROOT
TORSDOF 0
ENDMDL
MODEL 4
REMARK VINA RESULT:    -5.940      2.787      3.917
REMARK INTER + INTRA:          -5.940
REMARK INTER:                  -5.940
REMARK INTRA:                   0.000
REMARK UNBOUND:                 0.000
REMARK  Name = 14173724
REMARK  1 active torsions:
REMARK  status: ('A' for Active; 'I' for Inactive)
REMARK    1  A    between atoms: C_8  and  C_11
REMARK                            x       y       z     vdW  Elec       q    Type
REMARK                         _______ _______ _______ _____ _____    ______ ____
ROOT
ATOM      1  O   UNL     1     -16.785  43.739 -11.348  0.00  0.00    +0.000 OA
ATOM      2  N   UNL     1     -19.619  44.025 -13.449  0.00  0.00    +0.000 N 
ATOM      3  N   UNL     1     -18.452  44.316 -12.790  0.00  0.00    +0.000 N 
ATOM      4  N   UNL     1     -19.160  41.782 -14.183  0.00  0.00    +0.000 NA
ATOM      5  N   UNL     1     -19.299  40.023 -12.716  0.00  0.00    +0.000 NA
ATOM      6  C   UNL     1     -18.297  42.035 -11.854  0.00  0.00    +0.000 A 
ATOM      7  C   UNL     1     -18.906  41.314 -12.883  0.00  0.00    +0.000 A 
ATOM      8  C   UNL     1     -19.536  43.008 -14.372  0.00  0.00    +0.000 C 
ATOM      9  C   UNL     1     -17.792  43.420 -11.981  0.00  0.00    +0.000 C 
ATOM     10  C   UNL     1     -18.097  41.394 -10.623  0.00  0.00    +0.000 A 
ATOM     11  C   UNL     1     -19.983  43.362 -15.775  0.00  0.00    +0.000 C 
ATOM     12  C   UNL     1     -18.506  40.081 -10.443  0.00  0.00    +0.000 A 
ATOM     13  C   UNL     1     -19.097  39.444 -11.514  0.00  0.00    +0.000 A 
ATOM     14  H   UNL     1     -20.159  44.857 -13.672  0.00  0.00    +0.000 HD
ATOM     15  H   UNL     1     -18.128  45.272 -12.903  0.00  0.00    +0.000 HD
ENDROOT
TORSDOF 0
ENDMDL
MODEL 5
REMARK VINA RESULT:    -5.836      1.944      2.326
REMARK INTER + INTRA:          -5.836
REMARK INTER:                  -5.836
REMARK INTRA:                   0.000
REMARK UNBOUND:                 0.000
REMARK  Name = 14173724
REMARK  1 active torsions:
REMARK  status: ('A' for Active; 'I' for Inactive)
REMARK    1  A    between atoms: C_8  and  C_11
REMARK                            x       y       z     vdW  Elec       q    Type
REMARK                         _______ _______ _______ _____ _____    ______ ____
ROOT
ATOM      1  O   UNL     1     -20.044  42.262 -14.322  0.00  0.00    +0.000 OA
ATOM      2  N   UNL     1     -16.900  43.692 -13.546  0.00  0.00    +0.000 N 
ATOM      3  N   UNL     1     -18.103  43.444 -14.157  0.00  0.00    +0.000 N 
ATOM      4  N   UNL     1     -17.557  43.600 -11.234  0.00  0.00    +0.000 NA
ATOM      5  N   UNL     1     -17.909  41.582 -10.201  0.00  0.00    +0.000 NA
ATOM      6  C   UNL     1     -18.733  41.767 -12.455  0.00  0.00    +0.000 A 
ATOM      7  C   UNL     1     -18.079  42.300 -11.343  0.00  0.00    +0.000 A 
ATOM      8  C   UNL     1     -16.982  44.158 -12.254  0.00  0.00    +0.000 C 
ATOM      9  C   UNL     1     -19.006  42.508 -13.707  0.00  0.00    +0.000 C 
ATOM     10  C   UNL     1     -19.218  40.454 -12.374  0.00  0.00    +0.000 A 
ATOM     11  C   UNL     1     -16.271  45.468 -11.986  0.00  0.00    +0.000 C 
ATOM     12  C   UNL     1     -19.037  39.712 -11.216  0.00  0.00    +0.000 A 
ATOM     13  C   UNL     1     -18.381  40.317 -10.165  0.00  0.00    +0.000 A 
ATOM     14  H   UNL     1     -16.217  44.098 -14.179  0.00  0.00    +0.000 HD
ATOM     15  H   UNL     1     -18.263  43.974 -15.008  0.00  0.00    +0.000 HD
ENDROOT
TORSDOF 0
ENDMDL
