MODEL 1
REMARK VINA RESULT:    -6.392      0.000      0.000
REMARK INTER + INTRA:          -6.392
REMARK INTER:                  -6.392
REMARK INTRA:                   0.000
REMARK UNBOUND:                 0.000
REMARK  Name = 14173723
REMARK  0 active torsions:
REMARK  status: ('A' for Active; 'I' for Inactive)
REMARK                            x       y       z     vdW  Elec       q    Type
REMARK                         _______ _______ _______ _____ _____    ______ ____
ROOT
ATOM      1  O   UNL     1     -19.497  38.540 -11.664  0.00  0.00    +0.000 OA
ATOM      2  N   UNL     1     -18.895  40.361 -12.888  0.00  0.00    +0.000 N 
ATOM      3  N   UNL     1     -18.624  41.700 -13.000  0.00  0.00    +0.000 N 
ATOM      4  N   UNL     1     -17.325  42.070 -10.988  0.00  0.00    +0.000 NA
ATOM      5  N   UNL     1     -18.300  42.147  -8.914  0.00  0.00    +0.000 NA
ATOM      6  C   UNL     1     -19.180  40.492 -10.428  0.00  0.00    +0.000 A 
ATOM      7  C   UNL     1     -18.301  41.537 -10.129  0.00  0.00    +0.000 A 
ATOM      8  C   UNL     1     -19.199  39.735 -11.700  0.00  0.00    +0.000 C 
ATOM      9  C   UNL     1     -20.079  40.081  -9.434  0.00  0.00    +0.000 A 
ATOM     10  C   UNL     1     -20.090  40.707  -8.194  0.00  0.00    +0.000 A 
ATOM     11  C   UNL     1     -17.578  42.158 -12.250  0.00  0.00    +0.000 C 
ATOM     12  C   UNL     1     -19.187  41.727  -7.986  0.00  0.00    +0.000 A 
ATOM     13  H   UNL     1     -18.898  39.857 -13.768  0.00  0.00    +0.000 HD
ATOM     14  H   UNL     1     -18.758  42.057 -13.942  0.00  0.00    +0.000 HD
ENDROOT
TORSDOF 0
ENDMDL
MODEL 2
REMARK VINA RESULT:    -6.268      2.153      2.836
REMARK INTER + INTRA:          -6.268
REMARK INTER:                  -6.268
REMARK INTRA:                   0.000
REMARK UNBOUND:                 0.000
REMARK  Name = 14173723
REMARK  0 active torsions:
REMARK  status: ('A' for Active; 'I' for Inactive)
REMARK                            x       y       z     vdW  Elec       q    Type
REMARK                         _______ _______ _______ _____ _____    ______ ____
ROOT
ATOM      1  O   UNL     1     -17.153  43.513 -11.488  0.00  0.00    +0.000 OA
ATOM      2  N   UNL     1     -16.581  41.689 -12.724  0.00  0.00    +0.000 N 
ATOM      3  N   UNL     1     -16.571  40.336 -12.938  0.00  0.00    +0.000 N 
ATOM      4  N   UNL     1     -18.845  39.762 -12.329  0.00  0.00    +0.000 NA
ATOM      5  N   UNL     1     -19.536  39.702 -10.144  0.00  0.00    +0.000 NA
ATOM      6  C   UNL     1     -18.031  41.492 -10.721  0.00  0.00    +0.000 A 
ATOM      7  C   UNL     1     -18.771  40.355 -11.058  0.00  0.00    +0.000 A 
ATOM      8  C   UNL     1     -17.228  42.296 -11.671  0.00  0.00    +0.000 C 
ATOM      9  C   UNL     1     -18.092  41.951  -9.398  0.00  0.00    +0.000 A 
ATOM     10  C   UNL     1     -18.863  41.282  -8.457  0.00  0.00    +0.000 A 
ATOM     11  C   UNL     1     -17.796  39.748 -13.080  0.00  0.00    +0.000 C 
ATOM     12  C   UNL     1     -19.561  40.171  -8.877  0.00  0.00    +0.000 A 
ATOM     13  H   UNL     1     -16.031  42.225 -13.387  0.00  0.00    +0.000 HD
ATOM     14  H   UNL     1     -15.799  40.030 -13.524  0.00  0.00    +0.000 HD
ENDROOT
TORSDOF 0
ENDMDL
MODEL 3
REMARK VINA RESULT:    -5.911      2.138      3.932
REMARK INTER + INTRA:          -5.911
REMARK INTER:                  -5.911
REMARK INTRA:                   0.000
REMARK UNBOUND:                 0.000
REMARK  Name = 14173723
REMARK  0 active torsions:
REMARK  status: ('A' for Active; 'I' for Inactive)
REMARK                            x       y       z     vdW  Elec       q    Type
REMARK                         _______ _______ _______ _____ _____    ______ ____
ROOT
ATOM      1  O   UNL     1     -18.223  42.153  -8.499  0.00  0.00    +0.000 OA
ATOM      2  N   UNL     1     -19.449  40.542  -9.539  0.00  0.00    +0.000 N 
ATOM      3  N   UNL     1     -19.891  39.909 -10.671  0.00  0.00    +0.000 N 
ATOM      4  N   UNL     1     -17.844  39.815 -11.966  0.00  0.00    +0.000 NA
ATOM      5  N   UNL     1     -16.975  41.670 -12.994  0.00  0.00    +0.000 NA
ATOM      6  C   UNL     1     -17.921  42.027 -10.808  0.00  0.00    +0.000 A 
ATOM      7  C   UNL     1     -17.600  41.196 -11.884  0.00  0.00    +0.000 A 
ATOM      8  C   UNL     1     -18.540  41.576  -9.541  0.00  0.00    +0.000 C 
ATOM      9  C   UNL     1     -17.583  43.385 -10.899  0.00  0.00    +0.000 A 
ATOM     10  C   UNL     1     -16.954  43.878 -12.034  0.00  0.00    +0.000 A 
ATOM     11  C   UNL     1     -18.923  39.334 -11.446  0.00  0.00    +0.000 C 
ATOM     12  C   UNL     1     -16.673  42.986 -13.046  0.00  0.00    +0.000 A 
ATOM     13  H   UNL     1     -19.879  40.217  -8.680  0.00  0.00    +0.000 HD
ATOM     14  H   UNL     1     -20.777  39.429 -10.541  0.00  0.00    +0.000 HD
ENDROOT
TORSDOF 0
ENDMDL
MODEL 4
REMARK VINA RESULT:    -5.723      1.921      3.573
REMARK INTER + INTRA:          -5.723
REMARK INTER:                  -5.723
REMARK INTRA:                   0.000
REMARK UNBOUND:                 0.000
REMARK  Name = 14173723
REMARK  0 active torsions:
REMARK  status: ('A' for Active; 'I' for Inactive)
REMARK                            x       y       z     vdW  Elec       q    Type
REMARK                         _______ _______ _______ _____ _____    ______ ____
ROOT
ATOM      1  O   UNL     1     -19.981  41.968 -13.887  0.00  0.00    +0.000 OA
ATOM      2  N   UNL     1     -19.992  40.210 -12.443  0.00  0.00    +0.000 N 
ATOM      3  N   UNL     1     -19.413  39.466 -11.448  0.00  0.00    +0.000 N 
ATOM      4  N   UNL     1     -18.563  41.218 -10.007  0.00  0.00    +0.000 NA
ATOM      5  N   UNL     1     -16.709  42.449 -10.560  0.00  0.00    +0.000 NA
ATOM      6  C   UNL     1     -18.206  41.929 -12.375  0.00  0.00    +0.000 A 
ATOM      7  C   UNL     1     -17.841  41.859 -11.028  0.00  0.00    +0.000 A 
ATOM      8  C   UNL     1     -19.451  41.371 -12.949  0.00  0.00    +0.000 C 
ATOM      9  C   UNL     1     -17.364  42.630 -13.251  0.00  0.00    +0.000 A 
ATOM     10  C   UNL     1     -16.202  43.226 -12.781  0.00  0.00    +0.000 A 
ATOM     11  C   UNL     1     -19.189  40.121 -10.271  0.00  0.00    +0.000 C 
ATOM     12  C   UNL     1     -15.922  43.108 -11.437  0.00  0.00    +0.000 A 
ATOM     13  H   UNL     1     -20.847  39.816 -12.820  0.00  0.00    +0.000 HD
ATOM     14  H   UNL     1     -19.737  38.503 -11.430  0.00  0.00    +0.000 HD
ENDROOT
TORSDOF 0
ENDMDL
MODEL 5
REMARK VINA RESULT:    -5.644      2.694      4.394
REMARK INTER + INTRA:          -5.644
REMARK INTER:                  -5.644
REMARK INTRA:                   0.000
REMARK UNBOUND:                 0.000
REMARK  Name = 14173723
REMARK  0 active torsions:
REMARK  status: ('A' for Active; 'I' for Inactive)
REMARK                            x       y       z     vdW  Elec       q    Type
REMARK                         _______ _______ _______ _____ _____    ______ ____
ROOT
ATOM      1  O   UNL     1     -15.565  42.171 -11.368  0.00  0.00    +0.000 OA
ATOM      2  N   UNL     1     -16.979  40.600 -10.524  0.00  0.00    +0.000 N 
ATOM      3  N   UNL     1     -18.213  40.010 -10.446  0.00  0.00    +0.000 N 
ATOM      4  N   UNL     1     -18.842  39.962 -12.786  0.00  0.00    +0.000 NA
ATOM      5  N   UNL     1     -19.499  41.853 -13.903  0.00  0.00    +0.000 NA
ATOM      6  C   UNL     1     -17.682  42.130 -12.345  0.00  0.00    +0.000 A 
ATOM      7  C   UNL     1     -18.642  41.339 -12.981  0.00  0.00    +0.000 A 
ATOM      8  C   UNL     1     -16.673  41.633 -11.382  0.00  0.00    +0.000 C 
ATOM      9  C   UNL     1     -17.620  43.490 -12.681  0.00  0.00    +0.000 A 
ATOM     10  C   UNL     1     -18.498  44.024 -13.614  0.00  0.00    +0.000 A 
ATOM     11  C   UNL     1     -18.684  39.463 -11.606  0.00  0.00    +0.000 C 
ATOM     12  C   UNL     1     -19.412  43.170 -14.193  0.00  0.00    +0.000 A 
ATOM     13  H   UNL     1     -16.299  40.244  -9.861  0.00  0.00    +0.000 HD
ATOM     14  H   UNL     1     -18.370  39.526  -9.566  0.00  0.00    +0.000 HD
ENDROOT
TORSDOF 0
ENDMDL
