MODEL 1
REMARK VINA RESULT:    -7.092      0.000      0.000
REMARK INTER + INTRA:          -7.006
REMARK INTER:                  -7.506
REMARK INTRA:                   0.501
REMARK UNBOUND:                 0.501
REMARK  Name = 141741957
REMARK  1 active torsions:
REMARK  status: ('A' for Active; 'I' for Inactive)
REMARK    1  A    between atoms: C_7  and  C_8
REMARK                            x       y       z     vdW  Elec       q    Type
REMARK                         _______ _______ _______ _____ _____    ______ ____
ROOT
ATOM      1  F   UNL     1     -19.942  42.798  -7.339  0.00  0.00    +0.000 F 
ATOM      2  O   UNL     1     -22.035  40.083  -8.365  0.00  0.00    +0.000 OA
ATOM      3  O   UNL     1     -23.202  41.669  -6.577  0.00  0.00    +0.000 OA
ATOM      4  N   UNL     1     -21.046  41.972  -7.419  0.00  0.00    +0.000 N 
ATOM      5  N   UNL     1     -21.936  43.437  -5.855  0.00  0.00    +0.000 N 
ATOM      6  C   UNL     1     -21.063  40.848  -8.266  0.00  0.00    +0.000 C 
ATOM      7  C   UNL     1     -22.148  42.303  -6.619  0.00  0.00    +0.000 C 
ATOM      8  H   UNL     1     -21.060  43.947  -5.901  0.00  0.00    +0.000 HD
ATOM      9  H   UNL     1     -22.650  43.791  -5.228  0.00  0.00    +0.000 HD
ENDROOT
BRANCH   6  11
ATOM     10  N   UNL     1     -18.863  39.438 -10.936  0.00  0.00    +0.000 NA
ATOM     11  C   UNL     1     -19.886  40.602  -9.080  0.00  0.00    +0.000 A 
ATOM     12  C   UNL     1     -18.685  41.255  -8.820  0.00  0.00    +0.000 A 
ATOM     13  C   UNL     1     -19.921  39.711 -10.141  0.00  0.00    +0.000 A 
ATOM     14  C   UNL     1     -17.574  41.000  -9.617  0.00  0.00    +0.000 A 
ATOM     15  C   UNL     1     -17.714  40.092 -10.652  0.00  0.00    +0.000 A 
ENDBRANCH   6  11
TORSDOF 1
ENDMDL
MODEL 2
REMARK VINA RESULT:    -7.057      2.973      5.330
REMARK INTER + INTRA:          -6.969
REMARK INTER:                  -7.096
REMARK INTRA:                   0.128
REMARK UNBOUND:                 0.501
REMARK  Name = 141741957
REMARK  1 active torsions:
REMARK  status: ('A' for Active; 'I' for Inactive)
REMARK    1  A    between atoms: C_7  and  C_8
REMARK                            x       y       z     vdW  Elec       q    Type
REMARK                         _______ _______ _______ _____ _____    ______ ____
ROOT
ATOM      1  F   UNL     1     -17.882  42.723 -10.994  0.00  0.00    +0.000 F 
ATOM      2  O   UNL     1     -18.711  39.247 -10.828  0.00  0.00    +0.000 OA
ATOM      3  O   UNL     1     -17.205  39.850 -12.935  0.00  0.00    +0.000 OA
ATOM      4  N   UNL     1     -17.934  41.387 -11.336  0.00  0.00    +0.000 N 
ATOM      5  N   UNL     1     -16.625  42.058 -13.130  0.00  0.00    +0.000 N 
ATOM      6  C   UNL     1     -18.641  40.455 -10.552  0.00  0.00    +0.000 C 
ATOM      7  C   UNL     1     -17.253  41.000 -12.498  0.00  0.00    +0.000 C 
ATOM      8  H   UNL     1     -16.676  43.000 -12.757  0.00  0.00    +0.000 HD
ATOM      9  H   UNL     1     -16.096  41.923 -13.985  0.00  0.00    +0.000 HD
ENDROOT
BRANCH   6  11
ATOM     10  N   UNL     1     -19.166  42.253  -7.320  0.00  0.00    +0.000 NA
ATOM     11  C   UNL     1     -19.291  40.944  -9.350  0.00  0.00    +0.000 A 
ATOM     12  C   UNL     1     -20.607  40.606  -9.058  0.00  0.00    +0.000 A 
ATOM     13  C   UNL     1     -18.619  41.764  -8.456  0.00  0.00    +0.000 A 
ATOM     14  C   UNL     1     -21.204  41.090  -7.899  0.00  0.00    +0.000 A 
ATOM     15  C   UNL     1     -20.448  41.902  -7.071  0.00  0.00    +0.000 A 
ENDBRANCH   6  11
TORSDOF 1
ENDMDL
MODEL 3
REMARK VINA RESULT:    -6.622      1.804      2.318
REMARK INTER + INTRA:          -6.508
REMARK INTER:                  -6.457
REMARK INTRA:                  -0.051
REMARK UNBOUND:                 0.501
REMARK  Name = 141741957
REMARK  1 active torsions:
REMARK  status: ('A' for Active; 'I' for Inactive)
REMARK    1  A    between atoms: C_7  and  C_8
REMARK                            x       y       z     vdW  Elec       q    Type
REMARK                         _______ _______ _______ _____ _____    ______ ____
ROOT
ATOM      1  F   UNL     1     -18.274  42.296  -8.962  0.00  0.00    +0.000 F 
ATOM      2  O   UNL     1     -20.509  39.539  -9.420  0.00  0.00    +0.000 OA
ATOM      3  O   UNL     1     -21.064  40.969  -7.248  0.00  0.00    +0.000 OA
ATOM      4  N   UNL     1     -19.317  41.422  -8.730  0.00  0.00    +0.000 N 
ATOM      5  N   UNL     1     -19.682  42.757  -6.867  0.00  0.00    +0.000 N 
ATOM      6  C   UNL     1     -19.581  40.344  -9.596  0.00  0.00    +0.000 C 
ATOM      7  C   UNL     1     -20.102  41.656  -7.592  0.00  0.00    +0.000 C 
ATOM      8  H   UNL     1     -18.887  43.312  -7.164  0.00  0.00    +0.000 HD
ATOM      9  H   UNL     1     -20.158  43.042  -6.018  0.00  0.00    +0.000 HD
ENDROOT
BRANCH   6  11
ATOM     10  N   UNL     1     -18.530  40.118 -13.174  0.00  0.00    +0.000 NA
ATOM     11  C   UNL     1     -18.733  40.200 -10.766  0.00  0.00    +0.000 A 
ATOM     12  C   UNL     1     -17.361  40.013 -10.638  0.00  0.00    +0.000 A 
ATOM     13  C   UNL     1     -19.264  40.245 -12.045  0.00  0.00    +0.000 A 
ATOM     14  C   UNL     1     -16.573  39.879 -11.776  0.00  0.00    +0.000 A 
ATOM     15  C   UNL     1     -17.200  39.938 -13.008  0.00  0.00    +0.000 A 
ENDBRANCH   6  11
TORSDOF 1
ENDMDL
MODEL 4
REMARK VINA RESULT:    -6.613      2.430      2.907
REMARK INTER + INTRA:          -6.499
REMARK INTER:                  -6.473
REMARK INTRA:                  -0.026
REMARK UNBOUND:                 0.501
REMARK  Name = 141741957
REMARK  1 active torsions:
REMARK  status: ('A' for Active; 'I' for Inactive)
REMARK    1  A    between atoms: C_7  and  C_8
REMARK                            x       y       z     vdW  Elec       q    Type
REMARK                         _______ _______ _______ _____ _____    ______ ____
ROOT
ATOM      1  F   UNL     1     -20.721  40.314  -9.389  0.00  0.00    +0.000 F 
ATOM      2  O   UNL     1     -17.877  42.432  -8.914  0.00  0.00    +0.000 OA
ATOM      3  O   UNL     1     -19.581  42.517  -6.874  0.00  0.00    +0.000 OA
ATOM      4  N   UNL     1     -19.864  41.216  -8.792  0.00  0.00    +0.000 N 
ATOM      5  N   UNL     1     -21.440  41.195  -7.088  0.00  0.00    +0.000 N 
ATOM      6  C   UNL     1     -18.671  41.623  -9.419  0.00  0.00    +0.000 C 
ATOM      7  C   UNL     1     -20.235  41.710  -7.533  0.00  0.00    +0.000 C 
ATOM      8  H   UNL     1     -21.967  40.530  -7.644  0.00  0.00    +0.000 HD
ATOM      9  H   UNL     1     -21.830  41.467  -6.193  0.00  0.00    +0.000 HD
ENDROOT
BRANCH   6  11
ATOM     10  N   UNL     1     -18.969  40.676 -13.021  0.00  0.00    +0.000 NA
ATOM     11  C   UNL     1     -18.357  41.035 -10.709  0.00  0.00    +0.000 A 
ATOM     12  C   UNL     1     -17.196  40.293 -10.894  0.00  0.00    +0.000 A 
ATOM     13  C   UNL     1     -19.203  41.196 -11.795  0.00  0.00    +0.000 A 
ATOM     14  C   UNL     1     -16.920  39.742 -12.141  0.00  0.00    +0.000 A 
ATOM     15  C   UNL     1     -17.830  39.961 -13.162  0.00  0.00    +0.000 A 
ENDBRANCH   6  11
TORSDOF 1
ENDMDL
MODEL 5
REMARK VINA RESULT:    -6.124      4.510      6.076
REMARK INTER + INTRA:          -5.981
REMARK INTER:                  -5.773
REMARK INTRA:                  -0.208
REMARK UNBOUND:                 0.501
REMARK  Name = 141741957
REMARK  1 active torsions:
REMARK  status: ('A' for Active; 'I' for Inactive)
REMARK    1  A    between atoms: C_7  and  C_8
REMARK                            x       y       z     vdW  Elec       q    Type
REMARK                         _______ _______ _______ _____ _____    ______ ____
ROOT
ATOM      1  F   UNL     1     -15.354  41.829 -11.181  0.00  0.00    +0.000 F 
ATOM      2  O   UNL     1     -18.119  43.860 -12.200  0.00  0.00    +0.000 OA
ATOM      3  O   UNL     1     -15.817  44.625 -13.291  0.00  0.00    +0.000 OA
ATOM      4  N   UNL     1     -16.061  42.828 -11.820  0.00  0.00    +0.000 N 
ATOM      5  N   UNL     1     -13.985  43.385 -12.694  0.00  0.00    +0.000 N 
ATOM      6  C   UNL     1     -17.450  42.975 -11.642  0.00  0.00    +0.000 C 
ATOM      7  C   UNL     1     -15.334  43.689 -12.654  0.00  0.00    +0.000 C 
ATOM      8  H   UNL     1     -13.603  42.611 -12.162  0.00  0.00    +0.000 HD
ATOM      9  H   UNL     1     -13.339  43.928 -13.256  0.00  0.00    +0.000 HD
ENDROOT
BRANCH   6  11
ATOM     10  N   UNL     1     -19.432  39.996 -10.570  0.00  0.00    +0.000 NA
ATOM     11  C   UNL     1     -18.122  42.017 -10.783  0.00  0.00    +0.000 A 
ATOM     12  C   UNL     1     -18.118  42.168  -9.401  0.00  0.00    +0.000 A 
ATOM     13  C   UNL     1     -18.788  40.923 -11.313  0.00  0.00    +0.000 A 
ATOM     14  C   UNL     1     -18.770  41.234  -8.602  0.00  0.00    +0.000 A 
ATOM     15  C   UNL     1     -19.405  40.177  -9.230  0.00  0.00    +0.000 A 
ENDBRANCH   6  11
TORSDOF 1
ENDMDL
