MODEL 1
REMARK VINA RESULT:    -7.460      0.000      0.000
REMARK INTER + INTRA:          -8.019
REMARK INTER:                  -7.896
REMARK INTRA:                  -0.123
REMARK UNBOUND:                -0.123
REMARK  Name = 141839417
REMARK  4 active torsions:
REMARK  status: ('A' for Active; 'I' for Inactive)
REMARK    1  A    between atoms: C_7  and  C_8
REMARK    2  A    between atoms: C_7  and  C_9
REMARK    3  A    between atoms: C_7  and  C_10
REMARK    4  A    between atoms: C_7  and  C_11
REMARK                            x       y       z     vdW  Elec       q    Type
REMARK                         _______ _______ _______ _____ _____    ______ ____
ROOT
ATOM      1  O   UNL     1     -20.302  42.241 -16.542  0.00  0.00    +0.000 OA
ATOM      2  O   UNL     1     -17.430  44.089 -11.146  0.00  0.00    +0.000 OA
ATOM      3  N   UNL     1     -19.274  43.962 -15.379  0.00  0.00    +0.000 N 
ATOM      4  N   UNL     1     -18.358  44.002 -13.261  0.00  0.00    +0.000 N 
ATOM      5  N   UNL     1     -19.337  42.027 -14.122  0.00  0.00    +0.000 NA
ATOM      6  N   UNL     1     -19.386  40.088 -12.828  0.00  0.00    +0.000 NA
ATOM      7  C   UNL     1     -19.917  43.410 -16.485  0.00  0.00    +0.000 C 
ATOM      8  C   UNL     1     -19.002  43.273 -14.242  0.00  0.00    +0.000 A 
ATOM      9  C   UNL     1     -18.370  42.047 -11.867  0.00  0.00    +0.000 A 
ATOM     10  C   UNL     1     -19.018  41.388 -12.910  0.00  0.00    +0.000 A 
ATOM     11  C   UNL     1     -18.001  43.467 -12.034  0.00  0.00    +0.000 A 
ATOM     12  C   UNL     1     -18.085  41.354 -10.694  0.00  0.00    +0.000 A 
ATOM     13  C   UNL     1     -18.456  40.019 -10.593  0.00  0.00    +0.000 A 
ATOM     14  C   UNL     1     -19.097  39.438 -11.675  0.00  0.00    +0.000 A 
ATOM     15  H   UNL     1     -18.983  44.934 -15.409  0.00  0.00    +0.000 HD
ATOM     16  H   UNL     1     -18.135  44.975 -13.444  0.00  0.00    +0.000 HD
ENDROOT
BRANCH   7  17
ATOM     17  C   UNL     1     -20.112  44.396 -17.658  0.00  0.00    +0.000 C 
ATOM     18  C   UNL     1     -18.942  44.279 -18.646  0.00  0.00    +0.000 C 
ATOM     19  C   UNL     1     -21.416  44.054 -18.399  0.00  0.00    +0.000 C 
ATOM     20  C   UNL     1     -20.214  45.834 -17.126  0.00  0.00    +0.000 C 
ENDBRANCH   7  17
TORSDOF 1
ENDMDL
MODEL 2
REMARK VINA RESULT:    -6.971      1.859      6.046
REMARK INTER + INTRA:          -7.502
REMARK INTER:                  -7.377
REMARK INTRA:                  -0.125
REMARK UNBOUND:                -0.123
REMARK  Name = 141839417
REMARK  4 active torsions:
REMARK  status: ('A' for Active; 'I' for Inactive)
REMARK    1  A    between atoms: C_7  and  C_8
REMARK    2  A    between atoms: C_7  and  C_9
REMARK    3  A    between atoms: C_7  and  C_10
REMARK    4  A    between atoms: C_7  and  C_11
REMARK                            x       y       z     vdW  Elec       q    Type
REMARK                         _______ _______ _______ _____ _____    ______ ____
ROOT
ATOM      1  O   UNL     1     -19.427  40.529 -13.157  0.00  0.00    +0.000 OA
ATOM      2  O   UNL     1     -18.546  46.428 -15.437  0.00  0.00    +0.000 OA
ATOM      3  N   UNL     1     -18.523  42.634 -12.804  0.00  0.00    +0.000 N 
ATOM      4  N   UNL     1     -18.548  44.517 -14.137  0.00  0.00    +0.000 N 
ATOM      5  N   UNL     1     -19.594  42.517 -14.845  0.00  0.00    +0.000 NA
ATOM      6  N   UNL     1     -20.669  42.431 -16.913  0.00  0.00    +0.000 NA
ATOM      7  C   UNL     1     -18.797  41.314 -12.447  0.00  0.00    +0.000 C 
ATOM      8  C   UNL     1     -18.920  43.197 -13.973  0.00  0.00    +0.000 A 
ATOM      9  C   UNL     1     -19.632  44.509 -16.279  0.00  0.00    +0.000 A 
ATOM     10  C   UNL     1     -19.966  43.178 -16.031  0.00  0.00    +0.000 A 
ATOM     11  C   UNL     1     -18.862  45.257 -15.265  0.00  0.00    +0.000 A 
ATOM     12  C   UNL     1     -20.031  45.100 -17.474  0.00  0.00    +0.000 A 
ATOM     13  C   UNL     1     -20.753  44.347 -18.391  0.00  0.00    +0.000 A 
ATOM     14  C   UNL     1     -21.044  43.032 -18.067  0.00  0.00    +0.000 A 
ATOM     15  H   UNL     1     -18.000  43.221 -12.163  0.00  0.00    +0.000 HD
ATOM     16  H   UNL     1     -18.019  44.970 -13.398  0.00  0.00    +0.000 HD
ENDROOT
BRANCH   7  17
ATOM     17  C   UNL     1     -18.240  40.907 -11.066  0.00  0.00    +0.000 C 
ATOM     18  C   UNL     1     -19.286  40.090 -10.294  0.00  0.00    +0.000 C 
ATOM     19  C   UNL     1     -16.985  40.037 -11.260  0.00  0.00    +0.000 C 
ATOM     20  C   UNL     1     -17.849  42.158 -10.265  0.00  0.00    +0.000 C 
ENDBRANCH   7  17
TORSDOF 1
ENDMDL
MODEL 3
REMARK VINA RESULT:    -6.544      1.862      2.723
REMARK INTER + INTRA:          -7.050
REMARK INTER:                  -6.925
REMARK INTRA:                  -0.125
REMARK UNBOUND:                -0.123
REMARK  Name = 141839417
REMARK  4 active torsions:
REMARK  status: ('A' for Active; 'I' for Inactive)
REMARK    1  A    between atoms: C_7  and  C_8
REMARK    2  A    between atoms: C_7  and  C_9
REMARK    3  A    between atoms: C_7  and  C_10
REMARK    4  A    between atoms: C_7  and  C_11
REMARK                            x       y       z     vdW  Elec       q    Type
REMARK                         _______ _______ _______ _____ _____    ______ ____
ROOT
ATOM      1  O   UNL     1     -19.263  44.986 -16.275  0.00  0.00    +0.000 OA
ATOM      2  O   UNL     1     -19.520  40.569 -11.671  0.00  0.00    +0.000 OA
ATOM      3  N   UNL     1     -20.506  43.322 -15.245  0.00  0.00    +0.000 N 
ATOM      4  N   UNL     1     -19.991  41.957 -13.457  0.00  0.00    +0.000 N 
ATOM      5  N   UNL     1     -18.442  43.565 -14.240  0.00  0.00    +0.000 NA
ATOM      6  N   UNL     1     -16.365  43.787 -13.203  0.00  0.00    +0.000 NA
ATOM      7  C   UNL     1     -20.297  44.321 -16.195  0.00  0.00    +0.000 C 
ATOM      8  C   UNL     1     -19.592  42.971 -14.305  0.00  0.00    +0.000 A 
ATOM      9  C   UNL     1     -17.875  42.124 -12.337  0.00  0.00    +0.000 A 
ATOM     10  C   UNL     1     -17.554  43.140 -13.235  0.00  0.00    +0.000 A 
ATOM     11  C   UNL     1     -19.193  41.466 -12.437  0.00  0.00    +0.000 A 
ATOM     12  C   UNL     1     -16.947  41.752 -11.368  0.00  0.00    +0.000 A 
ATOM     13  C   UNL     1     -15.722  42.406 -11.321  0.00  0.00    +0.000 A 
ATOM     14  C   UNL     1     -15.482  43.406 -12.250  0.00  0.00    +0.000 A 
ATOM     15  H   UNL     1     -21.388  42.820 -15.241  0.00  0.00    +0.000 HD
ATOM     16  H   UNL     1     -20.912  41.550 -13.584  0.00  0.00    +0.000 HD
ENDROOT
BRANCH   7  17
ATOM     17  C   UNL     1     -21.487  44.535 -17.156  0.00  0.00    +0.000 C 
ATOM     18  C   UNL     1     -21.212  43.843 -18.499  0.00  0.00    +0.000 C 
ATOM     19  C   UNL     1     -22.756  43.920 -16.539  0.00  0.00    +0.000 C 
ATOM     20  C   UNL     1     -21.727  46.037 -17.373  0.00  0.00    +0.000 C 
ENDBRANCH   7  17
TORSDOF 1
ENDMDL
MODEL 4
REMARK VINA RESULT:    -6.481      1.433      6.435
REMARK INTER + INTRA:          -6.983
REMARK INTER:                  -6.859
REMARK INTRA:                  -0.124
REMARK UNBOUND:                -0.123
REMARK  Name = 141839417
REMARK  4 active torsions:
REMARK  status: ('A' for Active; 'I' for Inactive)
REMARK    1  A    between atoms: C_7  and  C_8
REMARK    2  A    between atoms: C_7  and  C_9
REMARK    3  A    between atoms: C_7  and  C_10
REMARK    4  A    between atoms: C_7  and  C_11
REMARK                            x       y       z     vdW  Elec       q    Type
REMARK                         _______ _______ _______ _____ _____    ______ ____
ROOT
ATOM      1  O   UNL     1     -17.709  42.718 -11.710  0.00  0.00    +0.000 OA
ATOM      2  O   UNL     1     -20.618  43.197 -17.374  0.00  0.00    +0.000 OA
ATOM      3  N   UNL     1     -18.823  41.622 -13.422  0.00  0.00    +0.000 N 
ATOM      4  N   UNL     1     -19.712  42.432 -15.391  0.00  0.00    +0.000 N 
ATOM      5  N   UNL     1     -18.630  43.879 -13.864  0.00  0.00    +0.000 NA
ATOM      6  N   UNL     1     -18.451  46.155 -14.338  0.00  0.00    +0.000 NA
ATOM      7  C   UNL     1     -18.163  41.681 -12.195  0.00  0.00    +0.000 C 
ATOM      8  C   UNL     1     -19.039  42.701 -14.215  0.00  0.00    +0.000 A 
ATOM      9  C   UNL     1     -19.569  44.762 -15.952  0.00  0.00    +0.000 A 
ATOM     10  C   UNL     1     -18.895  44.943 -14.745  0.00  0.00    +0.000 A 
ATOM     11  C   UNL     1     -20.023  43.407 -16.325  0.00  0.00    +0.000 A 
ATOM     12  C   UNL     1     -19.799  45.860 -16.776  0.00  0.00    +0.000 A 
ATOM     13  C   UNL     1     -19.349  47.111 -16.374  0.00  0.00    +0.000 A 
ATOM     14  C   UNL     1     -18.688  47.205 -15.160  0.00  0.00    +0.000 A 
ATOM     15  H   UNL     1     -19.167  40.727 -13.756  0.00  0.00    +0.000 HD
ATOM     16  H   UNL     1     -19.995  41.476 -15.583  0.00  0.00    +0.000 HD
ENDROOT
BRANCH   7  17
ATOM     17  C   UNL     1     -18.042  40.318 -11.479  0.00  0.00    +0.000 C 
ATOM     18  C   UNL     1     -19.133  39.360 -11.978  0.00  0.00    +0.000 C 
ATOM     19  C   UNL     1     -16.667  39.700 -11.791  0.00  0.00    +0.000 C 
ATOM     20  C   UNL     1     -18.159  40.509  -9.959  0.00  0.00    +0.000 C 
ENDBRANCH   7  17
TORSDOF 1
ENDMDL
MODEL 5
REMARK VINA RESULT:    -5.719      2.136      6.774
REMARK INTER + INTRA:          -6.177
REMARK INTER:                  -6.051
REMARK INTRA:                  -0.125
REMARK UNBOUND:                -0.123
REMARK  Name = 141839417
REMARK  4 active torsions:
REMARK  status: ('A' for Active; 'I' for Inactive)
REMARK    1  A    between atoms: C_7  and  C_8
REMARK    2  A    between atoms: C_7  and  C_9
REMARK    3  A    between atoms: C_7  and  C_10
REMARK    4  A    between atoms: C_7  and  C_11
REMARK                            x       y       z     vdW  Elec       q    Type
REMARK                         _______ _______ _______ _____ _____    ______ ____
ROOT
ATOM      1  O   UNL     1     -17.627  45.894 -14.165  0.00  0.00    +0.000 OA
ATOM      2  O   UNL     1     -21.067  41.833 -17.693  0.00  0.00    +0.000 OA
ATOM      3  N   UNL     1     -18.513  43.761 -14.363  0.00  0.00    +0.000 N 
ATOM      4  N   UNL     1     -19.788  42.819 -16.040  0.00  0.00    +0.000 N 
ATOM      5  N   UNL     1     -19.056  45.064 -16.190  0.00  0.00    +0.000 NA
ATOM      6  N   UNL     1     -19.621  46.355 -18.048  0.00  0.00    +0.000 NA
ATOM      7  C   UNL     1     -17.789  44.759 -13.713  0.00  0.00    +0.000 C 
ATOM      8  C   UNL     1     -19.120  43.931 -15.565  0.00  0.00    +0.000 A 
ATOM      9  C   UNL     1     -20.412  44.082 -17.984  0.00  0.00    +0.000 A 
ATOM     10  C   UNL     1     -19.713  45.154 -17.431  0.00  0.00    +0.000 A 
ATOM     11  C   UNL     1     -20.466  42.803 -17.248  0.00  0.00    +0.000 A 
ATOM     12  C   UNL     1     -21.040  44.241 -19.216  0.00  0.00    +0.000 A 
ATOM     13  C   UNL     1     -20.955  45.466 -19.863  0.00  0.00    +0.000 A 
ATOM     14  C   UNL     1     -20.242  46.481 -19.245  0.00  0.00    +0.000 A 
ATOM     15  H   UNL     1     -18.599  42.849 -13.928  0.00  0.00    +0.000 HD
ATOM     16  H   UNL     1     -19.785  41.972 -15.481  0.00  0.00    +0.000 HD
ENDROOT
BRANCH   7  17
ATOM     17  C   UNL     1     -17.193  44.323 -12.357  0.00  0.00    +0.000 C 
ATOM     18  C   UNL     1     -17.411  45.421 -11.306  0.00  0.00    +0.000 C 
ATOM     19  C   UNL     1     -17.899  43.041 -11.879  0.00  0.00    +0.000 C 
ATOM     20  C   UNL     1     -15.693  44.026 -12.511  0.00  0.00    +0.000 C 
ENDBRANCH   7  17
TORSDOF 1
ENDMDL
