MODEL 1
REMARK VINA RESULT:    -5.336      0.000      0.000
REMARK INTER + INTRA:          -7.905
REMARK INTER:                  -7.520
REMARK INTRA:                  -0.385
REMARK UNBOUND:                -0.385
REMARK  Name = 142105299
REMARK  12 active torsions:
REMARK  status: ('A' for Active; 'I' for Inactive)
REMARK    1  A    between atoms: N_2  and  C_6
REMARK    2  A    between atoms: N_2  and  C_7
REMARK    3  A    between atoms: N_2  and  C_8
REMARK    4  A    between atoms: N_3  and  C_5
REMARK    5  A    between atoms: C_5  and  C_10
REMARK    6  A    between atoms: C_5  and  C_11
REMARK    7  A    between atoms: C_5  and  C_12
REMARK    8  A    between atoms: C_6  and  C_13
REMARK    9  A    between atoms: C_7  and  C_14
REMARK   10  A    between atoms: C_9  and  C_15
REMARK   11  A    between atoms: C_13  and  C_17
REMARK   12  A    between atoms: C_14  and  C_18
REMARK                            x       y       z     vdW  Elec       q    Type
REMARK                         _______ _______ _______ _____ _____    ______ ____
ROOT
ATOM      1  N   UNL     1     -18.309  45.155 -14.606  0.00  0.00    +0.000 NA
ATOM      2  C   UNL     1     -18.044  44.080 -13.832  0.00  0.00    +0.000 A 
ATOM      3  C   UNL     1     -18.648  42.843 -13.989  0.00  0.00    +0.000 A 
ATOM      4  C   UNL     1     -19.585  42.701 -15.006  0.00  0.00    +0.000 A 
ATOM      5  C   UNL     1     -19.884  43.784 -15.825  0.00  0.00    +0.000 A 
ATOM      6  C   UNL     1     -19.225  44.979 -15.585  0.00  0.00    +0.000 A 
ENDROOT
BRANCH   3   9
ATOM      7  O   UNL     1     -17.419  40.925 -13.429  0.00  0.00    +0.000 OA
ATOM      8  N   UNL     1     -19.117  41.558 -11.984  0.00  0.00    +0.000 N 
ATOM      9  C   UNL     1     -18.336  41.680 -13.118  0.00  0.00    +0.000 C 
ATOM     10  H   UNL     1     -19.867  42.224 -11.823  0.00  0.00    +0.000 HD
BRANCH   8  11
ATOM     11  C   UNL     1     -18.919  40.489 -11.021  0.00  0.00    +0.000 C 
ATOM     12  C   UNL     1     -17.464  40.513 -10.538  0.00  0.00    +0.000 C 
ATOM     13  C   UNL     1     -19.864  40.696  -9.832  0.00  0.00    +0.000 C 
ATOM     14  C   UNL     1     -19.221  39.142 -11.689  0.00  0.00    +0.000 C 
ENDBRANCH   8  11
ENDBRANCH   3   9
BRANCH   2  15
ATOM     15  N   UNL     1     -17.089  44.233 -12.795  0.00  0.00    +0.000 N 
BRANCH  15  16
ATOM     16  C   UNL     1     -17.497  44.726 -11.498  0.00  0.00    +0.000 C 
BRANCH  16  17
ATOM     17  C   UNL     1     -17.141  46.200 -11.344  0.00  0.00    +0.000 C 
ATOM     18  C   UNL     1     -18.345  47.119 -11.509  0.00  0.00    +0.000 C 
ENDBRANCH  16  17
ENDBRANCH  15  16
BRANCH  15  19
ATOM     19  C   UNL     1     -15.705  43.889 -13.026  0.00  0.00    +0.000 C 
BRANCH  19  20
ATOM     20  C   UNL     1     -15.117  43.173 -11.814  0.00  0.00    +0.000 C 
ATOM     21  C   UNL     1     -13.693  43.611 -11.502  0.00  0.00    +0.000 C 
ENDBRANCH  19  20
ENDBRANCH  15  19
ENDBRANCH   2  15
TORSDOF 7
ENDMDL
MODEL 2
REMARK VINA RESULT:    -5.323      0.366      2.329
REMARK INTER + INTRA:          -7.886
REMARK INTER:                  -7.558
REMARK INTRA:                  -0.328
REMARK UNBOUND:                -0.385
REMARK  Name = 142105299
REMARK  12 active torsions:
REMARK  status: ('A' for Active; 'I' for Inactive)
REMARK    1  A    between atoms: N_2  and  C_6
REMARK    2  A    between atoms: N_2  and  C_7
REMARK    3  A    between atoms: N_2  and  C_8
REMARK    4  A    between atoms: N_3  and  C_5
REMARK    5  A    between atoms: C_5  and  C_10
REMARK    6  A    between atoms: C_5  and  C_11
REMARK    7  A    between atoms: C_5  and  C_12
REMARK    8  A    between atoms: C_6  and  C_13
REMARK    9  A    between atoms: C_7  and  C_14
REMARK   10  A    between atoms: C_9  and  C_15
REMARK   11  A    between atoms: C_13  and  C_17
REMARK   12  A    between atoms: C_14  and  C_18
REMARK                            x       y       z     vdW  Elec       q    Type
REMARK                         _______ _______ _______ _____ _____    ______ ____
ROOT
ATOM      1  N   UNL     1     -18.214  45.146 -14.565  0.00  0.00    +0.000 NA
ATOM      2  C   UNL     1     -17.963  44.062 -13.798  0.00  0.00    +0.000 A 
ATOM      3  C   UNL     1     -18.608  42.845 -13.940  0.00  0.00    +0.000 A 
ATOM      4  C   UNL     1     -19.574  42.733 -14.933  0.00  0.00    +0.000 A 
ATOM      5  C   UNL     1     -19.861  43.826 -15.744  0.00  0.00    +0.000 A 
ATOM      6  C   UNL     1     -19.159  44.999 -15.520  0.00  0.00    +0.000 A 
ENDROOT
BRANCH   3   9
ATOM      7  O   UNL     1     -17.393  40.917 -13.386  0.00  0.00    +0.000 OA
ATOM      8  N   UNL     1     -19.105  41.541 -11.954  0.00  0.00    +0.000 N 
ATOM      9  C   UNL     1     -18.311  41.672 -13.077  0.00  0.00    +0.000 C 
ATOM     10  H   UNL     1     -19.855  42.208 -11.795  0.00  0.00    +0.000 HD
BRANCH   8  11
ATOM     11  C   UNL     1     -18.922  40.461 -11.000  0.00  0.00    +0.000 C 
ATOM     12  C   UNL     1     -19.221  39.126 -11.690  0.00  0.00    +0.000 C 
ATOM     13  C   UNL     1     -17.475  40.472 -10.494  0.00  0.00    +0.000 C 
ATOM     14  C   UNL     1     -19.880  40.661  -9.819  0.00  0.00    +0.000 C 
ENDBRANCH   8  11
ENDBRANCH   3   9
BRANCH   2  15
ATOM     15  N   UNL     1     -16.978  44.185 -12.786  0.00  0.00    +0.000 N 
BRANCH  15  16
ATOM     16  C   UNL     1     -15.590  43.912 -13.084  0.00  0.00    +0.000 C 
BRANCH  16  17
ATOM     17  C   UNL     1     -14.843  43.476 -11.828  0.00  0.00    +0.000 C 
ATOM     18  C   UNL     1     -13.626  44.343 -11.535  0.00  0.00    +0.000 C 
ENDBRANCH  16  17
ENDBRANCH  15  16
BRANCH  15  19
ATOM     19  C   UNL     1     -17.356  44.594 -11.451  0.00  0.00    +0.000 C 
BRANCH  19  20
ATOM     20  C   UNL     1     -17.697  46.080 -11.418  0.00  0.00    +0.000 C 
ATOM     21  C   UNL     1     -16.464  46.971 -11.467  0.00  0.00    +0.000 C 
ENDBRANCH  19  20
ENDBRANCH  15  19
ENDBRANCH   2  15
TORSDOF 7
ENDMDL
MODEL 3
REMARK VINA RESULT:    -4.603      3.267      7.268
REMARK INTER + INTRA:          -6.872
REMARK INTER:                  -6.392
REMARK INTRA:                  -0.481
REMARK UNBOUND:                -0.385
REMARK  Name = 142105299
REMARK  12 active torsions:
REMARK  status: ('A' for Active; 'I' for Inactive)
REMARK    1  A    between atoms: N_2  and  C_6
REMARK    2  A    between atoms: N_2  and  C_7
REMARK    3  A    between atoms: N_2  and  C_8
REMARK    4  A    between atoms: N_3  and  C_5
REMARK    5  A    between atoms: C_5  and  C_10
REMARK    6  A    between atoms: C_5  and  C_11
REMARK    7  A    between atoms: C_5  and  C_12
REMARK    8  A    between atoms: C_6  and  C_13
REMARK    9  A    between atoms: C_7  and  C_14
REMARK   10  A    between atoms: C_9  and  C_15
REMARK   11  A    between atoms: C_13  and  C_17
REMARK   12  A    between atoms: C_14  and  C_18
REMARK                            x       y       z     vdW  Elec       q    Type
REMARK                         _______ _______ _______ _____ _____    ______ ____
ROOT
ATOM      1  N   UNL     1     -20.087  42.699 -14.817  0.00  0.00    +0.000 NA
ATOM      2  C   UNL     1     -19.677  43.811 -15.466  0.00  0.00    +0.000 A 
ATOM      3  C   UNL     1     -18.775  44.725 -14.946  0.00  0.00    +0.000 A 
ATOM      4  C   UNL     1     -18.261  44.482 -13.678  0.00  0.00    +0.000 A 
ATOM      5  C   UNL     1     -18.658  43.348 -12.978  0.00  0.00    +0.000 A 
ATOM      6  C   UNL     1     -19.565  42.496 -13.586  0.00  0.00    +0.000 A 
ENDROOT
BRANCH   3   9
ATOM      7  O   UNL     1     -18.916  47.007 -15.468  0.00  0.00    +0.000 OA
ATOM      8  N   UNL     1     -17.295  45.765 -16.564  0.00  0.00    +0.000 N 
ATOM      9  C   UNL     1     -18.347  45.941 -15.685  0.00  0.00    +0.000 C 
ATOM     10  H   UNL     1     -16.902  44.837 -16.689  0.00  0.00    +0.000 HD
BRANCH   8  11
ATOM     11  C   UNL     1     -16.746  46.863 -17.340  0.00  0.00    +0.000 C 
ATOM     12  C   UNL     1     -16.146  47.901 -16.386  0.00  0.00    +0.000 C 
ATOM     13  C   UNL     1     -15.656  46.327 -18.276  0.00  0.00    +0.000 C 
ATOM     14  C   UNL     1     -17.864  47.506 -18.170  0.00  0.00    +0.000 C 
ENDBRANCH   8  11
ENDBRANCH   3   9
BRANCH   2  15
ATOM     15  N   UNL     1     -20.208  44.053 -16.758  0.00  0.00    +0.000 N 
BRANCH  15  16
ATOM     16  C   UNL     1     -19.647  43.388 -17.912  0.00  0.00    +0.000 C 
BRANCH  16  17
ATOM     17  C   UNL     1     -19.579  44.336 -19.103  0.00  0.00    +0.000 C 
ATOM     18  C   UNL     1     -18.289  44.193 -19.899  0.00  0.00    +0.000 C 
ENDBRANCH  16  17
ENDBRANCH  15  16
BRANCH  15  19
ATOM     19  C   UNL     1     -21.321  44.961 -16.927  0.00  0.00    +0.000 C 
BRANCH  19  20
ATOM     20  C   UNL     1     -22.647  44.213 -16.833  0.00  0.00    +0.000 C 
ATOM     21  C   UNL     1     -23.843  45.085 -17.189  0.00  0.00    +0.000 C 
ENDBRANCH  19  20
ENDBRANCH  15  19
ENDBRANCH   2  15
TORSDOF 7
ENDMDL
MODEL 4
REMARK VINA RESULT:    -4.602      3.269      6.969
REMARK INTER + INTRA:          -6.870
REMARK INTER:                  -6.401
REMARK INTRA:                  -0.470
REMARK UNBOUND:                -0.385
REMARK  Name = 142105299
REMARK  12 active torsions:
REMARK  status: ('A' for Active; 'I' for Inactive)
REMARK    1  A    between atoms: N_2  and  C_6
REMARK    2  A    between atoms: N_2  and  C_7
REMARK    3  A    between atoms: N_2  and  C_8
REMARK    4  A    between atoms: N_3  and  C_5
REMARK    5  A    between atoms: C_5  and  C_10
REMARK    6  A    between atoms: C_5  and  C_11
REMARK    7  A    between atoms: C_5  and  C_12
REMARK    8  A    between atoms: C_6  and  C_13
REMARK    9  A    between atoms: C_7  and  C_14
REMARK   10  A    between atoms: C_9  and  C_15
REMARK   11  A    between atoms: C_13  and  C_17
REMARK   12  A    between atoms: C_14  and  C_18
REMARK                            x       y       z     vdW  Elec       q    Type
REMARK                         _______ _______ _______ _____ _____    ______ ____
ROOT
ATOM      1  N   UNL     1     -20.087  42.702 -14.818  0.00  0.00    +0.000 NA
ATOM      2  C   UNL     1     -19.672  43.813 -15.467  0.00  0.00    +0.000 A 
ATOM      3  C   UNL     1     -18.774  44.728 -14.943  0.00  0.00    +0.000 A 
ATOM      4  C   UNL     1     -18.269  44.489 -13.671  0.00  0.00    +0.000 A 
ATOM      5  C   UNL     1     -18.671  43.357 -12.970  0.00  0.00    +0.000 A 
ATOM      6  C   UNL     1     -19.574  42.503 -13.583  0.00  0.00    +0.000 A 
ENDROOT
BRANCH   3   9
ATOM      7  O   UNL     1     -18.916  47.008 -15.477  0.00  0.00    +0.000 OA
ATOM      8  N   UNL     1     -17.277  45.767 -16.548  0.00  0.00    +0.000 N 
ATOM      9  C   UNL     1     -18.340  45.943 -15.682  0.00  0.00    +0.000 C 
ATOM     10  H   UNL     1     -16.880  44.838 -16.664  0.00  0.00    +0.000 HD
BRANCH   8  11
ATOM     11  C   UNL     1     -16.722  46.862 -17.322  0.00  0.00    +0.000 C 
ATOM     12  C   UNL     1     -15.626  46.318 -18.245  0.00  0.00    +0.000 C 
ATOM     13  C   UNL     1     -17.833  47.506 -18.159  0.00  0.00    +0.000 C 
ATOM     14  C   UNL     1     -16.126  47.906 -16.369  0.00  0.00    +0.000 C 
ENDBRANCH   8  11
ENDBRANCH   3   9
BRANCH   2  15
ATOM     15  N   UNL     1     -20.194  44.052 -16.764  0.00  0.00    +0.000 N 
BRANCH  15  16
ATOM     16  C   UNL     1     -21.296  44.969 -16.946  0.00  0.00    +0.000 C 
BRANCH  16  17
ATOM     17  C   UNL     1     -22.630  44.235 -16.863  0.00  0.00    +0.000 C 
ATOM     18  C   UNL     1     -23.814  45.116 -17.238  0.00  0.00    +0.000 C 
ENDBRANCH  16  17
ENDBRANCH  15  16
BRANCH  15  19
ATOM     19  C   UNL     1     -19.620  43.386 -17.911  0.00  0.00    +0.000 C 
BRANCH  19  20
ATOM     20  C   UNL     1     -19.540  44.336 -19.103  0.00  0.00    +0.000 C 
ATOM     21  C   UNL     1     -18.242  44.195 -19.885  0.00  0.00    +0.000 C 
ENDBRANCH  19  20
ENDBRANCH  15  19
ENDBRANCH   2  15
TORSDOF 7
ENDMDL
MODEL 5
REMARK VINA RESULT:    -4.291      1.683      2.737
REMARK INTER + INTRA:          -6.432
REMARK INTER:                  -6.550
REMARK INTRA:                   0.118
REMARK UNBOUND:                -0.385
REMARK  Name = 142105299
REMARK  12 active torsions:
REMARK  status: ('A' for Active; 'I' for Inactive)
REMARK    1  A    between atoms: N_2  and  C_6
REMARK    2  A    between atoms: N_2  and  C_7
REMARK    3  A    between atoms: N_2  and  C_8
REMARK    4  A    between atoms: N_3  and  C_5
REMARK    5  A    between atoms: C_5  and  C_10
REMARK    6  A    between atoms: C_5  and  C_11
REMARK    7  A    between atoms: C_5  and  C_12
REMARK    8  A    between atoms: C_6  and  C_13
REMARK    9  A    between atoms: C_7  and  C_14
REMARK   10  A    between atoms: C_9  and  C_15
REMARK   11  A    between atoms: C_13  and  C_17
REMARK   12  A    between atoms: C_14  and  C_18
REMARK                            x       y       z     vdW  Elec       q    Type
REMARK                         _______ _______ _______ _____ _____    ______ ____
ROOT
ATOM      1  N   UNL     1     -19.137  45.402 -15.660  0.00  0.00    +0.000 NA
ATOM      2  C   UNL     1     -18.544  44.736 -14.644  0.00  0.00    +0.000 A 
ATOM      3  C   UNL     1     -18.765  43.398 -14.361  0.00  0.00    +0.000 A 
ATOM      4  C   UNL     1     -19.650  42.699 -15.172  0.00  0.00    +0.000 A 
ATOM      5  C   UNL     1     -20.279  43.349 -16.229  0.00  0.00    +0.000 A 
ATOM      6  C   UNL     1     -19.991  44.689 -16.428  0.00  0.00    +0.000 A 
ENDROOT
BRANCH   3   9
ATOM      7  O   UNL     1     -16.873  42.637 -13.201  0.00  0.00    +0.000 OA
ATOM      8  N   UNL     1     -18.946  42.168 -12.276  0.00  0.00    +0.000 N 
ATOM      9  C   UNL     1     -18.100  42.694 -13.233  0.00  0.00    +0.000 C 
ATOM     10  H   UNL     1     -19.951  42.250 -12.402  0.00  0.00    +0.000 HD
BRANCH   8  11
ATOM     11  C   UNL     1     -18.448  41.475 -11.101  0.00  0.00    +0.000 C 
ATOM     12  C   UNL     1     -19.626  40.828 -10.364  0.00  0.00    +0.000 C 
ATOM     13  C   UNL     1     -17.451  40.395 -11.534  0.00  0.00    +0.000 C 
ATOM     14  C   UNL     1     -17.748  42.480 -10.178  0.00  0.00    +0.000 C 
ENDBRANCH   8  11
ENDBRANCH   3   9
BRANCH   2  15
ATOM     15  N   UNL     1     -17.645  45.457 -13.818  0.00  0.00    +0.000 N 
BRANCH  15  16
ATOM     16  C   UNL     1     -16.253  45.577 -14.191  0.00  0.00    +0.000 C 
BRANCH  16  17
ATOM     17  C   UNL     1     -16.033  46.801 -15.072  0.00  0.00    +0.000 C 
ATOM     18  C   UNL     1     -15.525  46.445 -16.463  0.00  0.00    +0.000 C 
ENDBRANCH  16  17
ENDBRANCH  15  16
BRANCH  15  19
ATOM     19  C   UNL     1     -18.117  46.084 -12.604  0.00  0.00    +0.000 C 
BRANCH  19  20
ATOM     20  C   UNL     1     -16.991  46.193 -11.580  0.00  0.00    +0.000 C 
ATOM     21  C   UNL     1     -16.591  47.634 -11.294  0.00  0.00    +0.000 C 
ENDBRANCH  19  20
ENDBRANCH  15  19
ENDBRANCH   2  15
TORSDOF 7
ENDMDL
