MODEL 1
REMARK VINA RESULT:    -5.189      0.000      0.000
REMARK INTER + INTRA:          -6.213
REMARK INTER:                  -5.947
REMARK INTRA:                  -0.267
REMARK UNBOUND:                -0.267
REMARK  Name = 142193516
REMARK  3 active torsions:
REMARK  status: ('A' for Active; 'I' for Inactive)
REMARK    1  A    between atoms: S_1  and  N_4
REMARK    2  A    between atoms: N_4  and  C_6
REMARK    3  A    between atoms: C_5  and  C_10
REMARK                            x       y       z     vdW  Elec       q    Type
REMARK                         _______ _______ _______ _____ _____    ______ ____
ROOT
ATOM      1  N   UNL     1     -18.843  42.335  -7.894  0.00  0.00    +0.000 NA
ATOM      2  C   UNL     1     -19.604  40.634  -9.433  0.00  0.00    +0.000 A 
ATOM      3  C   UNL     1     -18.688  41.580  -9.004  0.00  0.00    +0.000 A 
ATOM      4  C   UNL     1     -20.753  40.449  -8.673  0.00  0.00    +0.000 A 
ATOM      5  C   UNL     1     -20.948  41.206  -7.522  0.00  0.00    +0.000 A 
ATOM      6  C   UNL     1     -19.971  42.127  -7.180  0.00  0.00    +0.000 A 
ENDROOT
BRANCH   2   8
ATOM      7  O   UNL     1     -18.324  39.332 -10.937  0.00  0.00    +0.000 OA
ATOM      8  C   UNL     1     -19.408  39.833 -10.634  0.00  0.00    +0.000 C 
ENDBRANCH   2   8
BRANCH   3   9
ATOM      9  N   UNL     1     -17.512  41.772  -9.774  0.00  0.00    +0.000 N 
ATOM     10  H   UNL     1     -16.679  41.335  -9.395  0.00  0.00    +0.000 HD
BRANCH   9  11
ATOM     11  S   UNL     1     -17.296  42.966 -10.887  0.00  0.00    +0.000 S 
ATOM     12  H   UNL     1     -18.578  43.124 -11.246  0.00  0.00    +0.000 HD
ENDBRANCH   9  11
ENDBRANCH   3   9
TORSDOF 3
ENDMDL
MODEL 2
REMARK VINA RESULT:    -4.294      2.403      2.967
REMARK INTER + INTRA:          -5.188
REMARK INTER:                  -4.909
REMARK INTRA:                  -0.279
REMARK UNBOUND:                -0.267
REMARK  Name = 142193516
REMARK  3 active torsions:
REMARK  status: ('A' for Active; 'I' for Inactive)
REMARK    1  A    between atoms: S_1  and  N_4
REMARK    2  A    between atoms: N_4  and  C_6
REMARK    3  A    between atoms: C_5  and  C_10
REMARK                            x       y       z     vdW  Elec       q    Type
REMARK                         _______ _______ _______ _____ _____    ______ ____
ROOT
ATOM      1  N   UNL     1     -19.607  39.975 -10.287  0.00  0.00    +0.000 NA
ATOM      2  C   UNL     1     -18.263  41.968 -10.036  0.00  0.00    +0.000 A 
ATOM      3  C   UNL     1     -18.815  40.946 -10.792  0.00  0.00    +0.000 A 
ATOM      4  C   UNL     1     -18.543  41.995  -8.675  0.00  0.00    +0.000 A 
ATOM      5  C   UNL     1     -19.354  41.013  -8.118  0.00  0.00    +0.000 A 
ATOM      6  C   UNL     1     -19.857  40.033  -8.960  0.00  0.00    +0.000 A 
ENDROOT
BRANCH   2   8
ATOM      7  O   UNL     1     -16.274  42.785 -11.024  0.00  0.00    +0.000 OA
ATOM      8  C   UNL     1     -17.414  43.004 -10.610  0.00  0.00    +0.000 C 
ENDBRANCH   2   8
BRANCH   3   9
ATOM      9  N   UNL     1     -18.535  40.914 -12.182  0.00  0.00    +0.000 N 
ATOM     10  H   UNL     1     -19.276  41.277 -12.774  0.00  0.00    +0.000 HD
BRANCH   9  11
ATOM     11  S   UNL     1     -17.401  39.958 -12.896  0.00  0.00    +0.000 S 
ATOM     12  H   UNL     1     -17.610  38.847 -12.175  0.00  0.00    +0.000 HD
ENDBRANCH   9  11
ENDBRANCH   3   9
TORSDOF 3
ENDMDL
MODEL 3
REMARK VINA RESULT:    -4.186      2.331      2.802
REMARK INTER + INTRA:          -5.064
REMARK INTER:                  -4.799
REMARK INTRA:                  -0.265
REMARK UNBOUND:                -0.267
REMARK  Name = 142193516
REMARK  3 active torsions:
REMARK  status: ('A' for Active; 'I' for Inactive)
REMARK    1  A    between atoms: S_1  and  N_4
REMARK    2  A    between atoms: N_4  and  C_6
REMARK    3  A    between atoms: C_5  and  C_10
REMARK                            x       y       z     vdW  Elec       q    Type
REMARK                         _______ _______ _______ _____ _____    ______ ____
ROOT
ATOM      1  N   UNL     1     -17.811  42.709 -11.003  0.00  0.00    +0.000 NA
ATOM      2  C   UNL     1     -18.647  40.442 -11.068  0.00  0.00    +0.000 A 
ATOM      3  C   UNL     1     -18.192  41.601 -11.676  0.00  0.00    +0.000 A 
ATOM      4  C   UNL     1     -18.715  40.419  -9.679  0.00  0.00    +0.000 A 
ATOM      5  C   UNL     1     -18.332  41.540  -8.952  0.00  0.00    +0.000 A 
ATOM      6  C   UNL     1     -17.891  42.650  -9.655  0.00  0.00    +0.000 A 
ENDROOT
BRANCH   2   8
ATOM      7  O   UNL     1     -19.682  39.320 -12.876  0.00  0.00    +0.000 OA
ATOM      8  C   UNL     1     -19.048  39.261 -11.821  0.00  0.00    +0.000 C 
ENDBRANCH   2   8
BRANCH   3   9
ATOM      9  N   UNL     1     -18.118  41.630 -13.092  0.00  0.00    +0.000 N 
ATOM     10  H   UNL     1     -17.293  41.186 -13.484  0.00  0.00    +0.000 HD
BRANCH   9  11
ATOM     11  S   UNL     1     -18.943  42.675 -14.061  0.00  0.00    +0.000 S 
ATOM     12  H   UNL     1     -19.044  43.694 -13.195  0.00  0.00    +0.000 HD
ENDBRANCH   9  11
ENDBRANCH   3   9
TORSDOF 3
ENDMDL
MODEL 4
REMARK VINA RESULT:    -4.172      3.758      4.410
REMARK INTER + INTRA:          -5.049
REMARK INTER:                  -4.734
REMARK INTRA:                  -0.315
REMARK UNBOUND:                -0.267
REMARK  Name = 142193516
REMARK  3 active torsions:
REMARK  status: ('A' for Active; 'I' for Inactive)
REMARK    1  A    between atoms: S_1  and  N_4
REMARK    2  A    between atoms: N_4  and  C_6
REMARK    3  A    between atoms: C_5  and  C_10
REMARK                            x       y       z     vdW  Elec       q    Type
REMARK                         _______ _______ _______ _____ _____    ______ ____
ROOT
ATOM      1  N   UNL     1     -18.995  40.428 -13.213  0.00  0.00    +0.000 NA
ATOM      2  C   UNL     1     -17.953  41.876 -11.582  0.00  0.00    +0.000 A 
ATOM      3  C   UNL     1     -18.384  41.582 -12.865  0.00  0.00    +0.000 A 
ATOM      4  C   UNL     1     -18.162  40.923 -10.591  0.00  0.00    +0.000 A 
ATOM      5  C   UNL     1     -18.788  39.723 -10.909  0.00  0.00    +0.000 A 
ATOM      6  C   UNL     1     -19.182  39.526 -12.224  0.00  0.00    +0.000 A 
ENDROOT
BRANCH   2   8
ATOM      7  O   UNL     1     -17.822  44.232 -11.421  0.00  0.00    +0.000 OA
ATOM      8  C   UNL     1     -17.300  43.131 -11.237  0.00  0.00    +0.000 C 
ENDBRANCH   2   8
BRANCH   3   9
ATOM      9  N   UNL     1     -18.176  42.550 -13.880  0.00  0.00    +0.000 N 
ATOM     10  H   UNL     1     -17.248  42.961 -13.893  0.00  0.00    +0.000 HD
BRANCH   9  11
ATOM     11  S   UNL     1     -19.370  43.365 -14.670  0.00  0.00    +0.000 S 
ATOM     12  H   UNL     1     -18.597  44.239 -15.329  0.00  0.00    +0.000 HD
ENDBRANCH   9  11
ENDBRANCH   3   9
TORSDOF 3
ENDMDL
MODEL 5
REMARK VINA RESULT:    -4.043      3.680      4.281
REMARK INTER + INTRA:          -4.901
REMARK INTER:                  -4.815
REMARK INTRA:                  -0.085
REMARK UNBOUND:                -0.267
REMARK  Name = 142193516
REMARK  3 active torsions:
REMARK  status: ('A' for Active; 'I' for Inactive)
REMARK    1  A    between atoms: S_1  and  N_4
REMARK    2  A    between atoms: N_4  and  C_6
REMARK    3  A    between atoms: C_5  and  C_10
REMARK                            x       y       z     vdW  Elec       q    Type
REMARK                         _______ _______ _______ _____ _____    ______ ____
ROOT
ATOM      1  N   UNL     1     -16.833  40.559 -11.834  0.00  0.00    +0.000 NA
ATOM      2  C   UNL     1     -18.643  41.675 -12.984  0.00  0.00    +0.000 A 
ATOM      3  C   UNL     1     -17.302  41.508 -12.674  0.00  0.00    +0.000 A 
ATOM      4  C   UNL     1     -19.560  40.811 -12.395  0.00  0.00    +0.000 A 
ATOM      5  C   UNL     1     -19.114  39.821 -11.525  0.00  0.00    +0.000 A 
ATOM      6  C   UNL     1     -17.753  39.738 -11.280  0.00  0.00    +0.000 A 
ENDROOT
BRANCH   2   8
ATOM      7  O   UNL     1     -19.840  42.464 -14.866  0.00  0.00    +0.000 OA
ATOM      8  C   UNL     1     -19.119  42.706 -13.896  0.00  0.00    +0.000 C 
ENDBRANCH   2   8
BRANCH   3   9
ATOM      9  N   UNL     1     -16.362  42.384 -13.273  0.00  0.00    +0.000 N 
ATOM     10  H   UNL     1     -15.938  42.034 -14.126  0.00  0.00    +0.000 HD
BRANCH   9  11
ATOM     11  S   UNL     1     -15.590  43.615 -12.499  0.00  0.00    +0.000 S 
ATOM     12  H   UNL     1     -14.659  43.868 -13.430  0.00  0.00    +0.000 HD
ENDBRANCH   9  11
ENDBRANCH   3   9
TORSDOF 3
ENDMDL
