MODEL 1
REMARK VINA RESULT:    -6.889      0.000      0.000
REMARK INTER + INTRA:          -9.977
REMARK INTER:                  -8.903
REMARK INTRA:                  -1.074
REMARK UNBOUND:                -1.074
REMARK  Name = 142794569
REMARK  5 active torsions:
REMARK  status: ('A' for Active; 'I' for Inactive)
REMARK    1  A    between atoms: N_7  and  C_10
REMARK    2  A    between atoms: N_7  and  C_12
REMARK    3  A    between atoms: C_10  and  C_11
REMARK    4  A    between atoms: C_11  and  C_13
REMARK    5  A    between atoms: C_14  and  C_17
REMARK                            x       y       z     vdW  Elec       q    Type
REMARK                         _______ _______ _______ _____ _____    ______ ____
ROOT
ATOM      1  N   UNL     1     -18.481  42.217  -8.312  0.00  0.00    +0.000 NA
ATOM      2  C   UNL     1     -18.414  41.529  -9.473  0.00  0.00    +0.000 A 
ATOM      3  C   UNL     1     -19.391  40.648  -9.910  0.00  0.00    +0.000 A 
ATOM      4  C   UNL     1     -20.508  40.461  -9.104  0.00  0.00    +0.000 A 
ATOM      5  C   UNL     1     -20.613  41.152  -7.901  0.00  0.00    +0.000 A 
ATOM      6  C   UNL     1     -19.581  42.010  -7.554  0.00  0.00    +0.000 A 
ENDROOT
BRANCH   3   9
ATOM      7  O   UNL     1     -18.531  38.939 -11.285  0.00  0.00    +0.000 OA
ATOM      8  N   UNL     1     -20.084  40.340 -12.226  0.00  0.00    +0.000 N 
ATOM      9  C   UNL     1     -19.288  39.917 -11.166  0.00  0.00    +0.000 C 
ATOM     10  H   UNL     1     -20.713  41.133 -12.145  0.00  0.00    +0.000 HD
ATOM     11  H   UNL     1     -20.057  39.864 -13.122  0.00  0.00    +0.000 HD
ENDBRANCH   3   9
BRANCH   2  12
ATOM     12  N   UNL     1     -17.296  41.717 -10.271  0.00  0.00    +0.000 N 
ATOM     13  H   UNL     1     -16.806  40.885 -10.582  0.00  0.00    +0.000 HD
BRANCH  12  14
ATOM     14  C   UNL     1     -17.033  42.932 -11.006  0.00  0.00    +0.000 C 
BRANCH  14  17
ATOM     15  F   UNL     1     -15.706  43.188 -12.932  0.00  0.00    +0.000 F 
ATOM     16  F   UNL     1     -16.709  41.273 -12.642  0.00  0.00    +0.000 F 
ATOM     17  C   UNL     1     -16.850  42.613 -12.480  0.00  0.00    +0.000 C 
BRANCH  17  21
ATOM     18  F   UNL     1     -18.376  42.139 -14.218  0.00  0.00    +0.000 F 
ATOM     19  F   UNL     1     -17.669  44.195 -14.029  0.00  0.00    +0.000 F 
ATOM     20  F   UNL     1     -19.072  43.384 -12.568  0.00  0.00    +0.000 F 
ATOM     21  C   UNL     1     -17.999  43.087 -13.333  0.00  0.00    +0.000 C 
ENDBRANCH  17  21
ENDBRANCH  14  17
ENDBRANCH  12  14
ENDBRANCH   2  12
TORSDOF 5
ENDMDL
MODEL 2
REMARK VINA RESULT:    -6.730      3.709      5.479
REMARK INTER + INTRA:          -9.771
REMARK INTER:                  -9.138
REMARK INTRA:                  -0.633
REMARK UNBOUND:                -1.074
REMARK  Name = 142794569
REMARK  5 active torsions:
REMARK  status: ('A' for Active; 'I' for Inactive)
REMARK    1  A    between atoms: N_7  and  C_10
REMARK    2  A    between atoms: N_7  and  C_12
REMARK    3  A    between atoms: C_10  and  C_11
REMARK    4  A    between atoms: C_11  and  C_13
REMARK    5  A    between atoms: C_14  and  C_17
REMARK                            x       y       z     vdW  Elec       q    Type
REMARK                         _______ _______ _______ _____ _____    ______ ____
ROOT
ATOM      1  N   UNL     1     -19.068  39.563 -10.794  0.00  0.00    +0.000 NA
ATOM      2  C   UNL     1     -18.107  40.478 -10.535  0.00  0.00    +0.000 A 
ATOM      3  C   UNL     1     -17.292  41.041 -11.504  0.00  0.00    +0.000 A 
ATOM      4  C   UNL     1     -17.473  40.639 -12.823  0.00  0.00    +0.000 A 
ATOM      5  C   UNL     1     -18.452  39.699 -13.128  0.00  0.00    +0.000 A 
ATOM      6  C   UNL     1     -19.215  39.195 -12.087  0.00  0.00    +0.000 A 
ENDROOT
BRANCH   3   9
ATOM      7  O   UNL     1     -16.548  43.208 -10.956  0.00  0.00    +0.000 OA
ATOM      8  N   UNL     1     -14.942  41.583 -11.154  0.00  0.00    +0.000 N 
ATOM      9  C   UNL     1     -16.262  42.022 -11.194  0.00  0.00    +0.000 C 
ATOM     10  H   UNL     1     -14.689  40.617 -11.339  0.00  0.00    +0.000 HD
ATOM     11  H   UNL     1     -14.185  42.223 -10.937  0.00  0.00    +0.000 HD
ENDBRANCH   3   9
BRANCH   2  12
ATOM     12  N   UNL     1     -17.929  40.872  -9.219  0.00  0.00    +0.000 N 
ATOM     13  H   UNL     1     -17.027  40.681  -8.797  0.00  0.00    +0.000 HD
BRANCH  12  14
ATOM     14  C   UNL     1     -18.749  41.864  -8.562  0.00  0.00    +0.000 C 
BRANCH  14  17
ATOM     15  F   UNL     1     -20.910  40.955  -8.765  0.00  0.00    +0.000 F 
ATOM     16  F   UNL     1     -19.527  39.978  -7.390  0.00  0.00    +0.000 F 
ATOM     17  C   UNL     1     -19.918  41.187  -7.868  0.00  0.00    +0.000 C 
BRANCH  17  21
ATOM     18  F   UNL     1     -21.054  41.209  -5.798  0.00  0.00    +0.000 F 
ATOM     19  F   UNL     1     -21.412  42.874  -7.162  0.00  0.00    +0.000 F 
ATOM     20  F   UNL     1     -19.502  42.707  -6.120  0.00  0.00    +0.000 F 
ATOM     21  C   UNL     1     -20.478  42.000  -6.728  0.00  0.00    +0.000 C 
ENDBRANCH  17  21
ENDBRANCH  14  17
ENDBRANCH  12  14
ENDBRANCH   2  12
TORSDOF 5
ENDMDL
MODEL 3
REMARK VINA RESULT:    -6.688      3.111      4.883
REMARK INTER + INTRA:          -9.717
REMARK INTER:                  -8.907
REMARK INTRA:                  -0.810
REMARK UNBOUND:                -1.074
REMARK  Name = 142794569
REMARK  5 active torsions:
REMARK  status: ('A' for Active; 'I' for Inactive)
REMARK    1  A    between atoms: N_7  and  C_10
REMARK    2  A    between atoms: N_7  and  C_12
REMARK    3  A    between atoms: C_10  and  C_11
REMARK    4  A    between atoms: C_11  and  C_13
REMARK    5  A    between atoms: C_14  and  C_17
REMARK                            x       y       z     vdW  Elec       q    Type
REMARK                         _______ _______ _______ _____ _____    ______ ____
ROOT
ATOM      1  N   UNL     1     -16.769  42.919 -10.736  0.00  0.00    +0.000 NA
ATOM      2  C   UNL     1     -17.544  41.812 -10.722  0.00  0.00    +0.000 A 
ATOM      3  C   UNL     1     -18.013  41.180 -11.863  0.00  0.00    +0.000 A 
ATOM      4  C   UNL     1     -17.664  41.718 -13.096  0.00  0.00    +0.000 A 
ATOM      5  C   UNL     1     -16.868  42.857 -13.150  0.00  0.00    +0.000 A 
ATOM      6  C   UNL     1     -16.450  43.415 -11.953  0.00  0.00    +0.000 A 
ENDROOT
BRANCH   3   9
ATOM      7  O   UNL     1     -18.584  39.040 -11.061  0.00  0.00    +0.000 OA
ATOM      8  N   UNL     1     -19.975  39.958 -12.636  0.00  0.00    +0.000 N 
ATOM      9  C   UNL     1     -18.851  39.989 -11.816  0.00  0.00    +0.000 C 
ATOM     10  H   UNL     1     -20.212  40.727 -13.255  0.00  0.00    +0.000 HD
ATOM     11  H   UNL     1     -20.597  39.157 -12.639  0.00  0.00    +0.000 HD
ENDBRANCH   3   9
BRANCH   2  12
ATOM     12  N   UNL     1     -17.891  41.282  -9.489  0.00  0.00    +0.000 N 
ATOM     13  H   UNL     1     -17.348  40.493  -9.156  0.00  0.00    +0.000 HD
BRANCH  12  14
ATOM     14  C   UNL     1     -18.660  41.998  -8.498  0.00  0.00    +0.000 C 
BRANCH  14  17
ATOM     15  F   UNL     1     -18.877  39.906  -7.443  0.00  0.00    +0.000 F 
ATOM     16  F   UNL     1     -19.963  41.590  -6.582  0.00  0.00    +0.000 F 
ATOM     17  C   UNL     1     -19.568  41.032  -7.755  0.00  0.00    +0.000 C 
BRANCH  17  21
ATOM     18  F   UNL     1     -21.923  41.017  -7.908  0.00  0.00    +0.000 F 
ATOM     19  F   UNL     1     -20.847  39.312  -8.742  0.00  0.00    +0.000 F 
ATOM     20  F   UNL     1     -20.787  41.242  -9.756  0.00  0.00    +0.000 F 
ATOM     21  C   UNL     1     -20.792  40.646  -8.545  0.00  0.00    +0.000 C 
ENDBRANCH  17  21
ENDBRANCH  14  17
ENDBRANCH  12  14
ENDBRANCH   2  12
TORSDOF 5
ENDMDL
MODEL 4
REMARK VINA RESULT:    -6.073      3.517      5.488
REMARK INTER + INTRA:          -8.922
REMARK INTER:                  -8.187
REMARK INTRA:                  -0.734
REMARK UNBOUND:                -1.074
REMARK  Name = 142794569
REMARK  5 active torsions:
REMARK  status: ('A' for Active; 'I' for Inactive)
REMARK    1  A    between atoms: N_7  and  C_10
REMARK    2  A    between atoms: N_7  and  C_12
REMARK    3  A    between atoms: C_10  and  C_11
REMARK    4  A    between atoms: C_11  and  C_13
REMARK    5  A    between atoms: C_14  and  C_17
REMARK                            x       y       z     vdW  Elec       q    Type
REMARK                         _______ _______ _______ _____ _____    ______ ____
ROOT
ATOM      1  N   UNL     1     -17.905  43.576 -13.458  0.00  0.00    +0.000 NA
ATOM      2  C   UNL     1     -18.885  43.048 -14.223  0.00  0.00    +0.000 A 
ATOM      3  C   UNL     1     -19.495  43.718 -15.273  0.00  0.00    +0.000 A 
ATOM      4  C   UNL     1     -19.071  45.012 -15.554  0.00  0.00    +0.000 A 
ATOM      5  C   UNL     1     -18.064  45.589 -14.788  0.00  0.00    +0.000 A 
ATOM      6  C   UNL     1     -17.519  44.837 -13.760  0.00  0.00    +0.000 A 
ENDROOT
BRANCH   3   9
ATOM      7  O   UNL     1     -20.305  42.261 -16.937  0.00  0.00    +0.000 OA
ATOM      8  N   UNL     1     -21.859  43.542 -15.840  0.00  0.00    +0.000 N 
ATOM      9  C   UNL     1     -20.553  43.123 -16.078  0.00  0.00    +0.000 C 
ATOM     10  H   UNL     1     -22.081  44.241 -15.138  0.00  0.00    +0.000 HD
ATOM     11  H   UNL     1     -22.635  43.157 -16.367  0.00  0.00    +0.000 HD
ENDBRANCH   3   9
BRANCH   2  12
ATOM     12  N   UNL     1     -19.305  41.759 -13.936  0.00  0.00    +0.000 N 
ATOM     13  H   UNL     1     -19.192  41.063 -14.664  0.00  0.00    +0.000 HD
BRANCH  12  14
ATOM     14  C   UNL     1     -19.498  41.261 -12.594  0.00  0.00    +0.000 C 
BRANCH  14  17
ATOM     15  F   UNL     1     -19.510  38.965 -12.078  0.00  0.00    +0.000 F 
ATOM     16  F   UNL     1     -18.065  39.662 -13.555  0.00  0.00    +0.000 F 
ATOM     17  C   UNL     1     -18.683  39.995 -12.393  0.00  0.00    +0.000 C 
BRANCH  17  21
ATOM     18  F   UNL     1     -16.592  39.310 -11.538  0.00  0.00    +0.000 F 
ATOM     19  F   UNL     1     -18.152  39.819 -10.100  0.00  0.00    +0.000 F 
ATOM     20  F   UNL     1     -17.174  41.393 -11.251  0.00  0.00    +0.000 F 
ATOM     21  C   UNL     1     -17.642  40.128 -11.311  0.00  0.00    +0.000 C 
ENDBRANCH  17  21
ENDBRANCH  14  17
ENDBRANCH  12  14
ENDBRANCH   2  12
TORSDOF 5
ENDMDL
MODEL 5
REMARK VINA RESULT:    -5.963      2.833      4.859
REMARK INTER + INTRA:          -8.780
REMARK INTER:                  -7.826
REMARK INTRA:                  -0.954
REMARK UNBOUND:                -1.074
REMARK  Name = 142794569
REMARK  5 active torsions:
REMARK  status: ('A' for Active; 'I' for Inactive)
REMARK    1  A    between atoms: N_7  and  C_10
REMARK    2  A    between atoms: N_7  and  C_12
REMARK    3  A    between atoms: C_10  and  C_11
REMARK    4  A    between atoms: C_11  and  C_13
REMARK    5  A    between atoms: C_14  and  C_17
REMARK                            x       y       z     vdW  Elec       q    Type
REMARK                         _______ _______ _______ _____ _____    ______ ____
ROOT
ATOM      1  N   UNL     1     -15.819  41.839 -11.502  0.00  0.00    +0.000 NA
ATOM      2  C   UNL     1     -16.985  41.833 -12.186  0.00  0.00    +0.000 A 
ATOM      3  C   UNL     1     -17.442  42.897 -12.948  0.00  0.00    +0.000 A 
ATOM      4  C   UNL     1     -16.652  44.040 -13.012  0.00  0.00    +0.000 A 
ATOM      5  C   UNL     1     -15.446  44.083 -12.321  0.00  0.00    +0.000 A 
ATOM      6  C   UNL     1     -15.078  42.967 -11.586  0.00  0.00    +0.000 A 
ENDROOT
BRANCH   3   9
ATOM      7  O   UNL     1     -19.052  41.861 -14.321  0.00  0.00    +0.000 OA
ATOM      8  N   UNL     1     -19.523  43.986 -13.597  0.00  0.00    +0.000 N 
ATOM      9  C   UNL     1     -18.705  42.862 -13.672  0.00  0.00    +0.000 C 
ATOM     10  H   UNL     1     -19.260  44.810 -13.067  0.00  0.00    +0.000 HD
ATOM     11  H   UNL     1     -20.417  44.014 -14.077  0.00  0.00    +0.000 HD
ENDBRANCH   3   9
BRANCH   2  12
ATOM     12  N   UNL     1     -17.768  40.693 -12.116  0.00  0.00    +0.000 N 
ATOM     13  H   UNL     1     -17.953  40.205 -12.986  0.00  0.00    +0.000 HD
BRANCH  12  14
ATOM     14  C   UNL     1     -17.986  39.944 -10.900  0.00  0.00    +0.000 C 
BRANCH  14  17
ATOM     15  F   UNL     1     -19.941  41.247 -11.032  0.00  0.00    +0.000 F 
ATOM     16  F   UNL     1     -20.014  39.432  -9.824  0.00  0.00    +0.000 F 
ATOM     17  C   UNL     1     -19.218  40.471 -10.185  0.00  0.00    +0.000 C 
BRANCH  17  21
ATOM     18  F   UNL     1     -18.246  42.421  -9.276  0.00  0.00    +0.000 F 
ATOM     19  F   UNL     1     -18.095  40.583  -8.111  0.00  0.00    +0.000 F 
ATOM     20  F   UNL     1     -20.012  41.611  -8.285  0.00  0.00    +0.000 F 
ATOM     21  C   UNL     1     -18.887  41.277  -8.955  0.00  0.00    +0.000 C 
ENDBRANCH  17  21
ENDBRANCH  14  17
ENDBRANCH  12  14
ENDBRANCH   2  12
TORSDOF 5
ENDMDL
