MODEL 1
REMARK VINA RESULT:    -6.369      0.000      0.000
REMARK INTER + INTRA:          -7.898
REMARK INTER:                  -7.486
REMARK INTRA:                  -0.412
REMARK UNBOUND:                -0.412
REMARK  Name = 142824273
REMARK  7 active torsions:
REMARK  status: ('A' for Active; 'I' for Inactive)
REMARK    1  A    between atoms: C_5  and  C_7
REMARK    2  A    between atoms: C_6  and  C_12
REMARK    3  A    between atoms: C_7  and  C_14
REMARK    4  A    between atoms: C_11  and  C_15
REMARK    5  A    between atoms: C_13  and  C_16
REMARK    6  A    between atoms: C_13  and  C_18
REMARK    7  A    between atoms: C_16  and  C_20
REMARK                            x       y       z     vdW  Elec       q    Type
REMARK                         _______ _______ _______ _____ _____    ______ ____
ROOT
ATOM      1  O   UNL     1     -18.093  46.149 -13.749  0.00  0.00    +0.000 OA
ATOM      2  N   UNL     1     -19.811  42.523 -15.367  0.00  0.00    +0.000 N 
ATOM      3  N   UNL     1     -19.241  45.459 -15.544  0.00  0.00    +0.000 N 
ATOM      4  N   UNL     1     -18.969  41.514 -13.478  0.00  0.00    +0.000 NA
ATOM      5  C   UNL     1     -19.930  44.705 -16.464  0.00  0.00    +0.000 C 
ATOM      6  C   UNL     1     -20.186  43.383 -16.365  0.00  0.00    +0.000 C 
ATOM      7  C   UNL     1     -18.574  43.868 -13.700  0.00  0.00    +0.000 A 
ATOM      8  C   UNL     1     -19.107  42.679 -14.182  0.00  0.00    +0.000 A 
ATOM      9  C   UNL     1     -18.632  45.204 -14.338  0.00  0.00    +0.000 C 
ATOM     10  C   UNL     1     -20.993  42.680 -17.450  0.00  0.00    +0.000 C 
ATOM     11  C   UNL     1     -17.891  43.819 -12.463  0.00  0.00    +0.000 A 
ATOM     12  C   UNL     1     -17.754  42.637 -11.752  0.00  0.00    +0.000 A 
ATOM     13  C   UNL     1     -18.310  41.512 -12.303  0.00  0.00    +0.000 A 
ATOM     14  H   UNL     1     -20.100  41.560 -15.511  0.00  0.00    +0.000 HD
ATOM     15  H   UNL     1     -19.105  46.432 -15.800  0.00  0.00    +0.000 HD
ENDROOT
BRANCH   5  16
ATOM     16  C   UNL     1     -20.368  45.491 -17.609  0.00  0.00    +0.000 C 
ATOM     17  C   UNL     1     -19.519  45.693 -18.632  0.00  0.00    +0.000 C 
ATOM     18  C   UNL     1     -21.779  45.992 -17.492  0.00  0.00    +0.000 C 
BRANCH  17  20
ATOM     19  C   UNL     1     -17.053  45.938 -18.968  0.00  0.00    +0.000 C 
ATOM     20  C   UNL     1     -18.159  45.201 -18.739  0.00  0.00    +0.000 C 
ATOM     21  C   UNL     1     -17.166  47.432 -19.140  0.00  0.00    +0.000 C 
BRANCH  19  22
ATOM     22  C   UNL     1     -15.649  45.389 -19.100  0.00  0.00    +0.000 C 
ATOM     23  C   UNL     1     -15.024  45.726 -20.447  0.00  0.00    +0.000 C 
ENDBRANCH  19  22
ENDBRANCH  17  20
ENDBRANCH   5  16
TORSDOF 3
ENDMDL
MODEL 2
REMARK VINA RESULT:    -5.848      1.650      2.576
REMARK INTER + INTRA:          -7.285
REMARK INTER:                  -6.685
REMARK INTRA:                  -0.601
REMARK UNBOUND:                -0.412
REMARK  Name = 142824273
REMARK  7 active torsions:
REMARK  status: ('A' for Active; 'I' for Inactive)
REMARK    1  A    between atoms: C_5  and  C_7
REMARK    2  A    between atoms: C_6  and  C_12
REMARK    3  A    between atoms: C_7  and  C_14
REMARK    4  A    between atoms: C_11  and  C_15
REMARK    5  A    between atoms: C_13  and  C_16
REMARK    6  A    between atoms: C_13  and  C_18
REMARK    7  A    between atoms: C_16  and  C_20
REMARK                            x       y       z     vdW  Elec       q    Type
REMARK                         _______ _______ _______ _____ _____    ______ ____
ROOT
ATOM      1  O   UNL     1     -19.303  41.930 -14.277  0.00  0.00    +0.000 OA
ATOM      2  N   UNL     1     -18.887  46.200 -14.842  0.00  0.00    +0.000 N 
ATOM      3  N   UNL     1     -19.815  43.510 -15.780  0.00  0.00    +0.000 N 
ATOM      4  N   UNL     1     -17.860  46.174 -12.782  0.00  0.00    +0.000 NA
ATOM      5  C   UNL     1     -19.954  44.701 -16.452  0.00  0.00    +0.000 C 
ATOM      6  C   UNL     1     -19.522  45.904 -16.019  0.00  0.00    +0.000 C 
ATOM      7  C   UNL     1     -18.624  44.063 -13.622  0.00  0.00    +0.000 A 
ATOM      8  C   UNL     1     -18.470  45.437 -13.760  0.00  0.00    +0.000 A 
ATOM      9  C   UNL     1     -19.262  43.129 -14.580  0.00  0.00    +0.000 C 
ATOM     10  C   UNL     1     -19.716  47.142 -16.887  0.00  0.00    +0.000 C 
ATOM     11  C   UNL     1     -18.126  43.469 -12.441  0.00  0.00    +0.000 A 
ATOM     12  C   UNL     1     -17.506  44.219 -11.453  0.00  0.00    +0.000 A 
ATOM     13  C   UNL     1     -17.399  45.567 -11.671  0.00  0.00    +0.000 A 
ATOM     14  H   UNL     1     -18.668  47.184 -14.716  0.00  0.00    +0.000 HD
ATOM     15  H   UNL     1     -20.237  42.706 -16.235  0.00  0.00    +0.000 HD
ENDROOT
BRANCH   5  16
ATOM     16  C   UNL     1     -20.648  44.543 -17.722  0.00  0.00    +0.000 C 
ATOM     17  C   UNL     1     -19.931  44.421 -18.853  0.00  0.00    +0.000 C 
ATOM     18  C   UNL     1     -22.144  44.530 -17.594  0.00  0.00    +0.000 C 
BRANCH  17  20
ATOM     19  C   UNL     1     -17.734  45.347 -19.608  0.00  0.00    +0.000 C 
ATOM     20  C   UNL     1     -18.485  44.428 -18.966  0.00  0.00    +0.000 C 
ATOM     21  C   UNL     1     -18.396  46.512 -20.300  0.00  0.00    +0.000 C 
BRANCH  19  22
ATOM     22  C   UNL     1     -16.226  45.311 -19.730  0.00  0.00    +0.000 C 
ATOM     23  C   UNL     1     -15.540  46.090 -18.617  0.00  0.00    +0.000 C 
ENDBRANCH  19  22
ENDBRANCH  17  20
ENDBRANCH   5  16
TORSDOF 3
ENDMDL
MODEL 3
REMARK VINA RESULT:    -5.776      3.403      5.754
REMARK INTER + INTRA:          -7.202
REMARK INTER:                  -6.582
REMARK INTRA:                  -0.620
REMARK UNBOUND:                -0.412
REMARK  Name = 142824273
REMARK  7 active torsions:
REMARK  status: ('A' for Active; 'I' for Inactive)
REMARK    1  A    between atoms: C_5  and  C_7
REMARK    2  A    between atoms: C_6  and  C_12
REMARK    3  A    between atoms: C_7  and  C_14
REMARK    4  A    between atoms: C_11  and  C_15
REMARK    5  A    between atoms: C_13  and  C_16
REMARK    6  A    between atoms: C_13  and  C_18
REMARK    7  A    between atoms: C_16  and  C_20
REMARK                            x       y       z     vdW  Elec       q    Type
REMARK                         _______ _______ _______ _____ _____    ______ ____
ROOT
ATOM      1  O   UNL     1     -19.832  42.586 -14.555  0.00  0.00    +0.000 OA
ATOM      2  N   UNL     1     -16.600  43.214 -11.747  0.00  0.00    +0.000 N 
ATOM      3  N   UNL     1     -18.201  44.061 -14.134  0.00  0.00    +0.000 N 
ATOM      4  N   UNL     1     -17.326  41.258 -10.775  0.00  0.00    +0.000 NA
ATOM      5  C   UNL     1     -17.122  44.723 -13.598  0.00  0.00    +0.000 C 
ATOM      6  C   UNL     1     -16.405  44.323 -12.527  0.00  0.00    +0.000 C 
ATOM      7  C   UNL     1     -18.538  42.008 -12.702  0.00  0.00    +0.000 A 
ATOM      8  C   UNL     1     -17.515  42.170 -11.777  0.00  0.00    +0.000 A 
ATOM      9  C   UNL     1     -18.877  42.902 -13.835  0.00  0.00    +0.000 C 
ATOM     10  C   UNL     1     -15.207  45.142 -12.061  0.00  0.00    +0.000 C 
ATOM     11  C   UNL     1     -19.365  40.871 -12.564  0.00  0.00    +0.000 A 
ATOM     12  C   UNL     1     -19.170  39.947 -11.548  0.00  0.00    +0.000 A 
ATOM     13  C   UNL     1     -18.138  40.186 -10.680  0.00  0.00    +0.000 A 
ATOM     14  H   UNL     1     -15.946  43.120 -10.975  0.00  0.00    +0.000 HD
ATOM     15  H   UNL     1     -18.647  44.529 -14.917  0.00  0.00    +0.000 HD
ENDROOT
BRANCH   5  16
ATOM     16  C   UNL     1     -16.814  45.953 -14.316  0.00  0.00    +0.000 C 
ATOM     17  C   UNL     1     -17.338  47.114 -13.886  0.00  0.00    +0.000 C 
ATOM     18  C   UNL     1     -15.904  45.752 -15.493  0.00  0.00    +0.000 C 
BRANCH  17  20
ATOM     19  C   UNL     1     -17.917  47.960 -11.605  0.00  0.00    +0.000 C 
ATOM     20  C   UNL     1     -18.212  47.299 -12.743  0.00  0.00    +0.000 C 
ATOM     21  C   UNL     1     -16.561  48.599 -11.433  0.00  0.00    +0.000 C 
BRANCH  19  22
ATOM     22  C   UNL     1     -18.843  48.113 -10.418  0.00  0.00    +0.000 C 
ATOM     23  C   UNL     1     -19.355  49.539 -10.267  0.00  0.00    +0.000 C 
ENDBRANCH  19  22
ENDBRANCH  17  20
ENDBRANCH   5  16
TORSDOF 3
ENDMDL
MODEL 4
REMARK VINA RESULT:    -5.659      2.410      5.882
REMARK INTER + INTRA:          -7.064
REMARK INTER:                  -6.850
REMARK INTRA:                  -0.214
REMARK UNBOUND:                -0.412
REMARK  Name = 142824273
REMARK  7 active torsions:
REMARK  status: ('A' for Active; 'I' for Inactive)
REMARK    1  A    between atoms: C_5  and  C_7
REMARK    2  A    between atoms: C_6  and  C_12
REMARK    3  A    between atoms: C_7  and  C_14
REMARK    4  A    between atoms: C_11  and  C_15
REMARK    5  A    between atoms: C_13  and  C_16
REMARK    6  A    between atoms: C_13  and  C_18
REMARK    7  A    between atoms: C_16  and  C_20
REMARK                            x       y       z     vdW  Elec       q    Type
REMARK                         _______ _______ _______ _____ _____    ______ ____
ROOT
ATOM      1  O   UNL     1     -17.867  46.098 -16.102  0.00  0.00    +0.000 OA
ATOM      2  N   UNL     1     -20.355  42.891 -14.604  0.00  0.00    +0.000 N 
ATOM      3  N   UNL     1     -17.880  44.573 -14.462  0.00  0.00    +0.000 N 
ATOM      4  N   UNL     1     -21.783  43.464 -16.314  0.00  0.00    +0.000 NA
ATOM      5  C   UNL     1     -18.212  43.539 -13.620  0.00  0.00    +0.000 C 
ATOM      6  C   UNL     1     -19.328  42.785 -13.703  0.00  0.00    +0.000 C 
ATOM      7  C   UNL     1     -19.767  44.747 -16.131  0.00  0.00    +0.000 A 
ATOM      8  C   UNL     1     -20.599  43.728 -15.683  0.00  0.00    +0.000 A 
ATOM      9  C   UNL     1     -18.464  45.161 -15.559  0.00  0.00    +0.000 C 
ATOM     10  C   UNL     1     -19.553  41.644 -12.716  0.00  0.00    +0.000 C 
ATOM     11  C   UNL     1     -20.195  45.488 -17.255  0.00  0.00    +0.000 A 
ATOM     12  C   UNL     1     -21.395  45.216 -17.894  0.00  0.00    +0.000 A 
ATOM     13  C   UNL     1     -22.153  44.195 -17.385  0.00  0.00    +0.000 A 
ATOM     14  H   UNL     1     -21.108  42.224 -14.465  0.00  0.00    +0.000 HD
ATOM     15  H   UNL     1     -17.020  45.061 -14.226  0.00  0.00    +0.000 HD
ENDROOT
BRANCH   5  16
ATOM     16  C   UNL     1     -17.215  43.329 -12.579  0.00  0.00    +0.000 C 
ATOM     17  C   UNL     1     -17.116  44.216 -11.574  0.00  0.00    +0.000 C 
ATOM     18  C   UNL     1     -16.395  42.086 -12.774  0.00  0.00    +0.000 C 
BRANCH  17  20
ATOM     19  C   UNL     1     -17.477  46.686 -11.420  0.00  0.00    +0.000 C 
ATOM     20  C   UNL     1     -17.917  45.411 -11.391  0.00  0.00    +0.000 C 
ATOM     21  C   UNL     1     -16.016  46.974 -11.662  0.00  0.00    +0.000 C 
BRANCH  19  22
ATOM     22  C   UNL     1     -18.336  47.912 -11.199  0.00  0.00    +0.000 C 
ATOM     23  C   UNL     1     -17.933  49.067 -12.105  0.00  0.00    +0.000 C 
ENDBRANCH  19  22
ENDBRANCH  17  20
ENDBRANCH   5  16
TORSDOF 3
ENDMDL
MODEL 5
REMARK VINA RESULT:    -5.557      2.597      6.306
REMARK INTER + INTRA:          -6.944
REMARK INTER:                  -7.062
REMARK INTRA:                   0.118
REMARK UNBOUND:                -0.412
REMARK  Name = 142824273
REMARK  7 active torsions:
REMARK  status: ('A' for Active; 'I' for Inactive)
REMARK    1  A    between atoms: C_5  and  C_7
REMARK    2  A    between atoms: C_6  and  C_12
REMARK    3  A    between atoms: C_7  and  C_14
REMARK    4  A    between atoms: C_11  and  C_15
REMARK    5  A    between atoms: C_13  and  C_16
REMARK    6  A    between atoms: C_13  and  C_18
REMARK    7  A    between atoms: C_16  and  C_20
REMARK                            x       y       z     vdW  Elec       q    Type
REMARK                         _______ _______ _______ _____ _____    ______ ____
ROOT
ATOM      1  O   UNL     1     -20.726  42.371 -14.209  0.00  0.00    +0.000 OA
ATOM      2  N   UNL     1     -18.351  45.573 -15.890  0.00  0.00    +0.000 N 
ATOM      3  N   UNL     1     -19.250  43.924 -13.557  0.00  0.00    +0.000 N 
ATOM      4  N   UNL     1     -19.291  44.953 -17.897  0.00  0.00    +0.000 NA
ATOM      5  C   UNL     1     -18.357  44.968 -13.521  0.00  0.00    +0.000 C 
ATOM      6  C   UNL     1     -17.969  45.707 -14.582  0.00  0.00    +0.000 C 
ATOM      7  C   UNL     1     -19.963  43.698 -15.968  0.00  0.00    +0.000 A 
ATOM      8  C   UNL     1     -19.217  44.714 -16.552  0.00  0.00    +0.000 A 
ATOM      9  C   UNL     1     -19.992  43.311 -14.538  0.00  0.00    +0.000 C 
ATOM     10  C   UNL     1     -16.992  46.861 -14.389  0.00  0.00    +0.000 C 
ATOM     11  C   UNL     1     -20.794  42.933 -16.818  0.00  0.00    +0.000 A 
ATOM     12  C   UNL     1     -20.869  43.179 -18.180  0.00  0.00    +0.000 A 
ATOM     13  C   UNL     1     -20.097  44.199 -18.671  0.00  0.00    +0.000 A 
ATOM     14  H   UNL     1     -17.914  46.233 -16.527  0.00  0.00    +0.000 HD
ATOM     15  H   UNL     1     -19.395  43.451 -12.669  0.00  0.00    +0.000 HD
ENDROOT
BRANCH   5  16
ATOM     16  C   UNL     1     -17.838  45.209 -12.182  0.00  0.00    +0.000 C 
ATOM     17  C   UNL     1     -17.124  44.248 -11.571  0.00  0.00    +0.000 C 
ATOM     18  C   UNL     1     -18.181  46.565 -11.638  0.00  0.00    +0.000 C 
BRANCH  17  20
ATOM     19  C   UNL     1     -17.225  41.750 -11.647  0.00  0.00    +0.000 C 
ATOM     20  C   UNL     1     -16.792  42.942 -12.108  0.00  0.00    +0.000 C 
ATOM     21  C   UNL     1     -18.151  41.693 -10.458  0.00  0.00    +0.000 C 
BRANCH  19  22
ATOM     22  C   UNL     1     -16.839  40.401 -12.215  0.00  0.00    +0.000 C 
ATOM     23  C   UNL     1     -17.934  39.812 -13.093  0.00  0.00    +0.000 C 
ENDBRANCH  19  22
ENDBRANCH  17  20
ENDBRANCH   5  16
TORSDOF 3
ENDMDL
