MODEL 1
REMARK VINA RESULT:    -6.626      0.000      0.000
REMARK INTER + INTRA:         -11.167
REMARK INTER:                 -10.112
REMARK INTRA:                  -1.055
REMARK UNBOUND:                -1.055
REMARK  Name = 142987239
REMARK  11 active torsions:
REMARK  status: ('A' for Active; 'I' for Inactive)
REMARK    1  A    between atoms: N_2  and  C_6
REMARK    2  A    between atoms: N_2  and  C_7
REMARK    3  A    between atoms: N_2  and  C_8
REMARK    4  A    between atoms: N_3  and  C_12
REMARK    5  A    between atoms: C_6  and  C_9
REMARK    6  A    between atoms: C_7  and  C_10
REMARK    7  A    between atoms: C_8  and  C_11
REMARK    8  A    between atoms: C_9  and  C_12
REMARK    9  A    between atoms: C_10  and  C_13
REMARK   10  A    between atoms: C_11  and  C_14
REMARK   11  A    between atoms: C_15  and  C_16
REMARK                            x       y       z     vdW  Elec       q    Type
REMARK                         _______ _______ _______ _____ _____    ______ ____
ROOT
ATOM      1  O   UNL     1     -19.299  39.246 -10.836  0.00  0.00    +0.000 OA
ATOM      2  N   UNL     1     -17.428  40.553 -10.422  0.00  0.00    +0.000 N 
ATOM      3  C   UNL     1     -18.721  40.106 -10.177  0.00  0.00    +0.000 C 
ATOM      4  H   UNL     1     -17.031  41.306  -9.871  0.00  0.00    +0.000 HD
ENDROOT
BRANCH   3   7
ATOM      5  N   UNL     1     -19.369  42.264  -7.159  0.00  0.00    +0.000 NA
ATOM      6  N   UNL     1     -21.340  42.612  -5.869  0.00  0.00    +0.000 N 
ATOM      7  C   UNL     1     -19.433  40.754  -9.046  0.00  0.00    +0.000 A 
ATOM      8  C   UNL     1     -20.777  40.494  -8.801  0.00  0.00    +0.000 A 
ATOM      9  C   UNL     1     -18.780  41.639  -8.204  0.00  0.00    +0.000 A 
ATOM     10  C   UNL     1     -21.417  41.117  -7.734  0.00  0.00    +0.000 A 
ATOM     11  C   UNL     1     -20.675  41.985  -6.951  0.00  0.00    +0.000 A 
ATOM     12  H   UNL     1     -22.339  42.768  -5.942  0.00  0.00    +0.000 HD
ATOM     13  H   UNL     1     -20.796  43.251  -5.302  0.00  0.00    +0.000 HD
ENDBRANCH   3   7
BRANCH   2  14
ATOM     14  C   UNL     1     -16.620  40.042 -11.495  0.00  0.00    +0.000 C 
BRANCH  14  15
ATOM     15  C   UNL     1     -16.897  40.745 -12.824  0.00  0.00    +0.000 C 
BRANCH  15  16
ATOM     16  C   UNL     1     -16.916  42.274 -12.737  0.00  0.00    +0.000 C 
BRANCH  16  17
ATOM     17  N   UNL     1     -18.273  42.802 -12.711  0.00  0.00    +0.000 NA
BRANCH  17  18
ATOM     18  C   UNL     1     -19.042  42.306 -13.853  0.00  0.00    +0.000 C 
BRANCH  18  19
ATOM     19  C   UNL     1     -19.398  43.456 -14.792  0.00  0.00    +0.000 C 
ATOM     20  C   UNL     1     -20.627  43.131 -15.626  0.00  0.00    +0.000 C 
ENDBRANCH  18  19
ENDBRANCH  17  18
BRANCH  17  21
ATOM     21  C   UNL     1     -18.257  44.265 -12.706  0.00  0.00    +0.000 C 
BRANCH  21  22
ATOM     22  C   UNL     1     -17.503  44.784 -11.484  0.00  0.00    +0.000 C 
ATOM     23  C   UNL     1     -16.443  45.802 -11.878  0.00  0.00    +0.000 C 
ENDBRANCH  21  22
ENDBRANCH  17  21
ENDBRANCH  16  17
ENDBRANCH  15  16
ENDBRANCH  14  15
ENDBRANCH   2  14
TORSDOF 9
ENDMDL
MODEL 2
REMARK VINA RESULT:    -5.548      3.035      7.252
REMARK INTER + INTRA:          -9.522
REMARK INTER:                  -8.793
REMARK INTRA:                  -0.728
REMARK UNBOUND:                -1.055
REMARK  Name = 142987239
REMARK  11 active torsions:
REMARK  status: ('A' for Active; 'I' for Inactive)
REMARK    1  A    between atoms: N_2  and  C_6
REMARK    2  A    between atoms: N_2  and  C_7
REMARK    3  A    between atoms: N_2  and  C_8
REMARK    4  A    between atoms: N_3  and  C_12
REMARK    5  A    between atoms: C_6  and  C_9
REMARK    6  A    between atoms: C_7  and  C_10
REMARK    7  A    between atoms: C_8  and  C_11
REMARK    8  A    between atoms: C_9  and  C_12
REMARK    9  A    between atoms: C_10  and  C_13
REMARK   10  A    between atoms: C_11  and  C_14
REMARK   11  A    between atoms: C_15  and  C_16
REMARK                            x       y       z     vdW  Elec       q    Type
REMARK                         _______ _______ _______ _____ _____    ______ ____
ROOT
ATOM      1  O   UNL     1     -18.795  45.610 -13.971  0.00  0.00    +0.000 OA
ATOM      2  N   UNL     1     -18.008  43.428 -14.014  0.00  0.00    +0.000 N 
ATOM      3  C   UNL     1     -18.726  44.510 -14.512  0.00  0.00    +0.000 C 
ATOM      4  H   UNL     1     -18.039  42.530 -14.484  0.00  0.00    +0.000 HD
ENDROOT
BRANCH   3   7
ATOM      5  N   UNL     1     -20.183  45.092 -17.935  0.00  0.00    +0.000 NA
ATOM      6  N   UNL     1     -21.521  43.702 -19.332  0.00  0.00    +0.000 N 
ATOM      7  C   UNL     1     -19.471  44.274 -15.775  0.00  0.00    +0.000 A 
ATOM      8  C   UNL     1     -20.133  43.073 -16.004  0.00  0.00    +0.000 A 
ATOM      9  C   UNL     1     -19.525  45.243 -16.764  0.00  0.00    +0.000 A 
ATOM     10  C   UNL     1     -20.821  42.881 -17.197  0.00  0.00    +0.000 A 
ATOM     11  C   UNL     1     -20.816  43.912 -18.122  0.00  0.00    +0.000 A 
ATOM     12  H   UNL     1     -21.620  42.754 -19.674  0.00  0.00    +0.000 HD
ATOM     13  H   UNL     1     -21.509  44.456 -20.008  0.00  0.00    +0.000 HD
ENDBRANCH   3   7
BRANCH   2  14
ATOM     14  C   UNL     1     -17.258  43.492 -12.790  0.00  0.00    +0.000 C 
BRANCH  14  15
ATOM     15  C   UNL     1     -18.059  42.996 -11.586  0.00  0.00    +0.000 C 
BRANCH  15  16
ATOM     16  C   UNL     1     -17.287  42.053 -10.659  0.00  0.00    +0.000 C 
BRANCH  16  17
ATOM     17  N   UNL     1     -18.180  41.215  -9.868  0.00  0.00    +0.000 NA
BRANCH  17  18
ATOM     18  C   UNL     1     -19.339  40.804 -10.662  0.00  0.00    +0.000 C 
BRANCH  18  19
ATOM     19  C   UNL     1     -19.065  39.468 -11.348  0.00  0.00    +0.000 C 
ATOM     20  C   UNL     1     -18.859  39.645 -12.843  0.00  0.00    +0.000 C 
ENDBRANCH  18  19
ENDBRANCH  17  18
BRANCH  17  21
ATOM     21  C   UNL     1     -18.614  41.920  -8.662  0.00  0.00    +0.000 C 
BRANCH  21  22
ATOM     22  C   UNL     1     -19.680  41.110  -7.928  0.00  0.00    +0.000 C 
ATOM     23  C   UNL     1     -20.292  41.906  -6.785  0.00  0.00    +0.000 C 
ENDBRANCH  21  22
ENDBRANCH  17  21
ENDBRANCH  16  17
ENDBRANCH  15  16
ENDBRANCH  14  15
ENDBRANCH   2  14
TORSDOF 9
ENDMDL
MODEL 3
REMARK VINA RESULT:    -5.483      2.913      7.202
REMARK INTER + INTRA:          -9.422
REMARK INTER:                  -8.679
REMARK INTRA:                  -0.744
REMARK UNBOUND:                -1.055
REMARK  Name = 142987239
REMARK  11 active torsions:
REMARK  status: ('A' for Active; 'I' for Inactive)
REMARK    1  A    between atoms: N_2  and  C_6
REMARK    2  A    between atoms: N_2  and  C_7
REMARK    3  A    between atoms: N_2  and  C_8
REMARK    4  A    between atoms: N_3  and  C_12
REMARK    5  A    between atoms: C_6  and  C_9
REMARK    6  A    between atoms: C_7  and  C_10
REMARK    7  A    between atoms: C_8  and  C_11
REMARK    8  A    between atoms: C_9  and  C_12
REMARK    9  A    between atoms: C_10  and  C_13
REMARK   10  A    between atoms: C_11  and  C_14
REMARK   11  A    between atoms: C_15  and  C_16
REMARK                            x       y       z     vdW  Elec       q    Type
REMARK                         _______ _______ _______ _____ _____    ______ ____
ROOT
ATOM      1  O   UNL     1     -19.375  43.912 -13.405  0.00  0.00    +0.000 OA
ATOM      2  N   UNL     1     -18.922  41.906 -14.479  0.00  0.00    +0.000 N 
ATOM      3  C   UNL     1     -19.399  43.211 -14.412  0.00  0.00    +0.000 C 
ATOM      4  H   UNL     1     -19.024  41.364 -15.330  0.00  0.00    +0.000 HD
ENDROOT
BRANCH   3   7
ATOM      5  N   UNL     1     -21.805  43.722 -17.264  0.00  0.00    +0.000 NA
ATOM      6  N   UNL     1     -21.742  45.203 -19.128  0.00  0.00    +0.000 N 
ATOM      7  C   UNL     1     -19.997  43.752 -15.660  0.00  0.00    +0.000 A 
ATOM      8  C   UNL     1     -19.363  44.755 -16.383  0.00  0.00    +0.000 A 
ATOM      9  C   UNL     1     -21.206  43.273 -16.138  0.00  0.00    +0.000 A 
ATOM     10  C   UNL     1     -19.948  45.243 -17.547  0.00  0.00    +0.000 A 
ATOM     11  C   UNL     1     -21.159  44.697 -17.941  0.00  0.00    +0.000 A 
ATOM     12  H   UNL     1     -21.538  46.158 -19.397  0.00  0.00    +0.000 HD
ATOM     13  H   UNL     1     -22.630  44.806 -19.409  0.00  0.00    +0.000 HD
ENDBRANCH   3   7
BRANCH   2  14
ATOM     14  C   UNL     1     -18.339  41.235 -13.350  0.00  0.00    +0.000 C 
BRANCH  14  15
ATOM     15  C   UNL     1     -19.380  40.507 -12.499  0.00  0.00    +0.000 C 
BRANCH  15  16
ATOM     16  C   UNL     1     -18.800  39.440 -11.567  0.00  0.00    +0.000 C 
BRANCH  16  17
ATOM     17  N   UNL     1     -18.837  39.857 -10.171  0.00  0.00    +0.000 NA
BRANCH  17  18
ATOM     18  C   UNL     1     -20.048  40.632  -9.896  0.00  0.00    +0.000 C 
BRANCH  18  19
ATOM     19  C   UNL     1     -20.776  40.062  -8.681  0.00  0.00    +0.000 C 
ATOM     20  C   UNL     1     -21.354  41.168  -7.812  0.00  0.00    +0.000 C 
ENDBRANCH  18  19
ENDBRANCH  17  18
BRANCH  17  21
ATOM     21  C   UNL     1     -17.646  40.640  -9.836  0.00  0.00    +0.000 C 
BRANCH  21  22
ATOM     22  C   UNL     1     -18.030  42.085  -9.528  0.00  0.00    +0.000 C 
ATOM     23  C   UNL     1     -17.355  43.055 -10.486  0.00  0.00    +0.000 C 
ENDBRANCH  21  22
ENDBRANCH  17  21
ENDBRANCH  16  17
ENDBRANCH  15  16
ENDBRANCH  14  15
ENDBRANCH   2  14
TORSDOF 9
ENDMDL
MODEL 4
REMARK VINA RESULT:    -5.201      2.070      2.994
REMARK INTER + INTRA:          -8.992
REMARK INTER:                  -7.840
REMARK INTRA:                  -1.152
REMARK UNBOUND:                -1.055
REMARK  Name = 142987239
REMARK  11 active torsions:
REMARK  status: ('A' for Active; 'I' for Inactive)
REMARK    1  A    between atoms: N_2  and  C_6
REMARK    2  A    between atoms: N_2  and  C_7
REMARK    3  A    between atoms: N_2  and  C_8
REMARK    4  A    between atoms: N_3  and  C_12
REMARK    5  A    between atoms: C_6  and  C_9
REMARK    6  A    between atoms: C_7  and  C_10
REMARK    7  A    between atoms: C_8  and  C_11
REMARK    8  A    between atoms: C_9  and  C_12
REMARK    9  A    between atoms: C_10  and  C_13
REMARK   10  A    between atoms: C_11  and  C_14
REMARK   11  A    between atoms: C_15  and  C_16
REMARK                            x       y       z     vdW  Elec       q    Type
REMARK                         _______ _______ _______ _____ _____    ______ ____
ROOT
ATOM      1  O   UNL     1     -16.576  41.251 -12.767  0.00  0.00    +0.000 OA
ATOM      2  N   UNL     1     -15.962  42.611 -10.991  0.00  0.00    +0.000 N 
ATOM      3  C   UNL     1     -16.747  41.650 -11.618  0.00  0.00    +0.000 C 
ATOM      4  H   UNL     1     -16.193  42.935 -10.058  0.00  0.00    +0.000 HD
ENDROOT
BRANCH   3   7
ATOM      5  N   UNL     1     -19.577  39.413 -10.536  0.00  0.00    +0.000 NA
ATOM      6  N   UNL     1     -21.040  39.524  -8.659  0.00  0.00    +0.000 N 
ATOM      7  C   UNL     1     -17.877  41.108 -10.821  0.00  0.00    +0.000 A 
ATOM      8  C   UNL     1     -18.300  41.738  -9.656  0.00  0.00    +0.000 A 
ATOM      9  C   UNL     1     -18.543  39.958 -11.214  0.00  0.00    +0.000 A 
ATOM     10  C   UNL     1     -19.361  41.207  -8.931  0.00  0.00    +0.000 A 
ATOM     11  C   UNL     1     -19.961  40.053  -9.409  0.00  0.00    +0.000 A 
ATOM     12  H   UNL     1     -21.065  39.698  -7.662  0.00  0.00    +0.000 HD
ATOM     13  H   UNL     1     -21.470  38.677  -9.009  0.00  0.00    +0.000 HD
ENDBRANCH   3   7
BRANCH   2  14
ATOM     14  C   UNL     1     -14.848  43.247 -11.639  0.00  0.00    +0.000 C 
BRANCH  14  15
ATOM     15  C   UNL     1     -15.285  44.208 -12.745  0.00  0.00    +0.000 C 
BRANCH  15  16
ATOM     16  C   UNL     1     -16.237  45.314 -12.282  0.00  0.00    +0.000 C 
BRANCH  16  17
ATOM     17  N   UNL     1     -17.634  44.945 -12.471  0.00  0.00    +0.000 NA
BRANCH  17  18
ATOM     18  C   UNL     1     -17.846  44.397 -13.812  0.00  0.00    +0.000 C 
BRANCH  18  19
ATOM     19  C   UNL     1     -19.072  43.488 -13.825  0.00  0.00    +0.000 C 
ATOM     20  C   UNL     1     -19.701  43.426 -15.208  0.00  0.00    +0.000 C 
ENDBRANCH  18  19
ENDBRANCH  17  18
BRANCH  17  21
ATOM     21  C   UNL     1     -18.507  46.099 -12.250  0.00  0.00    +0.000 C 
BRANCH  21  22
ATOM     22  C   UNL     1     -17.931  46.998 -11.159  0.00  0.00    +0.000 C 
ATOM     23  C   UNL     1     -18.158  48.469 -11.476  0.00  0.00    +0.000 C 
ENDBRANCH  21  22
ENDBRANCH  17  21
ENDBRANCH  16  17
ENDBRANCH  15  16
ENDBRANCH  14  15
ENDBRANCH   2  14
TORSDOF 9
ENDMDL
MODEL 5
REMARK VINA RESULT:    -5.112      3.356      5.815
REMARK INTER + INTRA:          -8.857
REMARK INTER:                  -7.764
REMARK INTRA:                  -1.093
REMARK UNBOUND:                -1.055
REMARK  Name = 142987239
REMARK  11 active torsions:
REMARK  status: ('A' for Active; 'I' for Inactive)
REMARK    1  A    between atoms: N_2  and  C_6
REMARK    2  A    between atoms: N_2  and  C_7
REMARK    3  A    between atoms: N_2  and  C_8
REMARK    4  A    between atoms: N_3  and  C_12
REMARK    5  A    between atoms: C_6  and  C_9
REMARK    6  A    between atoms: C_7  and  C_10
REMARK    7  A    between atoms: C_8  and  C_11
REMARK    8  A    between atoms: C_9  and  C_12
REMARK    9  A    between atoms: C_10  and  C_13
REMARK   10  A    between atoms: C_11  and  C_14
REMARK   11  A    between atoms: C_15  and  C_16
REMARK                            x       y       z     vdW  Elec       q    Type
REMARK                         _______ _______ _______ _____ _____    ______ ____
ROOT
ATOM      1  O   UNL     1     -16.997  44.811 -12.341  0.00  0.00    +0.000 OA
ATOM      2  N   UNL     1     -18.068  44.530 -14.381  0.00  0.00    +0.000 N 
ATOM      3  C   UNL     1     -17.672  44.130 -13.109  0.00  0.00    +0.000 C 
ATOM      4  H   UNL     1     -18.579  43.895 -14.984  0.00  0.00    +0.000 HD
ENDROOT
BRANCH   3   7
ATOM      5  N   UNL     1     -18.901  40.576 -13.316  0.00  0.00    +0.000 NA
ATOM      6  N   UNL     1     -19.275  38.940 -11.626  0.00  0.00    +0.000 N 
ATOM      7  C   UNL     1     -18.091  42.767 -12.693  0.00  0.00    +0.000 A 
ATOM      8  C   UNL     1     -18.075  42.388 -11.356  0.00  0.00    +0.000 A 
ATOM      9  C   UNL     1     -18.509  41.832 -13.627  0.00  0.00    +0.000 A 
ATOM     10  C   UNL     1     -18.472  41.104 -10.997  0.00  0.00    +0.000 A 
ATOM     11  C   UNL     1     -18.874  40.244 -12.006  0.00  0.00    +0.000 A 
ATOM     12  H   UNL     1     -18.877  38.539 -10.785  0.00  0.00    +0.000 HD
ATOM     13  H   UNL     1     -19.561  38.313 -12.367  0.00  0.00    +0.000 HD
ENDBRANCH   3   7
BRANCH   2  14
ATOM     14  C   UNL     1     -17.719  45.809 -14.935  0.00  0.00    +0.000 C 
BRANCH  14  15
ATOM     15  C   UNL     1     -18.857  46.426 -15.748  0.00  0.00    +0.000 C 
BRANCH  15  16
ATOM     16  C   UNL     1     -18.964  45.904 -17.183  0.00  0.00    +0.000 C 
BRANCH  16  17
ATOM     17  N   UNL     1     -20.206  45.176 -17.407  0.00  0.00    +0.000 NA
BRANCH  17  18
ATOM     18  C   UNL     1     -19.938  43.872 -18.015  0.00  0.00    +0.000 C 
BRANCH  18  19
ATOM     19  C   UNL     1     -20.740  42.782 -17.308  0.00  0.00    +0.000 C 
ATOM     20  C   UNL     1     -21.044  43.165 -15.868  0.00  0.00    +0.000 C 
ENDBRANCH  18  19
ENDBRANCH  17  18
BRANCH  17  21
ATOM     21  C   UNL     1     -21.114  45.953 -18.252  0.00  0.00    +0.000 C 
BRANCH  21  22
ATOM     22  C   UNL     1     -22.291  46.472 -17.430  0.00  0.00    +0.000 C 
ATOM     23  C   UNL     1     -23.419  45.453 -17.375  0.00  0.00    +0.000 C 
ENDBRANCH  21  22
ENDBRANCH  17  21
ENDBRANCH  16  17
ENDBRANCH  15  16
ENDBRANCH  14  15
ENDBRANCH   2  14
TORSDOF 9
ENDMDL
