MODEL 1
REMARK VINA RESULT:    -5.994      0.000      0.000
REMARK INTER + INTRA:          -6.396
REMARK INTER:                  -6.344
REMARK INTRA:                  -0.051
REMARK UNBOUND:                -0.051
REMARK  Name = 142990396
REMARK  1 active torsions:
REMARK  status: ('A' for Active; 'I' for Inactive)
REMARK    1  A    between atoms: C_5  and  C_8
REMARK                            x       y       z     vdW  Elec       q    Type
REMARK                         _______ _______ _______ _____ _____    ______ ____
ROOT
ATOM      1  N   UNL     1     -18.506  41.571  -8.341  0.00  0.00    +0.000 NA
ATOM      2  C   UNL     1     -20.777  41.612  -7.513  0.00  0.00    +0.000 A 
ATOM      3  C   UNL     1     -21.126  40.600  -8.402  0.00  0.00    +0.000 A 
ATOM      4  C   UNL     1     -19.466  42.058  -7.522  0.00  0.00    +0.000 A 
ATOM      5  C   UNL     1     -20.167  40.074  -9.259  0.00  0.00    +0.000 A 
ATOM      6  C   UNL     1     -18.883  40.589  -9.190  0.00  0.00    +0.000 A 
ENDROOT
BRANCH   2  10
ATOM      7  F   UNL     1     -22.201  43.130  -4.458  0.00  0.00    +0.000 F 
ATOM      8  O   UNL     1     -22.960  42.249  -6.914  0.00  0.00    +0.000 OA
ATOM      9  N   UNL     1     -21.302  42.629  -5.366  0.00  0.00    +0.000 N 
ATOM     10  C   UNL     1     -21.757  42.181  -6.605  0.00  0.00    +0.000 C 
ATOM     11  H   UNL     1     -20.336  42.549  -5.067  0.00  0.00    +0.000 HD
ENDBRANCH   2  10
TORSDOF 1
ENDMDL
MODEL 2
REMARK VINA RESULT:    -5.800      3.467      4.645
REMARK INTER + INTRA:          -6.190
REMARK INTER:                  -6.137
REMARK INTRA:                  -0.052
REMARK UNBOUND:                -0.051
REMARK  Name = 142990396
REMARK  1 active torsions:
REMARK  status: ('A' for Active; 'I' for Inactive)
REMARK    1  A    between atoms: C_5  and  C_8
REMARK                            x       y       z     vdW  Elec       q    Type
REMARK                         _______ _______ _______ _____ _____    ______ ____
ROOT
ATOM      1  N   UNL     1     -22.748  40.867  -7.565  0.00  0.00    +0.000 NA
ATOM      2  C   UNL     1     -20.416  40.952  -8.197  0.00  0.00    +0.000 A 
ATOM      3  C   UNL     1     -20.189  41.946  -7.249  0.00  0.00    +0.000 A 
ATOM      4  C   UNL     1     -21.702  40.451  -8.314  0.00  0.00    +0.000 A 
ATOM      5  C   UNL     1     -21.239  42.399  -6.460  0.00  0.00    +0.000 A 
ATOM      6  C   UNL     1     -22.489  41.833  -6.655  0.00  0.00    +0.000 A 
ENDROOT
BRANCH   2  10
ATOM      7  F   UNL     1     -18.704  39.288 -11.020  0.00  0.00    +0.000 F 
ATOM      8  O   UNL     1     -18.147  40.588  -8.699  0.00  0.00    +0.000 OA
ATOM      9  N   UNL     1     -19.688  39.813 -10.221  0.00  0.00    +0.000 N 
ATOM     10  C   UNL     1     -19.338  40.458  -9.035  0.00  0.00    +0.000 C 
ATOM     11  H   UNL     1     -20.650  39.653 -10.502  0.00  0.00    +0.000 HD
ENDBRANCH   2  10
TORSDOF 1
ENDMDL
MODEL 3
REMARK VINA RESULT:    -5.725      3.944      4.943
REMARK INTER + INTRA:          -6.111
REMARK INTER:                  -6.057
REMARK INTRA:                  -0.054
REMARK UNBOUND:                -0.051
REMARK  Name = 142990396
REMARK  1 active torsions:
REMARK  status: ('A' for Active; 'I' for Inactive)
REMARK    1  A    between atoms: C_5  and  C_8
REMARK                            x       y       z     vdW  Elec       q    Type
REMARK                         _______ _______ _______ _____ _____    ______ ____
ROOT
ATOM      1  N   UNL     1     -19.237  42.314  -7.540  0.00  0.00    +0.000 NA
ATOM      2  C   UNL     1     -19.048  40.684  -9.316  0.00  0.00    +0.000 A 
ATOM      3  C   UNL     1     -20.357  40.272  -9.086  0.00  0.00    +0.000 A 
ATOM      4  C   UNL     1     -18.540  41.699  -8.523  0.00  0.00    +0.000 A 
ATOM      5  C   UNL     1     -21.105  40.879  -8.085  0.00  0.00    +0.000 A 
ATOM      6  C   UNL     1     -20.505  41.886  -7.347  0.00  0.00    +0.000 A 
ENDROOT
BRANCH   2  10
ATOM      7  F   UNL     1     -16.120  39.936 -11.447  0.00  0.00    +0.000 F 
ATOM      8  O   UNL     1     -18.729  39.239 -11.145  0.00  0.00    +0.000 OA
ATOM      9  N   UNL     1     -16.906  40.456 -10.449  0.00  0.00    +0.000 N 
ATOM     10  C   UNL     1     -18.242  40.069 -10.356  0.00  0.00    +0.000 C 
ATOM     11  H   UNL     1     -16.490  41.160  -9.849  0.00  0.00    +0.000 HD
ENDBRANCH   2  10
TORSDOF 1
ENDMDL
MODEL 4
REMARK VINA RESULT:    -5.319      3.569      4.622
REMARK INTER + INTRA:          -5.681
REMARK INTER:                  -5.627
REMARK INTRA:                  -0.054
REMARK UNBOUND:                -0.051
REMARK  Name = 142990396
REMARK  1 active torsions:
REMARK  status: ('A' for Active; 'I' for Inactive)
REMARK    1  A    between atoms: C_5  and  C_8
REMARK                            x       y       z     vdW  Elec       q    Type
REMARK                         _______ _______ _______ _____ _____    ______ ____
ROOT
ATOM      1  N   UNL     1     -18.672  39.695 -13.028  0.00  0.00    +0.000 NA
ATOM      2  C   UNL     1     -18.545  40.129 -10.653  0.00  0.00    +0.000 A 
ATOM      3  C   UNL     1     -17.168  40.297 -10.750  0.00  0.00    +0.000 A 
ATOM      4  C   UNL     1     -19.245  39.832 -11.811  0.00  0.00    +0.000 A 
ATOM      5  C   UNL     1     -16.543  40.165 -11.985  0.00  0.00    +0.000 A 
ATOM      6  C   UNL     1     -17.332  39.865 -13.083  0.00  0.00    +0.000 A 
ENDROOT
BRANCH   2  10
ATOM      7  F   UNL     1     -21.299  40.240  -8.188  0.00  0.00    +0.000 F 
ATOM      8  O   UNL     1     -18.603  40.550  -8.339  0.00  0.00    +0.000 OA
ATOM      9  N   UNL     1     -20.608  40.076  -9.363  0.00  0.00    +0.000 N 
ATOM     10  C   UNL     1     -19.227  40.263  -9.377  0.00  0.00    +0.000 C 
ATOM     11  H   UNL     1     -21.151  39.883 -10.198  0.00  0.00    +0.000 HD
ENDBRANCH   2  10
TORSDOF 1
ENDMDL
MODEL 5
REMARK VINA RESULT:    -5.298      1.868      2.560
REMARK INTER + INTRA:          -5.659
REMARK INTER:                  -5.587
REMARK INTRA:                  -0.073
REMARK UNBOUND:                -0.051
REMARK  Name = 142990396
REMARK  1 active torsions:
REMARK  status: ('A' for Active; 'I' for Inactive)
REMARK    1  A    between atoms: C_5  and  C_8
REMARK                            x       y       z     vdW  Elec       q    Type
REMARK                         _______ _______ _______ _____ _____    ______ ____
ROOT
ATOM      1  N   UNL     1     -19.179  39.399 -10.858  0.00  0.00    +0.000 NA
ATOM      2  C   UNL     1     -19.626  40.864  -8.987  0.00  0.00    +0.000 A 
ATOM      3  C   UNL     1     -18.435  41.543  -9.226  0.00  0.00    +0.000 A 
ATOM      4  C   UNL     1     -19.949  39.809  -9.825  0.00  0.00    +0.000 A 
ATOM      5  C   UNL     1     -17.617  41.152 -10.279  0.00  0.00    +0.000 A 
ATOM      6  C   UNL     1     -18.030  40.084 -11.059  0.00  0.00    +0.000 A 
ENDROOT
BRANCH   2  10
ATOM      7  F   UNL     1     -20.698  42.171  -5.699  0.00  0.00    +0.000 F 
ATOM      8  O   UNL     1     -21.729  41.052  -7.951  0.00  0.00    +0.000 OA
ATOM      9  N   UNL     1     -19.914  41.834  -6.774  0.00  0.00    +0.000 N 
ATOM     10  C   UNL     1     -20.502  41.250  -7.895  0.00  0.00    +0.000 C 
ATOM     11  H   UNL     1     -18.913  41.970  -6.680  0.00  0.00    +0.000 HD
ENDBRANCH   2  10
TORSDOF 1
ENDMDL
