MODEL 1
REMARK VINA RESULT:    -7.282      0.000      0.000
REMARK INTER + INTRA:         -10.145
REMARK INTER:                  -9.836
REMARK INTRA:                  -0.309
REMARK UNBOUND:                -0.309
REMARK  Name = 142987271
REMARK  7 active torsions:
REMARK  status: ('A' for Active; 'I' for Inactive)
REMARK    1  A    between atoms: N_2  and  C_7
REMARK    2  A    between atoms: N_3  and  C_8
REMARK    3  A    between atoms: N_3  and  C_16
REMARK    4  A    between atoms: C_6  and  C_7
REMARK    5  A    between atoms: C_6  and  C_8
REMARK    6  A    between atoms: C_9  and  C_11
REMARK    7  A    between atoms: C_10  and  C_13
REMARK                            x       y       z     vdW  Elec       q    Type
REMARK                         _______ _______ _______ _____ _____    ______ ____
ROOT
ATOM      1  O   UNL     1     -19.320  39.193 -10.865  0.00  0.00    +0.000 OA
ATOM      2  N   UNL     1     -17.383  40.384 -10.406  0.00  0.00    +0.000 N 
ATOM      3  C   UNL     1     -18.706  40.017 -10.193  0.00  0.00    +0.000 C 
ATOM      4  H   UNL     1     -16.953  41.111  -9.845  0.00  0.00    +0.000 HD
ENDROOT
BRANCH   3   7
ATOM      5  N   UNL     1     -19.316  42.286  -7.248  0.00  0.00    +0.000 NA
ATOM      6  N   UNL     1     -21.275  42.692  -5.956  0.00  0.00    +0.000 N 
ATOM      7  C   UNL     1     -19.405  40.711  -9.080  0.00  0.00    +0.000 A 
ATOM      8  C   UNL     1     -20.747  40.465  -8.814  0.00  0.00    +0.000 A 
ATOM      9  C   UNL     1     -18.740  41.622  -8.275  0.00  0.00    +0.000 A 
ATOM     10  C   UNL     1     -21.375  41.130  -7.766  0.00  0.00    +0.000 A 
ATOM     11  C   UNL     1     -20.622  42.022  -7.020  0.00  0.00    +0.000 A 
ATOM     12  H   UNL     1     -22.273  42.850  -6.026  0.00  0.00    +0.000 HD
ATOM     13  H   UNL     1     -20.723  43.347  -5.416  0.00  0.00    +0.000 HD
ENDBRANCH   3   7
BRANCH   2  14
ATOM     14  C   UNL     1     -16.582  39.822 -11.459  0.00  0.00    +0.000 C 
BRANCH  14  15
ATOM     15  C   UNL     1     -17.163  40.104 -12.845  0.00  0.00    +0.000 C 
BRANCH  15  16
ATOM     16  C   UNL     1     -17.388  41.583 -13.112  0.00  0.00    +0.000 C 
ATOM     17  C   UNL     1     -18.634  42.021 -13.385  0.00  0.00    +0.000 C 
ATOM     18  C   UNL     1     -19.048  43.427 -13.682  0.00  0.00    +0.000 C 
BRANCH  16  19
ATOM     19  N   UNL     1     -16.264  42.362 -13.077  0.00  0.00    +0.000 N 
ATOM     20  H   UNL     1     -15.724  42.443 -13.931  0.00  0.00    +0.000 HD
BRANCH  19  21
ATOM     21  C   UNL     1     -15.936  43.210 -12.076  0.00  0.00    +0.000 C 
ATOM     22  C   UNL     1     -14.714  43.550 -11.657  0.00  0.00    +0.000 C 
ENDBRANCH  19  21
ENDBRANCH  16  19
ENDBRANCH  15  16
ENDBRANCH  14  15
ENDBRANCH   2  14
TORSDOF 6
ENDMDL
MODEL 2
REMARK VINA RESULT:    -6.166      1.641      2.482
REMARK INTER + INTRA:          -8.637
REMARK INTER:                  -8.651
REMARK INTRA:                   0.014
REMARK UNBOUND:                -0.309
REMARK  Name = 142987271
REMARK  7 active torsions:
REMARK  status: ('A' for Active; 'I' for Inactive)
REMARK    1  A    between atoms: N_2  and  C_7
REMARK    2  A    between atoms: N_3  and  C_8
REMARK    3  A    between atoms: N_3  and  C_16
REMARK    4  A    between atoms: C_6  and  C_7
REMARK    5  A    between atoms: C_6  and  C_8
REMARK    6  A    between atoms: C_9  and  C_11
REMARK    7  A    between atoms: C_10  and  C_13
REMARK                            x       y       z     vdW  Elec       q    Type
REMARK                         _______ _______ _______ _____ _____    ______ ____
ROOT
ATOM      1  O   UNL     1     -18.529  39.364 -10.605  0.00  0.00    +0.000 OA
ATOM      2  N   UNL     1     -18.785  41.481 -11.518  0.00  0.00    +0.000 N 
ATOM      3  C   UNL     1     -18.877  40.538 -10.502  0.00  0.00    +0.000 C 
ATOM      4  H   UNL     1     -19.140  42.421 -11.382  0.00  0.00    +0.000 HD
ENDROOT
BRANCH   3   7
ATOM      5  N   UNL     1     -19.241  42.321  -7.204  0.00  0.00    +0.000 NA
ATOM      6  N   UNL     1     -21.035  42.378  -5.638  0.00  0.00    +0.000 N 
ATOM      7  C   UNL     1     -19.467  41.010  -9.223  0.00  0.00    +0.000 A 
ATOM      8  C   UNL     1     -20.744  40.619  -8.836  0.00  0.00    +0.000 A 
ATOM      9  C   UNL     1     -18.763  41.855  -8.380  0.00  0.00    +0.000 A 
ATOM     10  C   UNL     1     -21.270  41.078  -7.633  0.00  0.00    +0.000 A 
ATOM     11  C   UNL     1     -20.486  41.919  -6.861  0.00  0.00    +0.000 A 
ATOM     12  H   UNL     1     -22.042  42.460  -5.563  0.00  0.00    +0.000 HD
ATOM     13  H   UNL     1     -20.461  42.998  -5.079  0.00  0.00    +0.000 HD
ENDBRANCH   3   7
BRANCH   2  14
ATOM     14  C   UNL     1     -18.261  41.171 -12.821  0.00  0.00    +0.000 C 
BRANCH  14  15
ATOM     15  C   UNL     1     -18.592  42.249 -13.852  0.00  0.00    +0.000 C 
BRANCH  15  16
ATOM     16  C   UNL     1     -18.397  43.662 -13.328  0.00  0.00    +0.000 C 
ATOM     17  C   UNL     1     -17.512  43.881 -12.334  0.00  0.00    +0.000 C 
ATOM     18  C   UNL     1     -17.194  45.189 -11.685  0.00  0.00    +0.000 C 
BRANCH  16  19
ATOM     19  N   UNL     1     -19.183  44.618 -13.914  0.00  0.00    +0.000 N 
ATOM     20  H   UNL     1     -19.992  44.940 -13.395  0.00  0.00    +0.000 HD
BRANCH  19  21
ATOM     21  C   UNL     1     -18.852  45.329 -15.014  0.00  0.00    +0.000 C 
ATOM     22  C   UNL     1     -18.255  46.523 -15.070  0.00  0.00    +0.000 C 
ENDBRANCH  19  21
ENDBRANCH  16  19
ENDBRANCH  15  16
ENDBRANCH  14  15
ENDBRANCH   2  14
TORSDOF 6
ENDMDL
MODEL 3
REMARK VINA RESULT:    -6.126      3.499      6.911
REMARK INTER + INTRA:          -8.583
REMARK INTER:                  -7.887
REMARK INTRA:                  -0.696
REMARK UNBOUND:                -0.309
REMARK  Name = 142987271
REMARK  7 active torsions:
REMARK  status: ('A' for Active; 'I' for Inactive)
REMARK    1  A    between atoms: N_2  and  C_7
REMARK    2  A    between atoms: N_3  and  C_8
REMARK    3  A    between atoms: N_3  and  C_16
REMARK    4  A    between atoms: C_6  and  C_7
REMARK    5  A    between atoms: C_6  and  C_8
REMARK    6  A    between atoms: C_9  and  C_11
REMARK    7  A    between atoms: C_10  and  C_13
REMARK                            x       y       z     vdW  Elec       q    Type
REMARK                         _______ _______ _______ _____ _____    ______ ____
ROOT
ATOM      1  O   UNL     1     -19.598  41.859 -14.115  0.00  0.00    +0.000 OA
ATOM      2  N   UNL     1     -18.076  43.607 -14.009  0.00  0.00    +0.000 N 
ATOM      3  C   UNL     1     -19.207  42.961 -14.492  0.00  0.00    +0.000 C 
ATOM      4  H   UNL     1     -17.781  44.493 -14.404  0.00  0.00    +0.000 HD
ENDROOT
BRANCH   3   7
ATOM      5  N   UNL     1     -20.086  45.511 -17.121  0.00  0.00    +0.000 NA
ATOM      6  N   UNL     1     -21.985  45.711 -18.546  0.00  0.00    +0.000 N 
ATOM      7  C   UNL     1     -19.959  43.670 -15.560  0.00  0.00    +0.000 A 
ATOM      8  C   UNL     1     -21.190  43.200 -16.003  0.00  0.00    +0.000 A 
ATOM      9  C   UNL     1     -19.454  44.820 -16.146  0.00  0.00    +0.000 A 
ATOM     10  C   UNL     1     -21.870  43.885 -17.005  0.00  0.00    +0.000 A 
ATOM     11  C   UNL     1     -21.280  45.024 -17.526  0.00  0.00    +0.000 A 
ATOM     12  H   UNL     1     -22.609  45.181 -19.140  0.00  0.00    +0.000 HD
ATOM     13  H   UNL     1     -21.548  46.541 -18.928  0.00  0.00    +0.000 HD
ENDBRANCH   3   7
BRANCH   2  14
ATOM     14  C   UNL     1     -17.231  43.037 -12.994  0.00  0.00    +0.000 C 
BRANCH  14  15
ATOM     15  C   UNL     1     -17.771  43.282 -11.585  0.00  0.00    +0.000 C 
BRANCH  15  16
ATOM     16  C   UNL     1     -18.148  42.004 -10.855  0.00  0.00    +0.000 C 
ATOM     17  C   UNL     1     -18.213  42.008  -9.509  0.00  0.00    +0.000 C 
ATOM     18  C   UNL     1     -18.553  40.854  -8.621  0.00  0.00    +0.000 C 
BRANCH  16  19
ATOM     19  N   UNL     1     -18.371  40.917 -11.656  0.00  0.00    +0.000 N 
ATOM     20  H   UNL     1     -19.084  41.001 -12.372  0.00  0.00    +0.000 HD
BRANCH  19  21
ATOM     21  C   UNL     1     -17.575  39.827 -11.728  0.00  0.00    +0.000 C 
ATOM     22  C   UNL     1     -16.244  39.776 -11.633  0.00  0.00    +0.000 C 
ENDBRANCH  19  21
ENDBRANCH  16  19
ENDBRANCH  15  16
ENDBRANCH  14  15
ENDBRANCH   2  14
TORSDOF 6
ENDMDL
MODEL 4
REMARK VINA RESULT:    -5.935      4.255      6.151
REMARK INTER + INTRA:          -8.327
REMARK INTER:                  -7.781
REMARK INTRA:                  -0.545
REMARK UNBOUND:                -0.309
REMARK  Name = 142987271
REMARK  7 active torsions:
REMARK  status: ('A' for Active; 'I' for Inactive)
REMARK    1  A    between atoms: N_2  and  C_7
REMARK    2  A    between atoms: N_3  and  C_8
REMARK    3  A    between atoms: N_3  and  C_16
REMARK    4  A    between atoms: C_6  and  C_7
REMARK    5  A    between atoms: C_6  and  C_8
REMARK    6  A    between atoms: C_9  and  C_11
REMARK    7  A    between atoms: C_10  and  C_13
REMARK                            x       y       z     vdW  Elec       q    Type
REMARK                         _______ _______ _______ _____ _____    ______ ____
ROOT
ATOM      1  O   UNL     1     -18.053  44.497 -13.957  0.00  0.00    +0.000 OA
ATOM      2  N   UNL     1     -19.421  42.831 -14.814  0.00  0.00    +0.000 N 
ATOM      3  C   UNL     1     -18.636  43.423 -13.833  0.00  0.00    +0.000 C 
ATOM      4  H   UNL     1     -19.831  41.916 -14.663  0.00  0.00    +0.000 HD
ENDROOT
BRANCH   3   7
ATOM      5  N   UNL     1     -19.060  40.718 -11.246  0.00  0.00    +0.000 NA
ATOM      6  N   UNL     1     -18.145  40.476  -9.060  0.00  0.00    +0.000 N 
ATOM      7  C   UNL     1     -18.491  42.663 -12.564  0.00  0.00    +0.000 A 
ATOM      8  C   UNL     1     -17.692  43.139 -11.531  0.00  0.00    +0.000 A 
ATOM      9  C   UNL     1     -19.149  41.459 -12.374  0.00  0.00    +0.000 A 
ATOM     10  C   UNL     1     -17.575  42.405 -10.355  0.00  0.00    +0.000 A 
ATOM     11  C   UNL     1     -18.273  41.212 -10.264  0.00  0.00    +0.000 A 
ATOM     12  H   UNL     1     -17.291  40.572  -8.525  0.00  0.00    +0.000 HD
ATOM     13  H   UNL     1     -18.653  39.602  -8.999  0.00  0.00    +0.000 HD
ENDBRANCH   3   7
BRANCH   2  14
ATOM     14  C   UNL     1     -19.635  43.430 -16.103  0.00  0.00    +0.000 C 
BRANCH  14  15
ATOM     15  C   UNL     1     -20.690  42.686 -16.922  0.00  0.00    +0.000 C 
BRANCH  15  16
ATOM     16  C   UNL     1     -21.692  43.610 -17.593  0.00  0.00    +0.000 C 
ATOM     17  C   UNL     1     -22.606  44.252 -16.839  0.00  0.00    +0.000 C 
ATOM     18  C   UNL     1     -23.671  45.186 -17.316  0.00  0.00    +0.000 C 
BRANCH  16  19
ATOM     19  N   UNL     1     -21.591  43.692 -18.956  0.00  0.00    +0.000 N 
ATOM     20  H   UNL     1     -22.308  43.235 -19.506  0.00  0.00    +0.000 HD
BRANCH  19  21
ATOM     21  C   UNL     1     -20.752  44.514 -19.626  0.00  0.00    +0.000 C 
ATOM     22  C   UNL     1     -20.831  45.842 -19.749  0.00  0.00    +0.000 C 
ENDBRANCH  19  21
ENDBRANCH  16  19
ENDBRANCH  15  16
ENDBRANCH  14  15
ENDBRANCH   2  14
TORSDOF 6
ENDMDL
MODEL 5
REMARK VINA RESULT:    -5.763      4.393      6.333
REMARK INTER + INTRA:          -8.093
REMARK INTER:                  -7.650
REMARK INTRA:                  -0.443
REMARK UNBOUND:                -0.309
REMARK  Name = 142987271
REMARK  7 active torsions:
REMARK  status: ('A' for Active; 'I' for Inactive)
REMARK    1  A    between atoms: N_2  and  C_7
REMARK    2  A    between atoms: N_3  and  C_8
REMARK    3  A    between atoms: N_3  and  C_16
REMARK    4  A    between atoms: C_6  and  C_7
REMARK    5  A    between atoms: C_6  and  C_8
REMARK    6  A    between atoms: C_9  and  C_11
REMARK    7  A    between atoms: C_10  and  C_13
REMARK                            x       y       z     vdW  Elec       q    Type
REMARK                         _______ _______ _______ _____ _____    ______ ____
ROOT
ATOM      1  O   UNL     1     -18.420  44.260 -14.096  0.00  0.00    +0.000 OA
ATOM      2  N   UNL     1     -19.655  42.472 -14.909  0.00  0.00    +0.000 N 
ATOM      3  C   UNL     1     -18.923  43.150 -13.941  0.00  0.00    +0.000 C 
ATOM      4  H   UNL     1     -19.998  41.535 -14.732  0.00  0.00    +0.000 HD
ENDROOT
BRANCH   3   7
ATOM      5  N   UNL     1     -17.635  42.325 -10.500  0.00  0.00    +0.000 NA
ATOM      6  N   UNL     1     -18.143  40.530  -9.019  0.00  0.00    +0.000 N 
ATOM      7  C   UNL     1     -18.734  42.441 -12.650  0.00  0.00    +0.000 A 
ATOM      8  C   UNL     1     -19.435  41.275 -12.363  0.00  0.00    +0.000 A 
ATOM      9  C   UNL     1     -17.853  42.921 -11.694  0.00  0.00    +0.000 A 
ATOM     10  C   UNL     1     -19.237  40.634 -11.144  0.00  0.00    +0.000 A 
ATOM     11  C   UNL     1     -18.334  41.195 -10.256  0.00  0.00    +0.000 A 
ATOM     12  H   UNL     1     -18.907  39.983  -8.643  0.00  0.00    +0.000 HD
ATOM     13  H   UNL     1     -17.486  40.945  -8.370  0.00  0.00    +0.000 HD
ENDBRANCH   3   7
BRANCH   2  14
ATOM     14  C   UNL     1     -19.902  43.015 -16.217  0.00  0.00    +0.000 C 
BRANCH  14  15
ATOM     15  C   UNL     1     -21.347  43.485 -16.387  0.00  0.00    +0.000 C 
BRANCH  15  16
ATOM     16  C   UNL     1     -21.618  44.118 -17.742  0.00  0.00    +0.000 C 
ATOM     17  C   UNL     1     -20.597  44.287 -18.606  0.00  0.00    +0.000 C 
ATOM     18  C   UNL     1     -20.666  44.896 -19.970  0.00  0.00    +0.000 C 
BRANCH  16  19
ATOM     19  N   UNL     1     -22.914  44.497 -17.962  0.00  0.00    +0.000 N 
ATOM     20  H   UNL     1     -23.511  43.850 -18.466  0.00  0.00    +0.000 HD
BRANCH  19  21
ATOM     21  C   UNL     1     -23.528  45.548 -17.375  0.00  0.00    +0.000 C 
ATOM     22  C   UNL     1     -24.829  45.851 -17.390  0.00  0.00    +0.000 C 
ENDBRANCH  19  21
ENDBRANCH  16  19
ENDBRANCH  15  16
ENDBRANCH  14  15
ENDBRANCH   2  14
TORSDOF 6
ENDMDL
