MODEL 1
REMARK VINA RESULT:    -6.836      0.000      0.000
REMARK INTER + INTRA:          -7.756
REMARK INTER:                  -7.636
REMARK INTRA:                  -0.120
REMARK UNBOUND:                -0.120
REMARK  Name = 143014719
REMARK  3 active torsions:
REMARK  status: ('A' for Active; 'I' for Inactive)
REMARK    1  A    between atoms: N_2  and  N_4
REMARK    2  A    between atoms: N_4  and  C_12
REMARK    3  A    between atoms: C_6  and  C_8
REMARK                            x       y       z     vdW  Elec       q    Type
REMARK                         _______ _______ _______ _____ _____    ______ ____
ROOT
ATOM      1  N   UNL     1     -22.306  41.371  -7.413  0.00  0.00    +0.000 NA
ATOM      2  N   UNL     1     -22.536  42.954  -5.648  0.00  0.00    +0.000 N 
ATOM      3  C   UNL     1     -20.128  40.983  -8.387  0.00  0.00    +0.000 A 
ATOM      4  C   UNL     1     -19.568  41.919  -7.525  0.00  0.00    +0.000 A 
ATOM      5  C   UNL     1     -21.490  40.748  -8.293  0.00  0.00    +0.000 A 
ATOM      6  C   UNL     1     -20.375  42.581  -6.605  0.00  0.00    +0.000 A 
ATOM      7  C   UNL     1     -21.725  42.273  -6.591  0.00  0.00    +0.000 A 
ATOM      8  H   UNL     1     -22.109  43.276  -4.788  0.00  0.00    +0.000 HD
ATOM      9  H   UNL     1     -23.521  42.722  -5.637  0.00  0.00    +0.000 HD
ENDROOT
BRANCH   3  12
ATOM     10  O   UNL     1     -18.067  40.295  -9.270  0.00  0.00    +0.000 OA
ATOM     11  N   UNL     1     -19.984  39.577 -10.363  0.00  0.00    +0.000 N 
ATOM     12  C   UNL     1     -19.310  40.277  -9.358  0.00  0.00    +0.000 C 
ATOM     13  H   UNL     1     -20.996  39.505 -10.400  0.00  0.00    +0.000 HD
BRANCH  11  14
ATOM     14  N   UNL     1     -19.267  38.866 -11.314  0.00  0.00    +0.000 NA
ATOM     15  C   UNL     1     -19.086  39.672 -12.513  0.00  0.00    +0.000 C 
ATOM     16  H   UNL     1     -19.819  38.040 -11.543  0.00  0.00    +0.000 HD
ENDBRANCH  11  14
ENDBRANCH   3  12
TORSDOF 2
ENDMDL
MODEL 2
REMARK VINA RESULT:    -6.474      1.949      2.380
REMARK INTER + INTRA:          -7.350
REMARK INTER:                  -7.328
REMARK INTRA:                  -0.023
REMARK UNBOUND:                -0.120
REMARK  Name = 143014719
REMARK  3 active torsions:
REMARK  status: ('A' for Active; 'I' for Inactive)
REMARK    1  A    between atoms: N_2  and  N_4
REMARK    2  A    between atoms: N_4  and  C_12
REMARK    3  A    between atoms: C_6  and  C_8
REMARK                            x       y       z     vdW  Elec       q    Type
REMARK                         _______ _______ _______ _____ _____    ______ ____
ROOT
ATOM      1  N   UNL     1     -19.006  42.240  -7.721  0.00  0.00    +0.000 NA
ATOM      2  N   UNL     1     -20.812  42.686  -6.234  0.00  0.00    +0.000 N 
ATOM      3  C   UNL     1     -19.252  40.530  -9.411  0.00  0.00    +0.000 A 
ATOM      4  C   UNL     1     -20.543  40.267  -8.968  0.00  0.00    +0.000 A 
ATOM      5  C   UNL     1     -18.531  41.517  -8.760  0.00  0.00    +0.000 A 
ATOM      6  C   UNL     1     -21.068  40.990  -7.901  0.00  0.00    +0.000 A 
ATOM      7  C   UNL     1     -20.265  41.957  -7.318  0.00  0.00    +0.000 A 
ATOM      8  H   UNL     1     -21.816  42.810  -6.193  0.00  0.00    +0.000 HD
ATOM      9  H   UNL     1     -20.224  43.395  -5.814  0.00  0.00    +0.000 HD
ENDROOT
BRANCH   3  12
ATOM     10  O   UNL     1     -19.361  38.958 -11.147  0.00  0.00    +0.000 OA
ATOM     11  N   UNL     1     -17.350  40.077 -10.853  0.00  0.00    +0.000 N 
ATOM     12  C   UNL     1     -18.678  39.791 -10.522  0.00  0.00    +0.000 C 
ATOM     13  H   UNL     1     -16.811  40.801 -10.390  0.00  0.00    +0.000 HD
BRANCH  11  14
ATOM     14  N   UNL     1     -16.743  39.421 -11.914  0.00  0.00    +0.000 NA
ATOM     15  C   UNL     1     -17.087  40.073 -13.170  0.00  0.00    +0.000 C 
ATOM     16  H   UNL     1     -17.106  38.468 -11.918  0.00  0.00    +0.000 HD
ENDBRANCH  11  14
ENDBRANCH   3  12
TORSDOF 2
ENDMDL
MODEL 3
REMARK VINA RESULT:    -5.165      3.651      4.887
REMARK INTER + INTRA:          -5.889
REMARK INTER:                  -5.755
REMARK INTRA:                  -0.134
REMARK UNBOUND:                -0.120
REMARK  Name = 143014719
REMARK  3 active torsions:
REMARK  status: ('A' for Active; 'I' for Inactive)
REMARK    1  A    between atoms: N_2  and  N_4
REMARK    2  A    between atoms: N_4  and  C_12
REMARK    3  A    between atoms: C_6  and  C_8
REMARK                            x       y       z     vdW  Elec       q    Type
REMARK                         _______ _______ _______ _____ _____    ______ ____
ROOT
ATOM      1  N   UNL     1     -17.862  42.143  -9.685  0.00  0.00    +0.000 NA
ATOM      2  N   UNL     1     -18.658  40.470  -8.189  0.00  0.00    +0.000 N 
ATOM      3  C   UNL     1     -18.587  42.119 -11.991  0.00  0.00    +0.000 A 
ATOM      4  C   UNL     1     -19.358  40.988 -11.745  0.00  0.00    +0.000 A 
ATOM      5  C   UNL     1     -17.864  42.653 -10.938  0.00  0.00    +0.000 A 
ATOM      6  C   UNL     1     -19.382  40.434 -10.469  0.00  0.00    +0.000 A 
ATOM      7  C   UNL     1     -18.623  41.044  -9.484  0.00  0.00    +0.000 A 
ATOM      8  H   UNL     1     -19.488  39.963  -7.908  0.00  0.00    +0.000 HD
ATOM      9  H   UNL     1     -18.106  40.922  -7.470  0.00  0.00    +0.000 HD
ENDROOT
BRANCH   3  12
ATOM     10  O   UNL     1     -17.744  43.643 -13.561  0.00  0.00    +0.000 OA
ATOM     11  N   UNL     1     -19.414  42.199 -14.274  0.00  0.00    +0.000 N 
ATOM     12  C   UNL     1     -18.542  42.719 -13.313  0.00  0.00    +0.000 C 
ATOM     13  H   UNL     1     -20.018  41.403 -14.096  0.00  0.00    +0.000 HD
BRANCH  11  14
ATOM     14  N   UNL     1     -19.412  42.712 -15.563  0.00  0.00    +0.000 NA
ATOM     15  C   UNL     1     -20.717  43.276 -15.880  0.00  0.00    +0.000 C 
ATOM     16  H   UNL     1     -19.220  41.932 -16.191  0.00  0.00    +0.000 HD
ENDBRANCH  11  14
ENDBRANCH   3  12
TORSDOF 2
ENDMDL
MODEL 4
REMARK VINA RESULT:    -5.114      3.803      4.677
REMARK INTER + INTRA:          -5.832
REMARK INTER:                  -5.722
REMARK INTRA:                  -0.110
REMARK UNBOUND:                -0.120
REMARK  Name = 143014719
REMARK  3 active torsions:
REMARK  status: ('A' for Active; 'I' for Inactive)
REMARK    1  A    between atoms: N_2  and  N_4
REMARK    2  A    between atoms: N_4  and  C_12
REMARK    3  A    between atoms: C_6  and  C_8
REMARK                            x       y       z     vdW  Elec       q    Type
REMARK                         _______ _______ _______ _____ _____    ______ ____
ROOT
ATOM      1  N   UNL     1     -19.523  40.470 -10.959  0.00  0.00    +0.000 NA
ATOM      2  N   UNL     1     -20.649  39.739  -8.992  0.00  0.00    +0.000 N 
ATOM      3  C   UNL     1     -17.832  42.189 -10.793  0.00  0.00    +0.000 A 
ATOM      4  C   UNL     1     -18.033  42.264  -9.419  0.00  0.00    +0.000 A 
ATOM      5  C   UNL     1     -18.596  41.284 -11.512  0.00  0.00    +0.000 A 
ATOM      6  C   UNL     1     -18.979  41.442  -8.814  0.00  0.00    +0.000 A 
ATOM      7  C   UNL     1     -19.690  40.571  -9.622  0.00  0.00    +0.000 A 
ATOM      8  H   UNL     1     -20.503  39.483  -8.023  0.00  0.00    +0.000 HD
ATOM      9  H   UNL     1     -21.163  39.099  -9.585  0.00  0.00    +0.000 HD
ENDROOT
BRANCH   3  12
ATOM     10  O   UNL     1     -17.044  44.262 -11.555  0.00  0.00    +0.000 OA
ATOM     11  N   UNL     1     -15.701  42.409 -11.938  0.00  0.00    +0.000 N 
ATOM     12  C   UNL     1     -16.853  43.035 -11.452  0.00  0.00    +0.000 C 
ATOM     13  H   UNL     1     -15.511  41.422 -11.798  0.00  0.00    +0.000 HD
BRANCH  11  14
ATOM     14  N   UNL     1     -14.716  43.158 -12.563  0.00  0.00    +0.000 NA
ATOM     15  C   UNL     1     -13.638  43.451 -11.628  0.00  0.00    +0.000 C 
ATOM     16  H   UNL     1     -15.152  44.031 -12.859  0.00  0.00    +0.000 HD
ENDBRANCH  11  14
ENDBRANCH   3  12
TORSDOF 2
ENDMDL
MODEL 5
REMARK VINA RESULT:    -4.995      3.998      6.039
REMARK INTER + INTRA:          -5.699
REMARK INTER:                  -5.591
REMARK INTRA:                  -0.108
REMARK UNBOUND:                -0.120
REMARK  Name = 143014719
REMARK  3 active torsions:
REMARK  status: ('A' for Active; 'I' for Inactive)
REMARK    1  A    between atoms: N_2  and  N_4
REMARK    2  A    between atoms: N_4  and  C_12
REMARK    3  A    between atoms: C_6  and  C_8
REMARK                            x       y       z     vdW  Elec       q    Type
REMARK                         _______ _______ _______ _____ _____    ______ ____
ROOT
ATOM      1  N   UNL     1     -17.116  43.889 -13.460  0.00  0.00    +0.000 NA
ATOM      2  N   UNL     1     -14.893  44.673 -13.114  0.00  0.00    +0.000 N 
ATOM      3  C   UNL     1     -17.943  42.041 -12.139  0.00  0.00    +0.000 A 
ATOM      4  C   UNL     1     -16.724  41.959 -11.476  0.00  0.00    +0.000 A 
ATOM      5  C   UNL     1     -18.087  43.014 -13.115  0.00  0.00    +0.000 A 
ATOM      6  C   UNL     1     -15.700  42.843 -11.803  0.00  0.00    +0.000 A 
ATOM      7  C   UNL     1     -15.945  43.780 -12.793  0.00  0.00    +0.000 A 
ATOM      8  H   UNL     1     -14.218  44.902 -12.396  0.00  0.00    +0.000 HD
ATOM      9  H   UNL     1     -15.079  45.361 -13.835  0.00  0.00    +0.000 HD
ENDROOT
BRANCH   3  12
ATOM     10  O   UNL     1     -19.786  40.710 -12.717  0.00  0.00    +0.000 OA
ATOM     11  N   UNL     1     -19.165  40.752 -10.481  0.00  0.00    +0.000 N 
ATOM     12  C   UNL     1     -19.030  41.132 -11.820  0.00  0.00    +0.000 C 
ATOM     13  H   UNL     1     -18.512  41.040  -9.760  0.00  0.00    +0.000 HD
BRANCH  11  14
ATOM     14  N   UNL     1     -20.171  39.873 -10.108  0.00  0.00    +0.000 NA
ATOM     15  C   UNL     1     -20.609  40.160  -8.748  0.00  0.00    +0.000 C 
ATOM     16  H   UNL     1     -19.771  38.935 -10.142  0.00  0.00    +0.000 HD
ENDBRANCH  11  14
ENDBRANCH   3  12
TORSDOF 2
ENDMDL
