MODEL 1
REMARK VINA RESULT:    -4.691      0.000      0.000
REMARK INTER + INTRA:          -5.977
REMARK INTER:                  -5.788
REMARK INTRA:                  -0.189
REMARK UNBOUND:                -0.189
REMARK  Name = 143296980
REMARK  7 active torsions:
REMARK  status: ('A' for Active; 'I' for Inactive)
REMARK    1  A    between atoms: N_2  and  C_10
REMARK    2  A    between atoms: N_4  and  C_7
REMARK    3  A    between atoms: C_8  and  C_12
REMARK    4  A    between atoms: C_10  and  C_14
REMARK    5  A    between atoms: C_12  and  C_16
REMARK    6  A    between atoms: C_17  and  C_20
REMARK    7  A    between atoms: C_20  and  C_21
REMARK                            x       y       z     vdW  Elec       q    Type
REMARK                         _______ _______ _______ _____ _____    ______ ____
ROOT
ATOM      1  O   UNL     1     -33.803  42.000 -12.575  0.00  0.00    +0.000 OA
ATOM      2  N   UNL     1     -32.224  42.886 -16.299  0.00  0.00    +0.000 N 
ATOM      3  N   UNL     1     -32.297  43.473 -13.413  0.00  0.00    +0.000 N 
ATOM      4  N   UNL     1     -34.409  42.472 -17.169  0.00  0.00    +0.000 NA
ATOM      5  C   UNL     1     -31.505  43.915 -15.667  0.00  0.00    +0.000 C 
ATOM      6  C   UNL     1     -31.550  44.170 -14.335  0.00  0.00    +0.000 C 
ATOM      7  C   UNL     1     -33.604  42.652 -16.078  0.00  0.00    +0.000 A 
ATOM      8  C   UNL     1     -34.154  42.589 -14.798  0.00  0.00    +0.000 A 
ATOM      9  C   UNL     1     -33.387  42.645 -13.540  0.00  0.00    +0.000 C 
ATOM     10  C   UNL     1     -35.537  42.366 -14.662  0.00  0.00    +0.000 A 
ATOM     11  C   UNL     1     -36.345  42.208 -15.776  0.00  0.00    +0.000 A 
ATOM     12  C   UNL     1     -35.733  42.263 -17.004  0.00  0.00    +0.000 A 
ATOM     13  H   UNL     1     -32.009  43.611 -12.446  0.00  0.00    +0.000 HD
ENDROOT
BRANCH   5  14
ATOM     14  N   UNL     1     -30.625  44.703 -16.392  0.00  0.00    +0.000 NA
ATOM     15  N   UNL     1     -30.498  46.700 -17.759  0.00  0.00    +0.000 N 
ATOM     16  C   UNL     1     -31.109  45.746 -16.974  0.00  0.00    +0.000 C 
ATOM     17  H   UNL     1     -30.942  47.504 -18.181  0.00  0.00    +0.000 HD
ATOM     18  H   UNL     1     -29.501  46.621 -17.941  0.00  0.00    +0.000 HD
BRANCH  16  19
ATOM     19  C   UNL     1     -32.606  45.947 -16.765  0.00  0.00    +0.000 C 
ATOM     20  C   UNL     1     -32.885  47.344 -16.241  0.00  0.00    +0.000 C 
ENDBRANCH  16  19
ENDBRANCH   5  14
BRANCH   2  21
ATOM     21  C   UNL     1     -31.744  42.302 -17.559  0.00  0.00    +0.000 C 
ATOM     22  C   UNL     1     -30.817  41.136 -17.275  0.00  0.00    +0.000 C 
ENDBRANCH   2  21
BRANCH   6  23
ATOM     23  C   UNL     1     -30.680  45.218 -13.666  0.00  0.00    +0.000 C 
ATOM     24  C   UNL     1     -31.520  46.218 -12.910  0.00  0.00    +0.000 C 
ENDBRANCH   6  23
TORSDOF 4
ENDMDL
MODEL 2
REMARK VINA RESULT:    -4.656     13.914     16.028
REMARK INTER + INTRA:          -5.934
REMARK INTER:                  -6.349
REMARK INTRA:                   0.415
REMARK UNBOUND:                -0.189
REMARK  Name = 143296980
REMARK  7 active torsions:
REMARK  status: ('A' for Active; 'I' for Inactive)
REMARK    1  A    between atoms: N_2  and  C_10
REMARK    2  A    between atoms: N_4  and  C_7
REMARK    3  A    between atoms: C_8  and  C_12
REMARK    4  A    between atoms: C_10  and  C_14
REMARK    5  A    between atoms: C_12  and  C_16
REMARK    6  A    between atoms: C_17  and  C_20
REMARK    7  A    between atoms: C_20  and  C_21
REMARK                            x       y       z     vdW  Elec       q    Type
REMARK                         _______ _______ _______ _____ _____    ______ ____
ROOT
ATOM      1  O   UNL     1     -20.370  42.112 -14.139  0.00  0.00    +0.000 OA
ATOM      2  N   UNL     1     -17.733  43.429 -11.231  0.00  0.00    +0.000 N 
ATOM      3  N   UNL     1     -19.257  44.032 -13.678  0.00  0.00    +0.000 N 
ATOM      4  N   UNL     1     -16.777  41.242 -11.305  0.00  0.00    +0.000 NA
ATOM      5  C   UNL     1     -17.676  44.642 -11.937  0.00  0.00    +0.000 C 
ATOM      6  C   UNL     1     -18.387  44.903 -13.063  0.00  0.00    +0.000 C 
ATOM      7  C   UNL     1     -17.629  42.160 -11.854  0.00  0.00    +0.000 A 
ATOM      8  C   UNL     1     -18.370  41.823 -12.985  0.00  0.00    +0.000 A 
ATOM      9  C   UNL     1     -19.408  42.668 -13.605  0.00  0.00    +0.000 C 
ATOM     10  C   UNL     1     -18.201  40.546 -13.554  0.00  0.00    +0.000 A 
ATOM     11  C   UNL     1     -17.318  39.633 -13.002  0.00  0.00    +0.000 A 
ATOM     12  C   UNL     1     -16.636  40.027 -11.877  0.00  0.00    +0.000 A 
ATOM     13  H   UNL     1     -19.900  44.472 -14.334  0.00  0.00    +0.000 HD
ENDROOT
BRANCH   5  14
ATOM     14  N   UNL     1     -16.916  45.697 -11.458  0.00  0.00    +0.000 NA
ATOM     15  N   UNL     1     -14.689  46.653 -11.506  0.00  0.00    +0.000 N 
ATOM     16  C   UNL     1     -15.680  45.748 -11.820  0.00  0.00    +0.000 C 
ATOM     17  H   UNL     1     -13.734  46.635 -11.835  0.00  0.00    +0.000 HD
ATOM     18  H   UNL     1     -14.913  47.433 -10.894  0.00  0.00    +0.000 HD
BRANCH  16  19
ATOM     19  C   UNL     1     -15.246  44.610 -12.738  0.00  0.00    +0.000 C 
ATOM     20  C   UNL     1     -14.163  43.779 -12.074  0.00  0.00    +0.000 C 
ENDBRANCH  16  19
ENDBRANCH   5  14
BRANCH   2  21
ATOM     21  C   UNL     1     -17.422  43.384  -9.795  0.00  0.00    +0.000 C 
ATOM     22  C   UNL     1     -18.317  42.376  -9.098  0.00  0.00    +0.000 C 
ENDBRANCH   2  21
BRANCH   6  23
ATOM     23  C   UNL     1     -18.387  46.260 -13.742  0.00  0.00    +0.000 C 
ATOM     24  C   UNL     1     -18.750  46.136 -15.202  0.00  0.00    +0.000 C 
ENDBRANCH   6  23
TORSDOF 4
ENDMDL
MODEL 3
REMARK VINA RESULT:    -4.583     12.305     14.344
REMARK INTER + INTRA:          -5.845
REMARK INTER:                  -6.591
REMARK INTRA:                   0.746
REMARK UNBOUND:                -0.189
REMARK  Name = 143296980
REMARK  7 active torsions:
REMARK  status: ('A' for Active; 'I' for Inactive)
REMARK    1  A    between atoms: N_2  and  C_10
REMARK    2  A    between atoms: N_4  and  C_7
REMARK    3  A    between atoms: C_8  and  C_12
REMARK    4  A    between atoms: C_10  and  C_14
REMARK    5  A    between atoms: C_12  and  C_16
REMARK    6  A    between atoms: C_17  and  C_20
REMARK    7  A    between atoms: C_20  and  C_21
REMARK                            x       y       z     vdW  Elec       q    Type
REMARK                         _______ _______ _______ _____ _____    ______ ____
ROOT
ATOM      1  O   UNL     1     -20.103  42.166 -17.270  0.00  0.00    +0.000 OA
ATOM      2  N   UNL     1     -18.858  45.668 -15.444  0.00  0.00    +0.000 N 
ATOM      3  N   UNL     1     -19.485  42.802 -15.184  0.00  0.00    +0.000 N 
ATOM      4  N   UNL     1     -20.437  46.792 -16.839  0.00  0.00    +0.000 NA
ATOM      5  C   UNL     1     -18.824  44.941 -14.242  0.00  0.00    +0.000 C 
ATOM      6  C   UNL     1     -19.115  43.620 -14.141  0.00  0.00    +0.000 C 
ATOM      7  C   UNL     1     -19.941  45.612 -16.356  0.00  0.00    +0.000 A 
ATOM      8  C   UNL     1     -20.497  44.406 -16.780  0.00  0.00    +0.000 A 
ATOM      9  C   UNL     1     -19.985  43.067 -16.436  0.00  0.00    +0.000 C 
ATOM     10  C   UNL     1     -21.580  44.435 -17.678  0.00  0.00    +0.000 A 
ATOM     11  C   UNL     1     -22.089  45.637 -18.141  0.00  0.00    +0.000 A 
ATOM     12  C   UNL     1     -21.479  46.785 -17.697  0.00  0.00    +0.000 A 
ATOM     13  H   UNL     1     -19.398  41.806 -14.990  0.00  0.00    +0.000 HD
ENDROOT
BRANCH   5  14
ATOM     14  N   UNL     1     -18.404  45.547 -13.068  0.00  0.00    +0.000 NA
ATOM     15  N   UNL     1     -16.456  45.921 -11.675  0.00  0.00    +0.000 N 
ATOM     16  C   UNL     1     -17.157  45.442 -12.762  0.00  0.00    +0.000 C 
ATOM     17  H   UNL     1     -15.467  45.805 -11.502  0.00  0.00    +0.000 HD
ATOM     18  H   UNL     1     -16.952  46.454 -10.967  0.00  0.00    +0.000 HD
BRANCH  16  19
ATOM     19  C   UNL     1     -16.327  44.648 -13.765  0.00  0.00    +0.000 C 
ATOM     20  C   UNL     1     -15.283  43.814 -13.045  0.00  0.00    +0.000 C 
ENDBRANCH  16  19
ENDBRANCH   5  14
BRANCH   2  21
ATOM     21  C   UNL     1     -18.033  46.872 -15.614  0.00  0.00    +0.000 C 
ATOM     22  C   UNL     1     -16.968  46.633 -16.667  0.00  0.00    +0.000 C 
ENDBRANCH   2  21
BRANCH   6  23
ATOM     23  C   UNL     1     -18.964  42.838 -12.849  0.00  0.00    +0.000 C 
ATOM     24  C   UNL     1     -18.277  41.516 -13.091  0.00  0.00    +0.000 C 
ENDBRANCH   6  23
TORSDOF 4
ENDMDL
MODEL 4
REMARK VINA RESULT:    -4.454     19.133     21.236
REMARK INTER + INTRA:          -5.685
REMARK INTER:                  -5.515
REMARK INTRA:                  -0.170
REMARK UNBOUND:                -0.189
REMARK  Name = 143296980
REMARK  7 active torsions:
REMARK  status: ('A' for Active; 'I' for Inactive)
REMARK    1  A    between atoms: N_2  and  C_10
REMARK    2  A    between atoms: N_4  and  C_7
REMARK    3  A    between atoms: C_8  and  C_12
REMARK    4  A    between atoms: C_10  and  C_14
REMARK    5  A    between atoms: C_12  and  C_16
REMARK    6  A    between atoms: C_17  and  C_20
REMARK    7  A    between atoms: C_20  and  C_21
REMARK                            x       y       z     vdW  Elec       q    Type
REMARK                         _______ _______ _______ _____ _____    ______ ____
ROOT
ATOM      1  O   UNL     1     -32.606  40.279   6.545  0.00  0.00    +0.000 OA
ATOM      2  N   UNL     1     -33.021  44.311   5.700  0.00  0.00    +0.000 N 
ATOM      3  N   UNL     1     -34.267  41.818   6.652  0.00  0.00    +0.000 N 
ATOM      4  N   UNL     1     -31.593  43.923   3.826  0.00  0.00    +0.000 NA
ATOM      5  C   UNL     1     -34.373  44.171   6.058  0.00  0.00    +0.000 C 
ATOM      6  C   UNL     1     -34.929  43.014   6.496  0.00  0.00    +0.000 C 
ATOM      7  C   UNL     1     -32.345  43.406   4.844  0.00  0.00    +0.000 A 
ATOM      8  C   UNL     1     -32.413  42.024   5.018  0.00  0.00    +0.000 A 
ATOM      9  C   UNL     1     -33.084  41.341   6.140  0.00  0.00    +0.000 C 
ATOM     10  C   UNL     1     -31.724  41.190   4.118  0.00  0.00    +0.000 A 
ATOM     11  C   UNL     1     -30.984  41.725   3.077  0.00  0.00    +0.000 A 
ATOM     12  C   UNL     1     -30.946  43.095   2.978  0.00  0.00    +0.000 A 
ATOM     13  H   UNL     1     -34.752  41.141   7.238  0.00  0.00    +0.000 HD
ENDROOT
BRANCH   5  14
ATOM     14  N   UNL     1     -35.218  45.270   6.049  0.00  0.00    +0.000 NA
ATOM     15  N   UNL     1     -36.635  46.606   4.607  0.00  0.00    +0.000 N 
ATOM     16  C   UNL     1     -35.771  45.581   4.928  0.00  0.00    +0.000 C 
ATOM     17  H   UNL     1     -37.039  46.787   3.698  0.00  0.00    +0.000 HD
ATOM     18  H   UNL     1     -36.921  47.253   5.336  0.00  0.00    +0.000 HD
BRANCH  16  19
ATOM     19  C   UNL     1     -35.395  44.668   3.766  0.00  0.00    +0.000 C 
ATOM     20  C   UNL     1     -36.631  44.290   2.968  0.00  0.00    +0.000 C 
ENDBRANCH  16  19
ENDBRANCH   5  14
BRANCH   2  21
ATOM     21  C   UNL     1     -32.358  45.620   5.780  0.00  0.00    +0.000 C 
ATOM     22  C   UNL     1     -31.530  45.710   7.048  0.00  0.00    +0.000 C 
ENDBRANCH   2  21
BRANCH   6  23
ATOM     23  C   UNL     1     -36.365  42.920   6.978  0.00  0.00    +0.000 C 
ATOM     24  C   UNL     1     -37.227  42.190   5.977  0.00  0.00    +0.000 C 
ENDBRANCH   6  23
TORSDOF 4
ENDMDL
MODEL 5
REMARK VINA RESULT:    -4.441      2.278      4.410
REMARK INTER + INTRA:          -5.669
REMARK INTER:                  -5.537
REMARK INTRA:                  -0.132
REMARK UNBOUND:                -0.189
REMARK  Name = 143296980
REMARK  7 active torsions:
REMARK  status: ('A' for Active; 'I' for Inactive)
REMARK    1  A    between atoms: N_2  and  C_10
REMARK    2  A    between atoms: N_4  and  C_7
REMARK    3  A    between atoms: C_8  and  C_12
REMARK    4  A    between atoms: C_10  and  C_14
REMARK    5  A    between atoms: C_12  and  C_16
REMARK    6  A    between atoms: C_17  and  C_20
REMARK    7  A    between atoms: C_20  and  C_21
REMARK                            x       y       z     vdW  Elec       q    Type
REMARK                         _______ _______ _______ _____ _____    ______ ____
ROOT
ATOM      1  O   UNL     1     -30.856  46.428 -12.409  0.00  0.00    +0.000 OA
ATOM      2  N   UNL     1     -33.553  43.477 -13.488  0.00  0.00    +0.000 N 
ATOM      3  N   UNL     1     -31.096  44.970 -14.128  0.00  0.00    +0.000 N 
ATOM      4  N   UNL     1     -35.255  44.912 -12.622  0.00  0.00    +0.000 NA
ATOM      5  C   UNL     1     -32.790  43.312 -14.657  0.00  0.00    +0.000 C 
ATOM      6  C   UNL     1     -31.659  44.008 -14.934  0.00  0.00    +0.000 C 
ATOM      7  C   UNL     1     -33.948  44.744 -12.990  0.00  0.00    +0.000 A 
ATOM      8  C   UNL     1     -33.053  45.804 -12.853  0.00  0.00    +0.000 A 
ATOM      9  C   UNL     1     -31.600  45.725 -13.096  0.00  0.00    +0.000 C 
ATOM     10  C   UNL     1     -33.525  47.036 -12.363  0.00  0.00    +0.000 A 
ATOM     11  C   UNL     1     -34.856  47.199 -12.016  0.00  0.00    +0.000 A 
ATOM     12  C   UNL     1     -35.677  46.108 -12.159  0.00  0.00    +0.000 A 
ATOM     13  H   UNL     1     -30.126  45.189 -14.348  0.00  0.00    +0.000 HD
ENDROOT
BRANCH   5  14
ATOM     14  N   UNL     1     -33.131  42.340 -15.584  0.00  0.00    +0.000 NA
ATOM     15  N   UNL     1     -34.499  41.933 -17.543  0.00  0.00    +0.000 N 
ATOM     16  C   UNL     1     -33.970  42.670 -16.505  0.00  0.00    +0.000 C 
ATOM     17  H   UNL     1     -35.154  42.262 -18.240  0.00  0.00    +0.000 HD
ATOM     18  H   UNL     1     -34.215  40.964 -17.652  0.00  0.00    +0.000 HD
BRANCH  16  19
ATOM     19  C   UNL     1     -34.463  44.111 -16.421  0.00  0.00    +0.000 C 
ATOM     20  C   UNL     1     -34.196  44.838 -17.726  0.00  0.00    +0.000 C 
ENDBRANCH  16  19
ENDBRANCH   5  14
BRANCH   2  21
ATOM     21  C   UNL     1     -34.387  42.381 -12.977  0.00  0.00    +0.000 C 
ATOM     22  C   UNL     1     -33.825  41.862 -11.668  0.00  0.00    +0.000 C 
ENDBRANCH   2  21
BRANCH   6  23
ATOM     23  C   UNL     1     -30.799  43.731 -16.153  0.00  0.00    +0.000 C 
ATOM     24  C   UNL     1     -30.506  45.003 -16.912  0.00  0.00    +0.000 C 
ENDBRANCH   6  23
TORSDOF 4
ENDMDL
