MODEL 1
REMARK VINA RESULT:    -6.839      0.000      0.000
REMARK INTER + INTRA:          -8.429
REMARK INTER:                  -8.238
REMARK INTRA:                  -0.191
REMARK UNBOUND:                -0.191
REMARK  Name = 143224774
REMARK  4 active torsions:
REMARK  status: ('A' for Active; 'I' for Inactive)
REMARK    1  A    between atoms: S_1  and  C_8
REMARK    2  A    between atoms: N_3  and  C_6
REMARK    3  A    between atoms: C_6  and  C_8
REMARK    4  A    between atoms: C_10  and  C_13
REMARK                            x       y       z     vdW  Elec       q    Type
REMARK                         _______ _______ _______ _____ _____    ______ ____
ROOT
ATOM      1  N   UNL     1     -17.653  40.988  -9.549  0.00  0.00    +0.000 N 
ATOM      2  N   UNL     1     -18.844  42.090  -7.804  0.00  0.00    +0.000 NA
ATOM      3  C   UNL     1     -18.854  41.210  -8.831  0.00  0.00    +0.000 A 
ATOM      4  C   UNL     1     -19.974  40.501  -9.233  0.00  0.00    +0.000 A 
ATOM      5  C   UNL     1     -21.189  41.604  -7.476  0.00  0.00    +0.000 A 
ATOM      6  C   UNL     1     -21.160  40.707  -8.538  0.00  0.00    +0.000 A 
ATOM      7  C   UNL     1     -20.015  42.264  -7.152  0.00  0.00    +0.000 A 
ATOM      8  H   UNL     1     -16.841  41.515  -9.248  0.00  0.00    +0.000 HD
ENDROOT
BRANCH   5  11
ATOM      9  O   UNL     1     -23.350  41.022  -6.739  0.00  0.00    +0.000 OA
ATOM     10  N   UNL     1     -22.500  43.013  -5.982  0.00  0.00    +0.000 N 
ATOM     11  C   UNL     1     -22.412  41.842  -6.730  0.00  0.00    +0.000 C 
ATOM     12  H   UNL     1     -21.784  43.725  -5.917  0.00  0.00    +0.000 HD
ATOM     13  H   UNL     1     -23.341  43.201  -5.445  0.00  0.00    +0.000 HD
ENDBRANCH   5  11
BRANCH   1  14
ATOM     14  C   UNL     1     -17.567  40.080 -10.646  0.00  0.00    +0.000 C 
BRANCH  14  15
ATOM     15  C   UNL     1     -17.098  40.783 -11.914  0.00  0.00    +0.000 C 
BRANCH  15  16
ATOM     16  S   UNL     1     -18.469  41.567 -12.817  0.00  0.00    +0.000 S 
ATOM     17  H   UNL     1     -18.053  42.831 -12.654  0.00  0.00    +0.000 HD
ENDBRANCH  15  16
ENDBRANCH  14  15
ENDBRANCH   1  14
TORSDOF 4
ENDMDL
MODEL 2
REMARK VINA RESULT:    -5.901      3.425      5.433
REMARK INTER + INTRA:          -7.299
REMARK INTER:                  -7.290
REMARK INTRA:                  -0.009
REMARK UNBOUND:                -0.191
REMARK  Name = 143224774
REMARK  4 active torsions:
REMARK  status: ('A' for Active; 'I' for Inactive)
REMARK    1  A    between atoms: S_1  and  C_8
REMARK    2  A    between atoms: N_3  and  C_6
REMARK    3  A    between atoms: C_6  and  C_8
REMARK    4  A    between atoms: C_10  and  C_13
REMARK                            x       y       z     vdW  Elec       q    Type
REMARK                         _______ _______ _______ _____ _____    ______ ____
ROOT
ATOM      1  N   UNL     1     -19.636  42.413  -7.086  0.00  0.00    +0.000 N 
ATOM      2  N   UNL     1     -18.222  42.344  -9.003  0.00  0.00    +0.000 NA
ATOM      3  C   UNL     1     -19.223  41.784  -8.287  0.00  0.00    +0.000 A 
ATOM      4  C   UNL     1     -19.882  40.622  -8.653  0.00  0.00    +0.000 A 
ATOM      5  C   UNL     1     -18.463  40.539 -10.593  0.00  0.00    +0.000 A 
ATOM      6  C   UNL     1     -19.490  39.993  -9.829  0.00  0.00    +0.000 A 
ATOM      7  C   UNL     1     -17.867  41.704 -10.140  0.00  0.00    +0.000 A 
ATOM      8  H   UNL     1     -19.145  43.261  -6.827  0.00  0.00    +0.000 HD
ENDROOT
BRANCH   5  11
ATOM      9  O   UNL     1     -16.844  39.563 -11.998  0.00  0.00    +0.000 OA
ATOM     10  N   UNL     1     -18.986  39.674 -12.809  0.00  0.00    +0.000 N 
ATOM     11  C   UNL     1     -18.029  39.906 -11.825  0.00  0.00    +0.000 C 
ATOM     12  H   UNL     1     -19.966  39.917 -12.745  0.00  0.00    +0.000 HD
ATOM     13  H   UNL     1     -18.712  39.226 -13.678  0.00  0.00    +0.000 HD
ENDBRANCH   5  11
BRANCH   1  14
ATOM     14  C   UNL     1     -20.683  41.897  -6.266  0.00  0.00    +0.000 C 
BRANCH  14  15
ATOM     15  C   UNL     1     -22.040  42.451  -6.683  0.00  0.00    +0.000 C 
BRANCH  15  16
ATOM     16  S   UNL     1     -23.183  41.143  -7.223  0.00  0.00    +0.000 S 
ATOM     17  H   UNL     1     -24.194  41.479  -6.408  0.00  0.00    +0.000 HD
ENDBRANCH  15  16
ENDBRANCH  14  15
ENDBRANCH   1  14
TORSDOF 4
ENDMDL
MODEL 3
REMARK VINA RESULT:    -5.106      4.328      5.952
REMARK INTER + INTRA:          -6.341
REMARK INTER:                  -6.148
REMARK INTRA:                  -0.194
REMARK UNBOUND:                -0.191
REMARK  Name = 143224774
REMARK  4 active torsions:
REMARK  status: ('A' for Active; 'I' for Inactive)
REMARK    1  A    between atoms: S_1  and  C_8
REMARK    2  A    between atoms: N_3  and  C_6
REMARK    3  A    between atoms: C_6  and  C_8
REMARK    4  A    between atoms: C_10  and  C_13
REMARK                            x       y       z     vdW  Elec       q    Type
REMARK                         _______ _______ _______ _____ _____    ______ ____
ROOT
ATOM      1  N   UNL     1     -17.684  41.831  -9.909  0.00  0.00    +0.000 N 
ATOM      2  N   UNL     1     -17.713  43.426 -11.680  0.00  0.00    +0.000 NA
ATOM      3  C   UNL     1     -18.142  42.243 -11.186  0.00  0.00    +0.000 A 
ATOM      4  C   UNL     1     -19.011  41.394 -11.851  0.00  0.00    +0.000 A 
ATOM      5  C   UNL     1     -19.051  42.994 -13.647  0.00  0.00    +0.000 A 
ATOM      6  C   UNL     1     -19.470  41.784 -13.105  0.00  0.00    +0.000 A 
ATOM      7  C   UNL     1     -18.179  43.771 -12.901  0.00  0.00    +0.000 A 
ATOM      8  H   UNL     1     -17.046  42.459  -9.433  0.00  0.00    +0.000 HD
ENDROOT
BRANCH   5  11
ATOM      9  O   UNL     1     -20.026  42.632 -15.760  0.00  0.00    +0.000 OA
ATOM     10  N   UNL     1     -19.377  44.777 -15.273  0.00  0.00    +0.000 N 
ATOM     11  C   UNL     1     -19.511  43.429 -14.953  0.00  0.00    +0.000 C 
ATOM     12  H   UNL     1     -18.977  45.488 -14.675  0.00  0.00    +0.000 HD
ATOM     13  H   UNL     1     -19.698  45.110 -16.178  0.00  0.00    +0.000 HD
ENDBRANCH   5  11
BRANCH   1  14
ATOM     14  C   UNL     1     -18.083  40.601  -9.307  0.00  0.00    +0.000 C 
BRANCH  14  15
ATOM     15  C   UNL     1     -18.996  40.838  -8.111  0.00  0.00    +0.000 C 
BRANCH  15  16
ATOM     16  S   UNL     1     -20.753  40.613  -8.528  0.00  0.00    +0.000 S 
ATOM     17  H   UNL     1     -20.654  39.331  -8.909  0.00  0.00    +0.000 HD
ENDBRANCH  15  16
ENDBRANCH  14  15
ENDBRANCH   1  14
TORSDOF 4
ENDMDL
MODEL 4
REMARK VINA RESULT:    -4.877      4.866      6.343
REMARK INTER + INTRA:          -6.066
REMARK INTER:                  -5.915
REMARK INTRA:                  -0.151
REMARK UNBOUND:                -0.191
REMARK  Name = 143224774
REMARK  4 active torsions:
REMARK  status: ('A' for Active; 'I' for Inactive)
REMARK    1  A    between atoms: S_1  and  C_8
REMARK    2  A    between atoms: N_3  and  C_6
REMARK    3  A    between atoms: C_6  and  C_8
REMARK    4  A    between atoms: C_10  and  C_13
REMARK                            x       y       z     vdW  Elec       q    Type
REMARK                         _______ _______ _______ _____ _____    ______ ____
ROOT
ATOM      1  N   UNL     1     -19.927  43.321 -14.794  0.00  0.00    +0.000 N 
ATOM      2  N   UNL     1     -19.716  41.585 -13.176  0.00  0.00    +0.000 NA
ATOM      3  C   UNL     1     -19.158  42.633 -13.823  0.00  0.00    +0.000 A 
ATOM      4  C   UNL     1     -17.868  43.086 -13.598  0.00  0.00    +0.000 A 
ATOM      5  C   UNL     1     -17.640  41.339 -11.961  0.00  0.00    +0.000 A 
ATOM      6  C   UNL     1     -17.101  42.422 -12.648  0.00  0.00    +0.000 A 
ATOM      7  C   UNL     1     -18.939  40.964 -12.260  0.00  0.00    +0.000 A 
ATOM      8  H   UNL     1     -20.868  42.979 -14.953  0.00  0.00    +0.000 HD
ENDROOT
BRANCH   5  11
ATOM      9  O   UNL     1     -17.388  40.193  -9.919  0.00  0.00    +0.000 OA
ATOM     10  N   UNL     1     -15.512  40.415 -11.219  0.00  0.00    +0.000 N 
ATOM     11  C   UNL     1     -16.864  40.624 -10.963  0.00  0.00    +0.000 C 
ATOM     12  H   UNL     1     -15.013  40.727 -12.042  0.00  0.00    +0.000 HD
ATOM     13  H   UNL     1     -14.948  39.911 -10.541  0.00  0.00    +0.000 HD
ENDBRANCH   5  11
BRANCH   1  14
ATOM     14  C   UNL     1     -19.424  44.437 -15.526  0.00  0.00    +0.000 C 
BRANCH  14  15
ATOM     15  C   UNL     1     -19.795  44.348 -17.002  0.00  0.00    +0.000 C 
BRANCH  15  16
ATOM     16  S   UNL     1     -20.848  42.908 -17.363  0.00  0.00    +0.000 S 
ATOM     17  H   UNL     1     -21.967  43.397 -16.806  0.00  0.00    +0.000 HD
ENDBRANCH  15  16
ENDBRANCH  14  15
ENDBRANCH   1  14
TORSDOF 4
ENDMDL
MODEL 5
REMARK VINA RESULT:    -4.632      4.324      6.380
REMARK INTER + INTRA:          -5.771
REMARK INTER:                  -5.625
REMARK INTRA:                  -0.145
REMARK UNBOUND:                -0.191
REMARK  Name = 143224774
REMARK  4 active torsions:
REMARK  status: ('A' for Active; 'I' for Inactive)
REMARK    1  A    between atoms: S_1  and  C_8
REMARK    2  A    between atoms: N_3  and  C_6
REMARK    3  A    between atoms: C_6  and  C_8
REMARK    4  A    between atoms: C_10  and  C_13
REMARK                            x       y       z     vdW  Elec       q    Type
REMARK                         _______ _______ _______ _____ _____    ______ ____
ROOT
ATOM      1  N   UNL     1     -19.002  40.498 -10.495  0.00  0.00    +0.000 N 
ATOM      2  N   UNL     1     -18.750  41.529 -12.628  0.00  0.00    +0.000 NA
ATOM      3  C   UNL     1     -18.495  41.548 -11.300  0.00  0.00    +0.000 A 
ATOM      4  C   UNL     1     -17.762  42.537 -10.665  0.00  0.00    +0.000 A 
ATOM      5  C   UNL     1     -17.498  43.589 -12.812  0.00  0.00    +0.000 A 
ATOM      6  C   UNL     1     -17.257  43.573 -11.442  0.00  0.00    +0.000 A 
ATOM      7  C   UNL     1     -18.244  42.554 -13.351  0.00  0.00    +0.000 A 
ATOM      8  H   UNL     1     -19.540  39.782 -10.970  0.00  0.00    +0.000 HD
ENDROOT
BRANCH   5  11
ATOM      9  O   UNL     1     -17.736  45.533 -14.120  0.00  0.00    +0.000 OA
ATOM     10  N   UNL     1     -15.616  44.689 -13.899  0.00  0.00    +0.000 N 
ATOM     11  C   UNL     1     -16.985  44.659 -13.650  0.00  0.00    +0.000 C 
ATOM     12  H   UNL     1     -14.939  44.021 -13.552  0.00  0.00    +0.000 HD
ATOM     13  H   UNL     1     -15.230  45.429 -14.476  0.00  0.00    +0.000 HD
ENDBRANCH   5  11
BRANCH   1  14
ATOM     14  C   UNL     1     -18.784  40.433  -9.087  0.00  0.00    +0.000 C 
BRANCH  14  15
ATOM     15  C   UNL     1     -20.095  40.528  -8.316  0.00  0.00    +0.000 C 
BRANCH  15  16
ATOM     16  S   UNL     1     -20.104  41.914  -7.137  0.00  0.00    +0.000 S 
ATOM     17  H   UNL     1     -19.389  41.302  -6.181  0.00  0.00    +0.000 HD
ENDBRANCH  15  16
ENDBRANCH  14  15
ENDBRANCH   1  14
TORSDOF 4
ENDMDL
