MODEL 1
REMARK VINA RESULT:    -5.927      0.000      0.000
REMARK INTER + INTRA:          -7.617
REMARK INTER:                  -6.967
REMARK INTRA:                  -0.650
REMARK UNBOUND:                -0.650
REMARK  Name = 144081107
REMARK  4 active torsions:
REMARK  status: ('A' for Active; 'I' for Inactive)
REMARK    1  A    between atoms: N_4  and  C_15
REMARK    2  A    between atoms: C_7  and  C_9
REMARK    3  A    between atoms: C_8  and  C_12
REMARK    4  A    between atoms: C_9  and  C_14
REMARK                            x       y       z     vdW  Elec       q    Type
REMARK                         _______ _______ _______ _____ _____    ______ ____
ROOT
ATOM      1  N   UNL     1     -19.575  41.930 -13.936  0.00  0.00    +0.000 NA
ATOM      2  N   UNL     1     -20.068  40.114 -12.496  0.00  0.00    +0.000 N 
ATOM      3  C   UNL     1     -17.685  42.879 -12.109  0.00  0.00    +0.000 A 
ATOM      4  C   UNL     1     -18.404  41.722 -11.832  0.00  0.00    +0.000 A 
ATOM      5  C   UNL     1     -19.329  41.293 -12.769  0.00  0.00    +0.000 A 
ATOM      6  C   UNL     1     -17.909  43.562 -13.299  0.00  0.00    +0.000 A 
ATOM      7  C   UNL     1     -18.857  43.051 -14.171  0.00  0.00    +0.000 A 
ATOM      8  H   UNL     1     -19.633  39.386 -11.943  0.00  0.00    +0.000 HD
ATOM      9  H   UNL     1     -20.740  39.830 -13.199  0.00  0.00    +0.000 HD
ENDROOT
BRANCH   4  12
ATOM     10  O   UNL     1     -17.339  40.087 -10.531  0.00  0.00    +0.000 OA
ATOM     11  N   UNL     1     -18.946  41.389  -9.482  0.00  0.00    +0.000 N 
ATOM     12  C   UNL     1     -18.184  40.995 -10.585  0.00  0.00    +0.000 C 
ATOM     13  C   UNL     1     -18.825  40.783  -8.175  0.00  0.00    +0.000 C 
ATOM     14  H   UNL     1     -19.635  42.127  -9.599  0.00  0.00    +0.000 HD
ENDBRANCH   4  12
BRANCH   3  15
ATOM     15  C   UNL     1     -16.670  43.411 -11.152  0.00  0.00    +0.000 C 
BRANCH  15  18
ATOM     16  O   UNL     1     -14.526  43.933 -12.162  0.00  0.00    +0.000 OA
ATOM     17  N   UNL     1     -14.811  41.872 -11.188  0.00  0.00    +0.000 N 
ATOM     18  C   UNL     1     -15.234  43.130 -11.564  0.00  0.00    +0.000 C 
ATOM     19  H   UNL     1     -15.412  41.217 -10.699  0.00  0.00    +0.000 HD
ATOM     20  H   UNL     1     -13.871  41.554 -11.399  0.00  0.00    +0.000 HD
ENDBRANCH  15  18
ENDBRANCH   3  15
TORSDOF 3
ENDMDL
MODEL 2
REMARK VINA RESULT:    -5.642      2.190      4.106
REMARK INTER + INTRA:          -7.282
REMARK INTER:                  -6.647
REMARK INTRA:                  -0.635
REMARK UNBOUND:                -0.650
REMARK  Name = 144081107
REMARK  4 active torsions:
REMARK  status: ('A' for Active; 'I' for Inactive)
REMARK    1  A    between atoms: N_4  and  C_15
REMARK    2  A    between atoms: C_7  and  C_9
REMARK    3  A    between atoms: C_8  and  C_12
REMARK    4  A    between atoms: C_9  and  C_14
REMARK                            x       y       z     vdW  Elec       q    Type
REMARK                         _______ _______ _______ _____ _____    ______ ____
ROOT
ATOM      1  N   UNL     1     -19.051  39.309 -10.439  0.00  0.00    +0.000 NA
ATOM      2  N   UNL     1     -17.685  40.582  -8.981  0.00  0.00    +0.000 N 
ATOM      3  C   UNL     1     -18.477  41.073 -12.531  0.00  0.00    +0.000 A 
ATOM      4  C   UNL     1     -17.926  41.281 -11.271  0.00  0.00    +0.000 A 
ATOM      5  C   UNL     1     -18.242  40.379 -10.268  0.00  0.00    +0.000 A 
ATOM      6  C   UNL     1     -19.314  39.984 -12.746  0.00  0.00    +0.000 A 
ATOM      7  C   UNL     1     -19.568  39.140 -11.677  0.00  0.00    +0.000 A 
ATOM      8  H   UNL     1     -16.775  41.018  -8.909  0.00  0.00    +0.000 HD
ATOM      9  H   UNL     1     -17.939  39.907  -8.268  0.00  0.00    +0.000 HD
ENDROOT
BRANCH   4  12
ATOM     10  O   UNL     1     -17.512  43.482 -10.576  0.00  0.00    +0.000 OA
ATOM     11  N   UNL     1     -15.691  42.243 -11.302  0.00  0.00    +0.000 N 
ATOM     12  C   UNL     1     -17.049  42.421 -11.027  0.00  0.00    +0.000 C 
ATOM     13  C   UNL     1     -14.695  43.269 -11.089  0.00  0.00    +0.000 C 
ATOM     14  H   UNL     1     -15.380  41.356 -11.687  0.00  0.00    +0.000 HD
ENDBRANCH   4  12
BRANCH   3  15
ATOM     15  C   UNL     1     -18.190  41.998 -13.667  0.00  0.00    +0.000 C 
BRANCH  15  18
ATOM     16  O   UNL     1     -20.249  42.676 -14.757  0.00  0.00    +0.000 OA
ATOM     17  N   UNL     1     -19.231  44.146 -13.314  0.00  0.00    +0.000 N 
ATOM     18  C   UNL     1     -19.333  42.947 -13.987  0.00  0.00    +0.000 C 
ATOM     19  H   UNL     1     -18.463  44.356 -12.685  0.00  0.00    +0.000 HD
ATOM     20  H   UNL     1     -19.931  44.871 -13.434  0.00  0.00    +0.000 HD
ENDBRANCH  15  18
ENDBRANCH   3  15
TORSDOF 3
ENDMDL
MODEL 3
REMARK VINA RESULT:    -5.622      1.448      3.382
REMARK INTER + INTRA:          -7.258
REMARK INTER:                  -7.004
REMARK INTRA:                  -0.253
REMARK UNBOUND:                -0.650
REMARK  Name = 144081107
REMARK  4 active torsions:
REMARK  status: ('A' for Active; 'I' for Inactive)
REMARK    1  A    between atoms: N_4  and  C_15
REMARK    2  A    between atoms: C_7  and  C_9
REMARK    3  A    between atoms: C_8  and  C_12
REMARK    4  A    between atoms: C_9  and  C_14
REMARK                            x       y       z     vdW  Elec       q    Type
REMARK                         _______ _______ _______ _____ _____    ______ ____
ROOT
ATOM      1  N   UNL     1     -19.350  39.717 -10.084  0.00  0.00    +0.000 NA
ATOM      2  N   UNL     1     -19.828  39.345 -12.375  0.00  0.00    +0.000 N 
ATOM      3  C   UNL     1     -18.143  42.156 -10.723  0.00  0.00    +0.000 A 
ATOM      4  C   UNL     1     -18.685  41.362 -11.727  0.00  0.00    +0.000 A 
ATOM      5  C   UNL     1     -19.272  40.162 -11.359  0.00  0.00    +0.000 A 
ATOM      6  C   UNL     1     -18.204  41.733  -9.400  0.00  0.00    +0.000 A 
ATOM      7  C   UNL     1     -18.812  40.516  -9.136  0.00  0.00    +0.000 A 
ATOM      8  H   UNL     1     -20.215  39.789 -13.198  0.00  0.00    +0.000 HD
ATOM      9  H   UNL     1     -20.245  38.472 -12.074  0.00  0.00    +0.000 HD
ENDROOT
BRANCH   4  12
ATOM     10  O   UNL     1     -17.754  41.334 -13.879  0.00  0.00    +0.000 OA
ATOM     11  N   UNL     1     -19.599  42.698 -13.544  0.00  0.00    +0.000 N 
ATOM     12  C   UNL     1     -18.626  41.789 -13.121  0.00  0.00    +0.000 C 
ATOM     13  C   UNL     1     -19.687  43.196 -14.899  0.00  0.00    +0.000 C 
ATOM     14  H   UNL     1     -20.273  43.046 -12.868  0.00  0.00    +0.000 HD
ENDBRANCH   4  12
BRANCH   3  15
ATOM     15  C   UNL     1     -17.492  43.463 -11.033  0.00  0.00    +0.000 C 
BRANCH  15  18
ATOM     16  O   UNL     1     -15.742  43.860 -12.667  0.00  0.00    +0.000 OA
ATOM     17  N   UNL     1     -15.270  42.540 -10.847  0.00  0.00    +0.000 N 
ATOM     18  C   UNL     1     -16.097  43.327 -11.621  0.00  0.00    +0.000 C 
ATOM     19  H   UNL     1     -15.582  42.101  -9.987  0.00  0.00    +0.000 HD
ATOM     20  H   UNL     1     -14.309  42.367 -11.123  0.00  0.00    +0.000 HD
ENDBRANCH  15  18
ENDBRANCH   3  15
TORSDOF 3
ENDMDL
MODEL 4
REMARK VINA RESULT:    -5.436      2.206      4.935
REMARK INTER + INTRA:          -7.039
REMARK INTER:                  -6.355
REMARK INTRA:                  -0.684
REMARK UNBOUND:                -0.650
REMARK  Name = 144081107
REMARK  4 active torsions:
REMARK  status: ('A' for Active; 'I' for Inactive)
REMARK    1  A    between atoms: N_4  and  C_15
REMARK    2  A    between atoms: C_7  and  C_9
REMARK    3  A    between atoms: C_8  and  C_12
REMARK    4  A    between atoms: C_9  and  C_14
REMARK                            x       y       z     vdW  Elec       q    Type
REMARK                         _______ _______ _______ _____ _____    ______ ____
ROOT
ATOM      1  N   UNL     1     -14.965  43.538 -12.405  0.00  0.00    +0.000 NA
ATOM      2  N   UNL     1     -15.806  44.879 -14.168  0.00  0.00    +0.000 N 
ATOM      3  C   UNL     1     -17.505  42.435 -12.020  0.00  0.00    +0.000 A 
ATOM      4  C   UNL     1     -17.301  43.390 -13.010  0.00  0.00    +0.000 A 
ATOM      5  C   UNL     1     -16.024  43.905 -13.161  0.00  0.00    +0.000 A 
ATOM      6  C   UNL     1     -16.440  42.031 -11.223  0.00  0.00    +0.000 A 
ATOM      7  C   UNL     1     -15.202  42.607 -11.453  0.00  0.00    +0.000 A 
ATOM      8  H   UNL     1     -16.367  44.841 -15.010  0.00  0.00    +0.000 HD
ATOM      9  H   UNL     1     -14.863  45.240 -14.250  0.00  0.00    +0.000 HD
ENDROOT
BRANCH   4  12
ATOM     10  O   UNL     1     -18.933  44.939 -13.671  0.00  0.00    +0.000 OA
ATOM     11  N   UNL     1     -18.816  42.956 -14.866  0.00  0.00    +0.000 N 
ATOM     12  C   UNL     1     -18.408  43.828 -13.853  0.00  0.00    +0.000 C 
ATOM     13  C   UNL     1     -19.880  43.258 -15.796  0.00  0.00    +0.000 C 
ATOM     14  H   UNL     1     -18.357  42.053 -14.949  0.00  0.00    +0.000 HD
ENDBRANCH   4  12
BRANCH   3  15
ATOM     15  C   UNL     1     -18.850  41.829 -11.790  0.00  0.00    +0.000 C 
BRANCH  15  18
ATOM     16  O   UNL     1     -18.669  40.081 -13.463  0.00  0.00    +0.000 OA
ATOM     17  N   UNL     1     -19.490  39.538 -11.387  0.00  0.00    +0.000 N 
ATOM     18  C   UNL     1     -18.982  40.413 -12.324  0.00  0.00    +0.000 C 
ATOM     19  H   UNL     1     -19.750  39.830 -10.451  0.00  0.00    +0.000 HD
ATOM     20  H   UNL     1     -19.628  38.558 -11.611  0.00  0.00    +0.000 HD
ENDBRANCH  15  18
ENDBRANCH   3  15
TORSDOF 3
ENDMDL
MODEL 5
REMARK VINA RESULT:    -5.300      1.806      2.390
REMARK INTER + INTRA:          -6.879
REMARK INTER:                  -6.324
REMARK INTRA:                  -0.555
REMARK UNBOUND:                -0.650
REMARK  Name = 144081107
REMARK  4 active torsions:
REMARK  status: ('A' for Active; 'I' for Inactive)
REMARK    1  A    between atoms: N_4  and  C_15
REMARK    2  A    between atoms: C_7  and  C_9
REMARK    3  A    between atoms: C_8  and  C_12
REMARK    4  A    between atoms: C_9  and  C_14
REMARK                            x       y       z     vdW  Elec       q    Type
REMARK                         _______ _______ _______ _____ _____    ______ ____
ROOT
ATOM      1  N   UNL     1     -18.838  44.796 -14.235  0.00  0.00    +0.000 NA
ATOM      2  N   UNL     1     -19.398  42.666 -15.108  0.00  0.00    +0.000 N 
ATOM      3  C   UNL     1     -17.534  43.582 -12.081  0.00  0.00    +0.000 A 
ATOM      4  C   UNL     1     -18.142  42.802 -13.059  0.00  0.00    +0.000 A 
ATOM      5  C   UNL     1     -18.775  43.452 -14.106  0.00  0.00    +0.000 A 
ATOM      6  C   UNL     1     -17.577  44.968 -12.180  0.00  0.00    +0.000 A 
ATOM      7  C   UNL     1     -18.236  45.521 -13.265  0.00  0.00    +0.000 A 
ATOM      8  H   UNL     1     -19.006  41.758 -15.326  0.00  0.00    +0.000 HD
ATOM      9  H   UNL     1     -19.857  43.171 -15.857  0.00  0.00    +0.000 HD
ENDROOT
BRANCH   4  12
ATOM     10  O   UNL     1     -17.184  40.706 -13.495  0.00  0.00    +0.000 OA
ATOM     11  N   UNL     1     -19.143  40.734 -12.255  0.00  0.00    +0.000 N 
ATOM     12  C   UNL     1     -18.110  41.346 -12.969  0.00  0.00    +0.000 C 
ATOM     13  C   UNL     1     -19.236  39.306 -12.057  0.00  0.00    +0.000 C 
ATOM     14  H   UNL     1     -19.881  41.315 -11.865  0.00  0.00    +0.000 HD
ENDBRANCH   4  12
BRANCH   3  15
ATOM     15  C   UNL     1     -16.831  42.962 -10.919  0.00  0.00    +0.000 C 
BRANCH  15  18
ATOM     16  O   UNL     1     -14.517  43.530 -11.376  0.00  0.00    +0.000 OA
ATOM     17  N   UNL     1     -15.085  41.314 -11.166  0.00  0.00    +0.000 N 
ATOM     18  C   UNL     1     -15.364  42.665 -11.179  0.00  0.00    +0.000 C 
ATOM     19  H   UNL     1     -15.799  40.611 -11.007  0.00  0.00    +0.000 HD
ATOM     20  H   UNL     1     -14.142  40.976 -11.324  0.00  0.00    +0.000 HD
ENDBRANCH  15  18
ENDBRANCH   3  15
TORSDOF 3
ENDMDL
