MODEL 1
REMARK VINA RESULT:    -5.899      0.000      0.000
REMARK INTER + INTRA:          -7.771
REMARK INTER:                  -7.278
REMARK INTRA:                  -0.493
REMARK UNBOUND:                -0.493
REMARK  Name = 144105668
REMARK  4 active torsions:
REMARK  status: ('A' for Active; 'I' for Inactive)
REMARK    1  A    between atoms: N_2  and  C_10
REMARK    2  A    between atoms: C_5  and  C_6
REMARK    3  A    between atoms: C_10  and  C_13
REMARK    4  A    between atoms: C_12  and  C_14
REMARK                            x       y       z     vdW  Elec       q    Type
REMARK                         _______ _______ _______ _____ _____    ______ ____
ROOT
ATOM      1  O   UNL     1     -18.912  44.428 -14.644  0.00  0.00    +0.000 OA
ATOM      2  N   UNL     1     -20.412  42.685 -14.993  0.00  0.00    +0.000 N 
ATOM      3  C   UNL     1     -19.410  43.355 -14.312  0.00  0.00    +0.000 C 
ATOM      4  H   UNL     1     -20.600  41.721 -14.743  0.00  0.00    +0.000 HD
ENDROOT
BRANCH   3   7
ATOM      5  N   UNL     1     -19.030  40.802 -11.568  0.00  0.00    +0.000 NA
ATOM      6  N   UNL     1     -17.672  40.789  -9.610  0.00  0.00    +0.000 N 
ATOM      7  C   UNL     1     -18.937  42.697 -13.066  0.00  0.00    +0.000 A 
ATOM      8  C   UNL     1     -17.996  43.309 -12.245  0.00  0.00    +0.000 A 
ATOM      9  C   UNL     1     -19.418  41.455 -12.687  0.00  0.00    +0.000 A 
ATOM     10  C   UNL     1     -17.573  42.669 -11.086  0.00  0.00    +0.000 A 
ATOM     11  C   UNL     1     -18.115  41.428 -10.794  0.00  0.00    +0.000 A 
ATOM     12  H   UNL     1     -16.741  40.996  -9.269  0.00  0.00    +0.000 HD
ATOM     13  H   UNL     1     -18.066  39.878  -9.405  0.00  0.00    +0.000 HD
ENDBRANCH   3   7
BRANCH   2  14
ATOM     14  C   UNL     1     -20.979  43.159 -16.149  0.00  0.00    +0.000 C 
ATOM     15  C   UNL     1     -22.123  43.874 -16.145  0.00  0.00    +0.000 C 
BRANCH  14  16
ATOM     16  C   UNL     1     -20.316  42.874 -17.418  0.00  0.00    +0.000 C 
ATOM     17  C   UNL     1     -19.349  43.585 -18.014  0.00  0.00    +0.000 C 
ENDBRANCH  14  16
BRANCH  15  18
ATOM     18  C   UNL     1     -22.818  44.426 -17.291  0.00  0.00    +0.000 C 
ATOM     19  C   UNL     1     -23.944  45.141 -17.187  0.00  0.00    +0.000 C 
ENDBRANCH  15  18
ENDBRANCH   2  14
TORSDOF 4
ENDMDL
MODEL 2
REMARK VINA RESULT:    -5.535      2.309      6.601
REMARK INTER + INTRA:          -7.321
REMARK INTER:                  -6.835
REMARK INTRA:                  -0.486
REMARK UNBOUND:                -0.493
REMARK  Name = 144105668
REMARK  4 active torsions:
REMARK  status: ('A' for Active; 'I' for Inactive)
REMARK    1  A    between atoms: N_2  and  C_10
REMARK    2  A    between atoms: C_5  and  C_6
REMARK    3  A    between atoms: C_10  and  C_13
REMARK    4  A    between atoms: C_12  and  C_14
REMARK                            x       y       z     vdW  Elec       q    Type
REMARK                         _______ _______ _______ _____ _____    ______ ____
ROOT
ATOM      1  O   UNL     1     -19.719  41.220 -13.062  0.00  0.00    +0.000 OA
ATOM      2  N   UNL     1     -18.051  42.444 -12.003  0.00  0.00    +0.000 N 
ATOM      3  C   UNL     1     -18.977  42.196 -13.001  0.00  0.00    +0.000 C 
ATOM      4  H   UNL     1     -17.358  43.167 -12.159  0.00  0.00    +0.000 HD
ENDROOT
BRANCH   3   7
ATOM      5  N   UNL     1     -18.414  45.417 -14.872  0.00  0.00    +0.000 NA
ATOM      6  N   UNL     1     -19.248  46.183 -16.969  0.00  0.00    +0.000 N 
ATOM      7  C   UNL     1     -19.064  43.234 -14.061  0.00  0.00    +0.000 A 
ATOM      8  C   UNL     1     -19.835  43.032 -15.201  0.00  0.00    +0.000 A 
ATOM      9  C   UNL     1     -18.378  44.433 -13.946  0.00  0.00    +0.000 A 
ATOM     10  C   UNL     1     -19.896  44.021 -16.175  0.00  0.00    +0.000 A 
ATOM     11  C   UNL     1     -19.175  45.185 -15.966  0.00  0.00    +0.000 A 
ATOM     12  H   UNL     1     -19.425  45.896 -17.923  0.00  0.00    +0.000 HD
ATOM     13  H   UNL     1     -18.713  47.029 -16.814  0.00  0.00    +0.000 HD
ENDBRANCH   3   7
BRANCH   2  14
ATOM     14  C   UNL     1     -17.853  41.602 -10.937  0.00  0.00    +0.000 C 
ATOM     15  C   UNL     1     -18.602  41.677  -9.817  0.00  0.00    +0.000 C 
BRANCH  14  16
ATOM     16  C   UNL     1     -16.797  40.599 -11.028  0.00  0.00    +0.000 C 
ATOM     17  C   UNL     1     -16.589  39.716 -12.014  0.00  0.00    +0.000 C 
ENDBRANCH  14  16
BRANCH  15  18
ATOM     18  C   UNL     1     -18.492  40.851  -8.631  0.00  0.00    +0.000 C 
ATOM     19  C   UNL     1     -19.549  40.479  -7.900  0.00  0.00    +0.000 C 
ENDBRANCH  15  18
ENDBRANCH   2  14
TORSDOF 4
ENDMDL
MODEL 3
REMARK VINA RESULT:    -5.511      2.130      6.286
REMARK INTER + INTRA:          -7.293
REMARK INTER:                  -6.718
REMARK INTRA:                  -0.575
REMARK UNBOUND:                -0.493
REMARK  Name = 144105668
REMARK  4 active torsions:
REMARK  status: ('A' for Active; 'I' for Inactive)
REMARK    1  A    between atoms: N_2  and  C_10
REMARK    2  A    between atoms: C_5  and  C_6
REMARK    3  A    between atoms: C_10  and  C_13
REMARK    4  A    between atoms: C_12  and  C_14
REMARK                            x       y       z     vdW  Elec       q    Type
REMARK                         _______ _______ _______ _____ _____    ______ ____
ROOT
ATOM      1  O   UNL     1     -17.921  43.209 -13.315  0.00  0.00    +0.000 OA
ATOM      2  N   UNL     1     -19.622  41.627 -13.416  0.00  0.00    +0.000 N 
ATOM      3  C   UNL     1     -18.960  42.777 -13.808  0.00  0.00    +0.000 C 
ATOM      4  H   UNL     1     -20.567  41.478 -13.752  0.00  0.00    +0.000 HD
ENDROOT
BRANCH   3   7
ATOM      5  N   UNL     1     -21.374  43.697 -16.549  0.00  0.00    +0.000 NA
ATOM      6  N   UNL     1     -21.377  45.507 -18.100  0.00  0.00    +0.000 N 
ATOM      7  C   UNL     1     -19.579  43.514 -14.941  0.00  0.00    +0.000 A 
ATOM      8  C   UNL     1     -18.993  44.667 -15.452  0.00  0.00    +0.000 A 
ATOM      9  C   UNL     1     -20.759  43.075 -15.519  0.00  0.00    +0.000 A 
ATOM     10  C   UNL     1     -19.596  45.334 -16.511  0.00  0.00    +0.000 A 
ATOM     11  C   UNL     1     -20.775  44.814 -17.021  0.00  0.00    +0.000 A 
ATOM     12  H   UNL     1     -21.220  46.504 -18.180  0.00  0.00    +0.000 HD
ATOM     13  H   UNL     1     -22.242  45.127 -18.464  0.00  0.00    +0.000 HD
ENDBRANCH   3   7
BRANCH   2  14
ATOM     14  C   UNL     1     -19.179  40.815 -12.402  0.00  0.00    +0.000 C 
ATOM     15  C   UNL     1     -19.569  40.990 -11.122  0.00  0.00    +0.000 C 
BRANCH  14  16
ATOM     16  C   UNL     1     -18.257  39.731 -12.730  0.00  0.00    +0.000 C 
ATOM     17  C   UNL     1     -16.924  39.794 -12.835  0.00  0.00    +0.000 C 
ENDBRANCH  14  16
BRANCH  15  18
ATOM     18  C   UNL     1     -19.173  40.205  -9.969  0.00  0.00    +0.000 C 
ATOM     19  C   UNL     1     -18.456  40.706  -8.958  0.00  0.00    +0.000 C 
ENDBRANCH  15  18
ENDBRANCH   2  14
TORSDOF 4
ENDMDL
MODEL 4
REMARK VINA RESULT:    -5.278      2.400      6.763
REMARK INTER + INTRA:          -7.005
REMARK INTER:                  -6.553
REMARK INTRA:                  -0.451
REMARK UNBOUND:                -0.493
REMARK  Name = 144105668
REMARK  4 active torsions:
REMARK  status: ('A' for Active; 'I' for Inactive)
REMARK    1  A    between atoms: N_2  and  C_10
REMARK    2  A    between atoms: C_5  and  C_6
REMARK    3  A    between atoms: C_10  and  C_13
REMARK    4  A    between atoms: C_12  and  C_14
REMARK                            x       y       z     vdW  Elec       q    Type
REMARK                         _______ _______ _______ _____ _____    ______ ____
ROOT
ATOM      1  O   UNL     1     -20.301  42.310 -14.112  0.00  0.00    +0.000 OA
ATOM      2  N   UNL     1     -18.264  43.406 -14.347  0.00  0.00    +0.000 N 
ATOM      3  C   UNL     1     -19.539  43.040 -14.741  0.00  0.00    +0.000 C 
ATOM      4  H   UNL     1     -17.656  43.840 -15.032  0.00  0.00    +0.000 HD
ENDROOT
BRANCH   3   7
ATOM      5  N   UNL     1     -19.966  45.456 -17.599  0.00  0.00    +0.000 NA
ATOM      6  N   UNL     1     -21.221  45.296 -19.618  0.00  0.00    +0.000 N 
ATOM      7  C   UNL     1     -19.997  43.615 -16.032  0.00  0.00    +0.000 A 
ATOM      8  C   UNL     1     -20.847  42.904 -16.873  0.00  0.00    +0.000 A 
ATOM      9  C   UNL     1     -19.588  44.875 -16.438  0.00  0.00    +0.000 A 
ATOM     10  C   UNL     1     -21.258  43.469 -18.074  0.00  0.00    +0.000 A 
ATOM     11  C   UNL     1     -20.794  44.736 -18.390  0.00  0.00    +0.000 A 
ATOM     12  H   UNL     1     -21.454  44.670 -20.379  0.00  0.00    +0.000 HD
ATOM     13  H   UNL     1     -20.873  46.220 -19.847  0.00  0.00    +0.000 HD
ENDBRANCH   3   7
BRANCH   2  14
ATOM     14  C   UNL     1     -17.692  42.984 -13.173  0.00  0.00    +0.000 C 
ATOM     15  C   UNL     1     -17.192  41.739 -13.026  0.00  0.00    +0.000 C 
BRANCH  14  16
ATOM     16  C   UNL     1     -17.626  43.920 -12.054  0.00  0.00    +0.000 C 
ATOM     17  C   UNL     1     -18.003  45.204 -12.038  0.00  0.00    +0.000 C 
ENDBRANCH  14  16
BRANCH  15  18
ATOM     18  C   UNL     1     -16.568  41.177 -11.845  0.00  0.00    +0.000 C 
ATOM     19  C   UNL     1     -17.143  40.230 -11.096  0.00  0.00    +0.000 C 
ENDBRANCH  15  18
ENDBRANCH   2  14
TORSDOF 4
ENDMDL
MODEL 5
REMARK VINA RESULT:    -4.991      4.374      8.288
REMARK INTER + INTRA:          -6.651
REMARK INTER:                  -6.260
REMARK INTRA:                  -0.391
REMARK UNBOUND:                -0.493
REMARK  Name = 144105668
REMARK  4 active torsions:
REMARK  status: ('A' for Active; 'I' for Inactive)
REMARK    1  A    between atoms: N_2  and  C_10
REMARK    2  A    between atoms: C_5  and  C_6
REMARK    3  A    between atoms: C_10  and  C_13
REMARK    4  A    between atoms: C_12  and  C_14
REMARK                            x       y       z     vdW  Elec       q    Type
REMARK                         _______ _______ _______ _____ _____    ______ ____
ROOT
ATOM      1  O   UNL     1     -14.892  43.552 -11.625  0.00  0.00    +0.000 OA
ATOM      2  N   UNL     1     -13.993  41.525 -10.924  0.00  0.00    +0.000 N 
ATOM      3  C   UNL     1     -14.998  42.349 -11.399  0.00  0.00    +0.000 C 
ATOM      4  H   UNL     1     -14.246  40.605 -10.585  0.00  0.00    +0.000 HD
ENDROOT
BRANCH   3   7
ATOM      5  N   UNL     1     -17.648  39.677 -11.563  0.00  0.00    +0.000 NA
ATOM      6  N   UNL     1     -19.890  39.734 -12.366  0.00  0.00    +0.000 N 
ATOM      7  C   UNL     1     -16.298  41.680 -11.664  0.00  0.00    +0.000 A 
ATOM      8  C   UNL     1     -17.359  42.375 -12.235  0.00  0.00    +0.000 A 
ATOM      9  C   UNL     1     -16.492  40.345 -11.348  0.00  0.00    +0.000 A 
ATOM     10  C   UNL     1     -18.563  41.722 -12.470  0.00  0.00    +0.000 A 
ATOM     11  C   UNL     1     -18.656  40.385 -12.120  0.00  0.00    +0.000 A 
ATOM     12  H   UNL     1     -20.737  40.289 -12.363  0.00  0.00    +0.000 HD
ATOM     13  H   UNL     1     -19.956  38.758 -12.102  0.00  0.00    +0.000 HD
ENDBRANCH   3   7
BRANCH   2  14
ATOM     14  C   UNL     1     -12.725  41.972 -10.646  0.00  0.00    +0.000 C 
ATOM     15  C   UNL     1     -12.471  42.817  -9.625  0.00  0.00    +0.000 C 
BRANCH  14  16
ATOM     16  C   UNL     1     -11.624  41.513 -11.488  0.00  0.00    +0.000 C 
ATOM     17  C   UNL     1     -11.113  40.277 -11.565  0.00  0.00    +0.000 C 
ENDBRANCH  14  16
BRANCH  15  18
ATOM     18  C   UNL     1     -11.185  43.358  -9.233  0.00  0.00    +0.000 C 
ATOM     19  C   UNL     1     -10.452  42.847  -8.238  0.00  0.00    +0.000 C 
ENDBRANCH  15  18
ENDBRANCH   2  14
TORSDOF 4
ENDMDL
