MODEL 1
REMARK VINA RESULT:    -5.888      0.000      0.000
REMARK INTER + INTRA:          -6.876
REMARK INTER:                  -6.921
REMARK INTRA:                   0.046
REMARK UNBOUND:                 0.046
REMARK  Name = 144219362
REMARK  5 active torsions:
REMARK  status: ('A' for Active; 'I' for Inactive)
REMARK    1  A    between atoms: N_2  and  C_5
REMARK    2  A    between atoms: N_2  and  C_6
REMARK    3  A    between atoms: C_5  and  C_13
REMARK    4  A    between atoms: C_6  and  C_14
REMARK    5  A    between atoms: C_7  and  C_8
REMARK                            x       y       z     vdW  Elec       q    Type
REMARK                         _______ _______ _______ _____ _____    ______ ____
ROOT
ATOM      1  N   UNL     1     -18.726  42.390 -12.273  0.00  0.00    +0.000 N 
ATOM      2  N   UNL     1     -19.376  42.313 -14.571  0.00  0.00    +0.000 NA
ATOM      3  C   UNL     1     -19.340  44.340 -15.888  0.00  0.00    +0.000 A 
ATOM      4  C   UNL     1     -18.942  43.044 -13.520  0.00  0.00    +0.000 A 
ATOM      5  C   UNL     1     -19.581  41.209 -11.986  0.00  0.00    +0.000 C 
ATOM      6  C   UNL     1     -18.894  45.058 -14.785  0.00  0.00    +0.000 A 
ATOM      7  C   UNL     1     -18.689  44.406 -13.574  0.00  0.00    +0.000 A 
ATOM      8  C   UNL     1     -19.564  42.981 -15.732  0.00  0.00    +0.000 A 
ATOM      9  C   UNL     1     -17.779  42.795 -11.338  0.00  0.00    +0.000 C 
ATOM     10  C   UNL     1     -19.437  40.712 -10.567  0.00  0.00    +0.000 C 
ATOM     11  C   UNL     1     -17.647  42.262 -10.116  0.00  0.00    +0.000 C 
ATOM     12  C   UNL     1     -18.538  41.209  -9.704  0.00  0.00    +0.000 C 
ENDROOT
BRANCH   3  15
ATOM     13  O   UNL     1     -18.581  45.511 -17.715  0.00  0.00    +0.000 OA
ATOM     14  N   UNL     1     -20.860  44.993 -17.716  0.00  0.00    +0.000 N 
ATOM     15  C   UNL     1     -19.564  44.993 -17.166  0.00  0.00    +0.000 C 
BRANCH  14  16
ATOM     16  C   UNL     1     -21.994  44.369 -17.036  0.00  0.00    +0.000 C 
ATOM     17  C   UNL     1     -23.250  45.205 -17.173  0.00  0.00    +0.000 C 
ENDBRANCH  14  16
BRANCH  14  18
ATOM     18  C   UNL     1     -21.159  45.614 -18.998  0.00  0.00    +0.000 C 
ATOM     19  C   UNL     1     -20.810  44.697 -20.153  0.00  0.00    +0.000 C 
ENDBRANCH  14  18
ENDBRANCH   3  15
TORSDOF 3
ENDMDL
MODEL 2
REMARK VINA RESULT:    -5.727      1.339      2.019
REMARK INTER + INTRA:          -6.686
REMARK INTER:                  -6.387
REMARK INTRA:                  -0.299
REMARK UNBOUND:                 0.046
REMARK  Name = 144219362
REMARK  5 active torsions:
REMARK  status: ('A' for Active; 'I' for Inactive)
REMARK    1  A    between atoms: N_2  and  C_5
REMARK    2  A    between atoms: N_2  and  C_6
REMARK    3  A    between atoms: C_5  and  C_13
REMARK    4  A    between atoms: C_6  and  C_14
REMARK    5  A    between atoms: C_7  and  C_8
REMARK                            x       y       z     vdW  Elec       q    Type
REMARK                         _______ _______ _______ _____ _____    ______ ____
ROOT
ATOM      1  N   UNL     1     -18.634  42.273 -12.855  0.00  0.00    +0.000 N 
ATOM      2  N   UNL     1     -19.947  42.390 -14.848  0.00  0.00    +0.000 NA
ATOM      3  C   UNL     1     -19.899  44.399 -16.191  0.00  0.00    +0.000 A 
ATOM      4  C   UNL     1     -19.078  42.989 -14.004  0.00  0.00    +0.000 A 
ATOM      5  C   UNL     1     -19.584  41.285 -12.280  0.00  0.00    +0.000 C 
ATOM      6  C   UNL     1     -19.006  44.983 -15.299  0.00  0.00    +0.000 A 
ATOM      7  C   UNL     1     -18.583  44.271 -14.182  0.00  0.00    +0.000 A 
ATOM      8  C   UNL     1     -20.336  43.112 -15.923  0.00  0.00    +0.000 A 
ATOM      9  C   UNL     1     -17.388  42.451 -12.263  0.00  0.00    +0.000 C 
ATOM     10  C   UNL     1     -19.122  40.733 -10.952  0.00  0.00    +0.000 C 
ATOM     11  C   UNL     1     -17.005  41.871 -11.117  0.00  0.00    +0.000 C 
ATOM     12  C   UNL     1     -17.925  41.012 -10.418  0.00  0.00    +0.000 C 
ENDROOT
BRANCH   3  15
ATOM     13  O   UNL     1     -21.447  45.706 -17.277  0.00  0.00    +0.000 OA
ATOM     14  N   UNL     1     -19.559  45.121 -18.523  0.00  0.00    +0.000 N 
ATOM     15  C   UNL     1     -20.361  45.117 -17.366  0.00  0.00    +0.000 C 
BRANCH  14  16
ATOM     16  C   UNL     1     -18.281  44.413 -18.587  0.00  0.00    +0.000 C 
ATOM     17  C   UNL     1     -17.175  45.312 -19.100  0.00  0.00    +0.000 C 
ENDBRANCH  14  16
BRANCH  14  18
ATOM     18  C   UNL     1     -19.947  45.830 -19.734  0.00  0.00    +0.000 C 
ATOM     19  C   UNL     1     -20.743  44.941 -20.667  0.00  0.00    +0.000 C 
ENDBRANCH  14  18
ENDBRANCH   3  15
TORSDOF 3
ENDMDL
MODEL 3
REMARK VINA RESULT:    -5.250      3.374      4.597
REMARK INTER + INTRA:          -6.125
REMARK INTER:                  -5.841
REMARK INTRA:                  -0.284
REMARK UNBOUND:                 0.046
REMARK  Name = 144219362
REMARK  5 active torsions:
REMARK  status: ('A' for Active; 'I' for Inactive)
REMARK    1  A    between atoms: N_2  and  C_5
REMARK    2  A    between atoms: N_2  and  C_6
REMARK    3  A    between atoms: C_5  and  C_13
REMARK    4  A    between atoms: C_6  and  C_14
REMARK    5  A    between atoms: C_7  and  C_8
REMARK                            x       y       z     vdW  Elec       q    Type
REMARK                         _______ _______ _______ _____ _____    ______ ____
ROOT
ATOM      1  N   UNL     1     -18.180  42.262 -12.073  0.00  0.00    +0.000 N 
ATOM      2  N   UNL     1     -18.458  43.903 -13.788  0.00  0.00    +0.000 NA
ATOM      3  C   UNL     1     -17.889  46.208 -13.336  0.00  0.00    +0.000 A 
ATOM      4  C   UNL     1     -18.087  43.611 -12.521  0.00  0.00    +0.000 A 
ATOM      5  C   UNL     1     -19.248  41.431 -12.687  0.00  0.00    +0.000 C 
ATOM      6  C   UNL     1     -17.515  45.870 -12.040  0.00  0.00    +0.000 A 
ATOM      7  C   UNL     1     -17.613  44.549 -11.617  0.00  0.00    +0.000 A 
ATOM      8  C   UNL     1     -18.349  45.197 -14.164  0.00  0.00    +0.000 A 
ATOM      9  C   UNL     1     -17.342  41.703 -11.113  0.00  0.00    +0.000 C 
ATOM     10  C   UNL     1     -19.413  40.093 -12.006  0.00  0.00    +0.000 C 
ATOM     11  C   UNL     1     -17.494  40.475 -10.600  0.00  0.00    +0.000 C 
ATOM     12  C   UNL     1     -18.596  39.658 -11.035  0.00  0.00    +0.000 C 
ENDROOT
BRANCH   3  15
ATOM     13  O   UNL     1     -18.773  48.313 -13.596  0.00  0.00    +0.000 OA
ATOM     14  N   UNL     1     -16.623  48.003 -14.455  0.00  0.00    +0.000 N 
ATOM     15  C   UNL     1     -17.798  47.579 -13.807  0.00  0.00    +0.000 C 
BRANCH  14  16
ATOM     16  C   UNL     1     -15.492  47.104 -14.684  0.00  0.00    +0.000 C 
ATOM     17  C   UNL     1     -15.478  46.584 -16.107  0.00  0.00    +0.000 C 
ENDBRANCH  14  16
BRANCH  14  18
ATOM     18  C   UNL     1     -16.452  49.365 -14.941  0.00  0.00    +0.000 C 
ATOM     19  C   UNL     1     -15.125  49.949 -14.501  0.00  0.00    +0.000 C 
ENDBRANCH  14  18
ENDBRANCH   3  15
TORSDOF 3
ENDMDL
MODEL 4
REMARK VINA RESULT:    -5.068     21.122     23.763
REMARK INTER + INTRA:          -5.911
REMARK INTER:                  -5.605
REMARK INTRA:                  -0.306
REMARK UNBOUND:                 0.046
REMARK  Name = 144219362
REMARK  5 active torsions:
REMARK  status: ('A' for Active; 'I' for Inactive)
REMARK    1  A    between atoms: N_2  and  C_5
REMARK    2  A    between atoms: N_2  and  C_6
REMARK    3  A    between atoms: C_5  and  C_13
REMARK    4  A    between atoms: C_6  and  C_14
REMARK    5  A    between atoms: C_7  and  C_8
REMARK                            x       y       z     vdW  Elec       q    Type
REMARK                         _______ _______ _______ _____ _____    ______ ____
ROOT
ATOM      1  N   UNL     1     -30.967  40.497   3.563  0.00  0.00    +0.000 N 
ATOM      2  N   UNL     1     -31.839  42.702   3.272  0.00  0.00    +0.000 NA
ATOM      3  C   UNL     1     -33.186  43.692   5.017  0.00  0.00    +0.000 A 
ATOM      4  C   UNL     1     -31.726  41.601   4.047  0.00  0.00    +0.000 A 
ATOM      5  C   UNL     1     -30.935  40.308   2.089  0.00  0.00    +0.000 C 
ATOM      6  C   UNL     1     -33.047  42.542   5.787  0.00  0.00    +0.000 A 
ATOM      7  C   UNL     1     -32.305  41.472   5.300  0.00  0.00    +0.000 A 
ATOM      8  C   UNL     1     -32.568  43.722   3.778  0.00  0.00    +0.000 A 
ATOM      9  C   UNL     1     -30.275  39.611   4.382  0.00  0.00    +0.000 C 
ATOM     10  C   UNL     1     -30.294  39.003   1.679  0.00  0.00    +0.000 C 
ATOM     11  C   UNL     1     -29.658  38.504   3.948  0.00  0.00    +0.000 C 
ATOM     12  C   UNL     1     -29.706  38.170   2.549  0.00  0.00    +0.000 C 
ENDROOT
BRANCH   3  15
ATOM     13  O   UNL     1     -33.321  45.782   5.964  0.00  0.00    +0.000 OA
ATOM     14  N   UNL     1     -35.360  44.790   5.400  0.00  0.00    +0.000 N 
ATOM     15  C   UNL     1     -33.956  44.826   5.498  0.00  0.00    +0.000 C 
BRANCH  14  16
ATOM     16  C   UNL     1     -36.073  43.642   4.843  0.00  0.00    +0.000 C 
ATOM     17  C   UNL     1     -36.877  42.921   5.905  0.00  0.00    +0.000 C 
ENDBRANCH  14  16
BRANCH  14  18
ATOM     18  C   UNL     1     -36.197  45.894   5.847  0.00  0.00    +0.000 C 
ATOM     19  C   UNL     1     -36.826  46.623   4.676  0.00  0.00    +0.000 C 
ENDBRANCH  14  18
ENDBRANCH   3  15
TORSDOF 3
ENDMDL
MODEL 5
REMARK VINA RESULT:    -4.895      4.716      7.298
REMARK INTER + INTRA:          -5.709
REMARK INTER:                  -5.662
REMARK INTRA:                  -0.046
REMARK UNBOUND:                 0.046
REMARK  Name = 144219362
REMARK  5 active torsions:
REMARK  status: ('A' for Active; 'I' for Inactive)
REMARK    1  A    between atoms: N_2  and  C_5
REMARK    2  A    between atoms: N_2  and  C_6
REMARK    3  A    between atoms: C_5  and  C_13
REMARK    4  A    between atoms: C_6  and  C_14
REMARK    5  A    between atoms: C_7  and  C_8
REMARK                            x       y       z     vdW  Elec       q    Type
REMARK                         _______ _______ _______ _____ _____    ______ ____
ROOT
ATOM      1  N   UNL     1     -14.351  46.121 -19.168  0.00  0.00    +0.000 N 
ATOM      2  N   UNL     1     -16.410  46.281 -17.966  0.00  0.00    +0.000 NA
ATOM      3  C   UNL     1     -18.483  45.713 -19.072  0.00  0.00    +0.000 A 
ATOM      4  C   UNL     1     -15.768  45.987 -19.119  0.00  0.00    +0.000 A 
ATOM      5  C   UNL     1     -13.752  47.161 -18.292  0.00  0.00    +0.000 C 
ATOM      6  C   UNL     1     -17.789  45.419 -20.240  0.00  0.00    +0.000 A 
ATOM      7  C   UNL     1     -16.405  45.556 -20.272  0.00  0.00    +0.000 A 
ATOM      8  C   UNL     1     -17.754  46.136 -17.972  0.00  0.00    +0.000 A 
ATOM      9  C   UNL     1     -13.525  45.347 -19.976  0.00  0.00    +0.000 C 
ATOM     10  C   UNL     1     -12.282  47.380 -18.564  0.00  0.00    +0.000 C 
ATOM     11  C   UNL     1     -12.208  45.542 -20.119  0.00  0.00    +0.000 C 
ATOM     12  C   UNL     1     -11.574  46.626 -19.416  0.00  0.00    +0.000 C 
ENDROOT
BRANCH   3  15
ATOM     13  O   UNL     1     -20.601  46.491 -19.508  0.00  0.00    +0.000 OA
ATOM     14  N   UNL     1     -20.483  44.437 -18.400  0.00  0.00    +0.000 N 
ATOM     15  C   UNL     1     -19.928  45.580 -19.006  0.00  0.00    +0.000 C 
BRANCH  14  16
ATOM     16  C   UNL     1     -19.652  43.383 -17.819  0.00  0.00    +0.000 C 
ATOM     17  C   UNL     1     -19.769  43.356 -16.309  0.00  0.00    +0.000 C 
ENDBRANCH  14  16
BRANCH  14  18
ATOM     18  C   UNL     1     -21.920  44.227 -18.311  0.00  0.00    +0.000 C 
ATOM     19  C   UNL     1     -22.546  45.108 -17.249  0.00  0.00    +0.000 C 
ENDBRANCH  14  18
ENDBRANCH   3  15
TORSDOF 3
ENDMDL
