MODEL 1
REMARK VINA RESULT:    -7.772      0.000      0.000
REMARK INTER + INTRA:         -11.613
REMARK INTER:                 -10.271
REMARK INTRA:                  -1.342
REMARK UNBOUND:                -1.342
REMARK  Name = 144395811
REMARK  8 active torsions:
REMARK  status: ('A' for Active; 'I' for Inactive)
REMARK    1  A    between atoms: N_2  and  C_9
REMARK    2  A    between atoms: N_2  and  C_15
REMARK    3  A    between atoms: N_2  and  C_16
REMARK    4  A    between atoms: N_5  and  C_14
REMARK    5  A    between atoms: N_6  and  C_18
REMARK    6  A    between atoms: C_9  and  C_10
REMARK    7  A    between atoms: C_12  and  C_17
REMARK    8  A    between atoms: C_18  and  C_19
REMARK                            x       y       z     vdW  Elec       q    Type
REMARK                         _______ _______ _______ _____ _____    ______ ____
ROOT
ATOM      1  N   UNL     1     -18.094  42.623 -13.594  0.00  0.00    +0.000 NA
ATOM      2  N   UNL     1     -16.980  44.573 -14.357  0.00  0.00    +0.000 N 
ATOM      3  C   UNL     1     -17.088  44.131 -11.995  0.00  0.00    +0.000 A 
ATOM      4  C   UNL     1     -17.506  43.315 -10.951  0.00  0.00    +0.000 A 
ATOM      5  C   UNL     1     -18.218  42.153 -11.226  0.00  0.00    +0.000 A 
ATOM      6  C   UNL     1     -17.404  43.744 -13.288  0.00  0.00    +0.000 A 
ATOM      7  C   UNL     1     -18.484  41.854 -12.552  0.00  0.00    +0.000 A 
ATOM      8  H   UNL     1     -16.110  45.081 -14.257  0.00  0.00    +0.000 HD
ATOM      9  H   UNL     1     -17.235  44.269 -15.288  0.00  0.00    +0.000 HD
ENDROOT
BRANCH   5  12
ATOM     10  N   UNL     1     -19.954  41.174  -9.919  0.00  0.00    +0.000 NA
ATOM     11  N   UNL     1     -17.687  40.656  -9.345  0.00  0.00    +0.000 N 
ATOM     12  C   UNL     1     -18.653  41.304 -10.125  0.00  0.00    +0.000 C 
ATOM     13  H   UNL     1     -16.696  40.765  -9.533  0.00  0.00    +0.000 HD
ATOM     14  H   UNL     1     -17.944  40.047  -8.575  0.00  0.00    +0.000 HD
BRANCH  10  16
ATOM     15  O   UNL     1     -20.394  39.179  -8.839  0.00  0.00    +0.000 OA
ATOM     16  C   UNL     1     -20.439  40.405  -8.886  0.00  0.00    +0.000 C 
BRANCH  16  18
ATOM     17  N   UNL     1     -22.975  41.946  -6.558  0.00  0.00    +0.000 NA
ATOM     18  C   UNL     1     -21.016  41.157  -7.737  0.00  0.00    +0.000 A 
ATOM     19  C   UNL     1     -20.195  41.756  -6.787  0.00  0.00    +0.000 A 
ATOM     20  C   UNL     1     -22.387  41.280  -7.578  0.00  0.00    +0.000 A 
ATOM     21  C   UNL     1     -20.762  42.449  -5.724  0.00  0.00    +0.000 A 
ATOM     22  C   UNL     1     -22.144  42.515  -5.656  0.00  0.00    +0.000 A 
ENDBRANCH  16  18
ENDBRANCH  10  16
ENDBRANCH   5  12
BRANCH   7  23
ATOM     23  N   UNL     1     -19.210  40.672 -12.841  0.00  0.00    +0.000 N 
ATOM     24  H   UNL     1     -18.844  40.033 -13.536  0.00  0.00    +0.000 HD
ATOM     25  H   UNL     1     -20.216  40.719 -12.731  0.00  0.00    +0.000 HD
ENDBRANCH   7  23
BRANCH   3  26
ATOM     26  C   UNL     1     -16.318  45.389 -11.694  0.00  0.00    +0.000 C 
BRANCH  26  27
ATOM     27  N   UNL     1     -15.019  45.407 -12.366  0.00  0.00    +0.000 NA
ATOM     28  C   UNL     1     -14.452  46.755 -12.346  0.00  0.00    +0.000 C 
ATOM     29  C   UNL     1     -14.104  44.459 -11.733  0.00  0.00    +0.000 C 
ENDBRANCH  26  27
ENDBRANCH   3  26
TORSDOF 6
ENDMDL
MODEL 2
REMARK VINA RESULT:    -7.623      1.815      2.112
REMARK INTER + INTRA:         -11.415
REMARK INTER:                 -10.333
REMARK INTRA:                  -1.083
REMARK UNBOUND:                -1.342
REMARK  Name = 144395811
REMARK  8 active torsions:
REMARK  status: ('A' for Active; 'I' for Inactive)
REMARK    1  A    between atoms: N_2  and  C_9
REMARK    2  A    between atoms: N_2  and  C_15
REMARK    3  A    between atoms: N_2  and  C_16
REMARK    4  A    between atoms: N_5  and  C_14
REMARK    5  A    between atoms: N_6  and  C_18
REMARK    6  A    between atoms: C_9  and  C_10
REMARK    7  A    between atoms: C_12  and  C_17
REMARK    8  A    between atoms: C_18  and  C_19
REMARK                            x       y       z     vdW  Elec       q    Type
REMARK                         _______ _______ _______ _____ _____    ______ ____
ROOT
ATOM      1  N   UNL     1     -19.535  42.029 -14.151  0.00  0.00    +0.000 NA
ATOM      2  N   UNL     1     -19.114  43.747 -15.731  0.00  0.00    +0.000 N 
ATOM      3  C   UNL     1     -18.202  43.943 -13.515  0.00  0.00    +0.000 A 
ATOM      4  C   UNL     1     -18.044  43.417 -12.237  0.00  0.00    +0.000 A 
ATOM      5  C   UNL     1     -18.630  42.199 -11.916  0.00  0.00    +0.000 A 
ATOM      6  C   UNL     1     -18.950  43.216 -14.427  0.00  0.00    +0.000 A 
ATOM      7  C   UNL     1     -19.359  41.550 -12.898  0.00  0.00    +0.000 A 
ATOM      8  H   UNL     1     -18.360  44.294 -16.127  0.00  0.00    +0.000 HD
ATOM      9  H   UNL     1     -19.674  43.198 -16.371  0.00  0.00    +0.000 HD
ENDROOT
BRANCH   5  12
ATOM     10  N   UNL     1     -19.548  41.336  -9.892  0.00  0.00    +0.000 NA
ATOM     11  N   UNL     1     -17.164  41.486 -10.070  0.00  0.00    +0.000 N 
ATOM     12  C   UNL     1     -18.460  41.657 -10.574  0.00  0.00    +0.000 C 
ATOM     13  H   UNL     1     -16.347  41.730 -10.620  0.00  0.00    +0.000 HD
ATOM     14  H   UNL     1     -16.998  41.101  -9.146  0.00  0.00    +0.000 HD
BRANCH  10  16
ATOM     15  O   UNL     1     -18.597  40.071  -8.209  0.00  0.00    +0.000 OA
ATOM     16  C   UNL     1     -19.466  40.838  -8.612  0.00  0.00    +0.000 C 
BRANCH  16  18
ATOM     17  N   UNL     1     -22.847  41.529  -7.089  0.00  0.00    +0.000 NA
ATOM     18  C   UNL     1     -20.507  41.322  -7.662  0.00  0.00    +0.000 A 
ATOM     19  C   UNL     1     -20.155  41.994  -6.496  0.00  0.00    +0.000 A 
ATOM     20  C   UNL     1     -21.854  41.117  -7.910  0.00  0.00    +0.000 A 
ATOM     21  C   UNL     1     -21.147  42.433  -5.626  0.00  0.00    +0.000 A 
ATOM     22  C   UNL     1     -22.466  42.178  -5.966  0.00  0.00    +0.000 A 
ENDBRANCH  16  18
ENDBRANCH  10  16
ENDBRANCH   5  12
BRANCH   7  23
ATOM     23  N   UNL     1     -19.960  40.307 -12.577  0.00  0.00    +0.000 N 
ATOM     24  H   UNL     1     -20.920  40.144 -12.858  0.00  0.00    +0.000 HD
ATOM     25  H   UNL     1     -19.633  39.849 -11.735  0.00  0.00    +0.000 HD
ENDBRANCH   7  23
BRANCH   3  26
ATOM     26  C   UNL     1     -17.566  45.263 -13.860  0.00  0.00    +0.000 C 
BRANCH  26  27
ATOM     27  N   UNL     1     -18.490  46.380 -13.664  0.00  0.00    +0.000 NA
ATOM     28  C   UNL     1     -18.121  47.145 -12.474  0.00  0.00    +0.000 C 
ATOM     29  C   UNL     1     -18.502  47.244 -14.844  0.00  0.00    +0.000 C 
ENDBRANCH  26  27
ENDBRANCH   3  26
TORSDOF 6
ENDMDL
MODEL 3
REMARK VINA RESULT:    -6.598      3.120      4.849
REMARK INTER + INTRA:         -10.061
REMARK INTER:                  -9.196
REMARK INTRA:                  -0.864
REMARK UNBOUND:                -1.342
REMARK  Name = 144395811
REMARK  8 active torsions:
REMARK  status: ('A' for Active; 'I' for Inactive)
REMARK    1  A    between atoms: N_2  and  C_9
REMARK    2  A    between atoms: N_2  and  C_15
REMARK    3  A    between atoms: N_2  and  C_16
REMARK    4  A    between atoms: N_5  and  C_14
REMARK    5  A    between atoms: N_6  and  C_18
REMARK    6  A    between atoms: C_9  and  C_10
REMARK    7  A    between atoms: C_12  and  C_17
REMARK    8  A    between atoms: C_18  and  C_19
REMARK                            x       y       z     vdW  Elec       q    Type
REMARK                         _______ _______ _______ _____ _____    ______ ____
ROOT
ATOM      1  N   UNL     1     -18.538  45.453 -14.142  0.00  0.00    +0.000 NA
ATOM      2  N   UNL     1     -18.985  46.363 -16.286  0.00  0.00    +0.000 N 
ATOM      3  C   UNL     1     -19.478  44.047 -15.869  0.00  0.00    +0.000 A 
ATOM      4  C   UNL     1     -19.486  42.966 -14.994  0.00  0.00    +0.000 A 
ATOM      5  C   UNL     1     -19.022  43.128 -13.694  0.00  0.00    +0.000 A 
ATOM      6  C   UNL     1     -18.997  45.258 -15.399  0.00  0.00    +0.000 A 
ATOM      7  C   UNL     1     -18.562  44.380 -13.320  0.00  0.00    +0.000 A 
ATOM      8  H   UNL     1     -19.716  46.428 -16.985  0.00  0.00    +0.000 HD
ATOM      9  H   UNL     1     -18.620  47.232 -15.917  0.00  0.00    +0.000 HD
ENDROOT
BRANCH   5  12
ATOM     10  N   UNL     1     -18.013  41.847 -11.956  0.00  0.00    +0.000 NA
ATOM     11  N   UNL     1     -20.124  41.110 -12.813  0.00  0.00    +0.000 N 
ATOM     12  C   UNL     1     -19.035  41.990 -12.784  0.00  0.00    +0.000 C 
ATOM     13  H   UNL     1     -20.901  41.251 -13.452  0.00  0.00    +0.000 HD
ATOM     14  H   UNL     1     -20.181  40.311 -12.191  0.00  0.00    +0.000 HD
BRANCH  10  16
ATOM     15  O   UNL     1     -17.342  39.738 -11.291  0.00  0.00    +0.000 OA
ATOM     16  C   UNL     1     -17.946  40.786 -11.083  0.00  0.00    +0.000 C 
BRANCH  16  18
ATOM     17  N   UNL     1     -18.915  42.279  -7.757  0.00  0.00    +0.000 NA
ATOM     18  C   UNL     1     -18.638  40.979  -9.777  0.00  0.00    +0.000 A 
ATOM     19  C   UNL     1     -19.621  40.093  -9.350  0.00  0.00    +0.000 A 
ATOM     20  C   UNL     1     -18.324  42.046  -8.951  0.00  0.00    +0.000 A 
ATOM     21  C   UNL     1     -20.251  40.299  -8.127  0.00  0.00    +0.000 A 
ATOM     22  C   UNL     1     -19.865  41.396  -7.376  0.00  0.00    +0.000 A 
ENDBRANCH  16  18
ENDBRANCH  10  16
ENDBRANCH   5  12
BRANCH   7  23
ATOM     23  N   UNL     1     -18.087  44.553 -11.996  0.00  0.00    +0.000 N 
ATOM     24  H   UNL     1     -17.091  44.481 -11.823  0.00  0.00    +0.000 HD
ATOM     25  H   UNL     1     -18.714  44.276 -11.250  0.00  0.00    +0.000 HD
ENDBRANCH   7  23
BRANCH   3  26
ATOM     26  C   UNL     1     -19.981  43.868 -17.276  0.00  0.00    +0.000 C 
BRANCH  26  27
ATOM     27  N   UNL     1     -21.134  44.723 -17.556  0.00  0.00    +0.000 NA
ATOM     28  C   UNL     1     -21.309  44.889 -18.998  0.00  0.00    +0.000 C 
ATOM     29  C   UNL     1     -22.342  44.161 -16.955  0.00  0.00    +0.000 C 
ENDBRANCH  26  27
ENDBRANCH   3  26
TORSDOF 6
ENDMDL
MODEL 4
REMARK VINA RESULT:    -6.582      2.435      3.942
REMARK INTER + INTRA:         -10.041
REMARK INTER:                  -8.961
REMARK INTRA:                  -1.079
REMARK UNBOUND:                -1.342
REMARK  Name = 144395811
REMARK  8 active torsions:
REMARK  status: ('A' for Active; 'I' for Inactive)
REMARK    1  A    between atoms: N_2  and  C_9
REMARK    2  A    between atoms: N_2  and  C_15
REMARK    3  A    between atoms: N_2  and  C_16
REMARK    4  A    between atoms: N_5  and  C_14
REMARK    5  A    between atoms: N_6  and  C_18
REMARK    6  A    between atoms: C_9  and  C_10
REMARK    7  A    between atoms: C_12  and  C_17
REMARK    8  A    between atoms: C_18  and  C_19
REMARK                            x       y       z     vdW  Elec       q    Type
REMARK                         _______ _______ _______ _____ _____    ______ ____
ROOT
ATOM      1  N   UNL     1     -15.687  44.825 -13.707  0.00  0.00    +0.000 NA
ATOM      2  N   UNL     1     -16.028  46.772 -15.018  0.00  0.00    +0.000 N 
ATOM      3  C   UNL     1     -17.891  45.319 -14.570  0.00  0.00    +0.000 A 
ATOM      4  C   UNL     1     -18.391  44.168 -13.971  0.00  0.00    +0.000 A 
ATOM      5  C   UNL     1     -17.541  43.347 -13.240  0.00  0.00    +0.000 A 
ATOM      6  C   UNL     1     -16.544  45.600 -14.410  0.00  0.00    +0.000 A 
ATOM      7  C   UNL     1     -16.210  43.715 -13.138  0.00  0.00    +0.000 A 
ATOM      8  H   UNL     1     -16.634  47.580 -15.098  0.00  0.00    +0.000 HD
ATOM      9  H   UNL     1     -15.039  46.945 -14.892  0.00  0.00    +0.000 HD
ENDROOT
BRANCH   5  12
ATOM     10  N   UNL     1     -17.873  41.976 -11.318  0.00  0.00    +0.000 NA
ATOM     11  N   UNL     1     -18.782  41.226 -13.404  0.00  0.00    +0.000 N 
ATOM     12  C   UNL     1     -18.074  42.143 -12.616  0.00  0.00    +0.000 C 
ATOM     13  H   UNL     1     -18.931  41.385 -14.395  0.00  0.00    +0.000 HD
ATOM     14  H   UNL     1     -19.181  40.380 -13.010  0.00  0.00    +0.000 HD
BRANCH  10  16
ATOM     15  O   UNL     1     -18.092  39.697 -11.000  0.00  0.00    +0.000 OA
ATOM     16  C   UNL     1     -18.330  40.854 -10.665  0.00  0.00    +0.000 C 
BRANCH  16  18
ATOM     17  N   UNL     1     -19.365  42.231  -7.310  0.00  0.00    +0.000 NA
ATOM     18  C   UNL     1     -19.135  41.105  -9.437  0.00  0.00    +0.000 A 
ATOM     19  C   UNL     1     -20.368  40.487  -9.250  0.00  0.00    +0.000 A 
ATOM     20  C   UNL     1     -18.683  41.960  -8.445  0.00  0.00    +0.000 A 
ATOM     21  C   UNL     1     -21.099  40.741  -8.095  0.00  0.00    +0.000 A 
ATOM     22  C   UNL     1     -20.558  41.612  -7.164  0.00  0.00    +0.000 A 
ENDBRANCH  16  18
ENDBRANCH  10  16
ENDBRANCH   5  12
BRANCH   7  23
ATOM     23  N   UNL     1     -15.337  42.882 -12.395  0.00  0.00    +0.000 N 
ATOM     24  H   UNL     1     -15.719  42.064 -11.936  0.00  0.00    +0.000 HD
ATOM     25  H   UNL     1     -14.538  43.332 -11.964  0.00  0.00    +0.000 HD
ENDBRANCH   7  23
BRANCH   3  26
ATOM     26  C   UNL     1     -18.814  46.206 -15.361  0.00  0.00    +0.000 C 
BRANCH  26  27
ATOM     27  N   UNL     1     -19.084  45.663 -16.692  0.00  0.00    +0.000 NA
ATOM     28  C   UNL     1     -20.525  45.588 -16.930  0.00  0.00    +0.000 C 
ATOM     29  C   UNL     1     -18.438  46.481 -17.717  0.00  0.00    +0.000 C 
ENDBRANCH  26  27
ENDBRANCH   3  26
TORSDOF 6
ENDMDL
MODEL 5
REMARK VINA RESULT:    -6.351      3.347      6.833
REMARK INTER + INTRA:          -9.735
REMARK INTER:                  -8.513
REMARK INTRA:                  -1.222
REMARK UNBOUND:                -1.342
REMARK  Name = 144395811
REMARK  8 active torsions:
REMARK  status: ('A' for Active; 'I' for Inactive)
REMARK    1  A    between atoms: N_2  and  C_9
REMARK    2  A    between atoms: N_2  and  C_15
REMARK    3  A    between atoms: N_2  and  C_16
REMARK    4  A    between atoms: N_5  and  C_14
REMARK    5  A    between atoms: N_6  and  C_18
REMARK    6  A    between atoms: C_9  and  C_10
REMARK    7  A    between atoms: C_12  and  C_17
REMARK    8  A    between atoms: C_18  and  C_19
REMARK                            x       y       z     vdW  Elec       q    Type
REMARK                         _______ _______ _______ _____ _____    ______ ____
ROOT
ATOM      1  N   UNL     1     -19.250  41.594 -13.560  0.00  0.00    +0.000 NA
ATOM      2  N   UNL     1     -19.947  39.654 -12.387  0.00  0.00    +0.000 N 
ATOM      3  C   UNL     1     -18.637  41.311 -11.239  0.00  0.00    +0.000 A 
ATOM      4  C   UNL     1     -17.963  42.527 -11.261  0.00  0.00    +0.000 A 
ATOM      5  C   UNL     1     -17.933  43.276 -12.431  0.00  0.00    +0.000 A 
ATOM      6  C   UNL     1     -19.259  40.892 -12.404  0.00  0.00    +0.000 A 
ATOM      7  C   UNL     1     -18.585  42.771 -13.543  0.00  0.00    +0.000 A 
ATOM      8  H   UNL     1     -20.398  39.364 -11.528  0.00  0.00    +0.000 HD
ATOM      9  H   UNL     1     -20.383  39.371 -13.256  0.00  0.00    +0.000 HD
ENDROOT
BRANCH   5  12
ATOM     10  N   UNL     1     -17.896  45.630 -12.807  0.00  0.00    +0.000 NA
ATOM     11  N   UNL     1     -15.875  44.579 -12.064  0.00  0.00    +0.000 N 
ATOM     12  C   UNL     1     -17.223  44.549 -12.445  0.00  0.00    +0.000 C 
ATOM     13  H   UNL     1     -15.388  43.736 -11.780  0.00  0.00    +0.000 HD
ATOM     14  H   UNL     1     -15.345  45.444 -12.048  0.00  0.00    +0.000 HD
BRANCH  10  16
ATOM     15  O   UNL     1     -16.255  47.112 -13.480  0.00  0.00    +0.000 OA
ATOM     16  C   UNL     1     -17.287  46.863 -12.864  0.00  0.00    +0.000 C 
BRANCH  16  18
ATOM     17  N   UNL     1     -18.761  50.254 -12.121  0.00  0.00    +0.000 NA
ATOM     18  C   UNL     1     -17.988  47.963 -12.144  0.00  0.00    +0.000 A 
ATOM     19  C   UNL     1     -18.518  47.764 -10.873  0.00  0.00    +0.000 A 
ATOM     20  C   UNL     1     -18.135  49.215 -12.718  0.00  0.00    +0.000 A 
ATOM     21  C   UNL     1     -19.168  48.809 -10.225  0.00  0.00    +0.000 A 
ATOM     22  C   UNL     1     -19.262  50.023 -10.886  0.00  0.00    +0.000 A 
ENDBRANCH  16  18
ENDBRANCH  10  16
ENDBRANCH   5  12
BRANCH   7  23
ATOM     23  N   UNL     1     -18.557  43.530 -14.740  0.00  0.00    +0.000 N 
ATOM     24  H   UNL     1     -17.679  43.938 -15.037  0.00  0.00    +0.000 HD
ATOM     25  H   UNL     1     -19.410  44.019 -14.986  0.00  0.00    +0.000 HD
ENDBRANCH   7  23
BRANCH   3  26
ATOM     26  C   UNL     1     -18.669  40.501  -9.970  0.00  0.00    +0.000 C 
BRANCH  26  27
ATOM     27  N   UNL     1     -19.788  40.880  -9.109  0.00  0.00    +0.000 NA
ATOM     28  C   UNL     1     -20.625  39.717  -8.816  0.00  0.00    +0.000 C 
ATOM     29  C   UNL     1     -19.296  41.481  -7.870  0.00  0.00    +0.000 C 
ENDBRANCH  26  27
ENDBRANCH   3  26
TORSDOF 6
ENDMDL
