MODEL 1
REMARK VINA RESULT:    -5.583      0.000      0.000
REMARK INTER + INTRA:          -5.922
REMARK INTER:                  -5.910
REMARK INTRA:                  -0.012
REMARK UNBOUND:                -0.012
REMARK  Name = 144327989
REMARK  5 active torsions:
REMARK  status: ('A' for Active; 'I' for Inactive)
REMARK    1  A    between atoms: N_2  and  C_12
REMARK    2  A    between atoms: N_2  and  C_13
REMARK    3  A    between atoms: N_5  and  C_16
REMARK    4  A    between atoms: C_6  and  C_7
REMARK    5  A    between atoms: C_14  and  C_15
REMARK                            x       y       z     vdW  Elec       q    Type
REMARK                         _______ _______ _______ _____ _____    ______ ____
ROOT
ATOM      1  N   UNL     1     -18.529  43.163 -13.189  0.00  0.00    +0.000 N 
ATOM      2  N   UNL     1     -19.793  42.654 -15.139  0.00  0.00    +0.000 NA
ATOM      3  N   UNL     1     -19.252  40.904 -12.953  0.00  0.00    +0.000 NA
ATOM      4  C   UNL     1     -20.074  44.344 -16.844  0.00  0.00    +0.000 A 
ATOM      5  C   UNL     1     -19.063  43.550 -14.437  0.00  0.00    +0.000 A 
ATOM      6  C   UNL     1     -19.319  45.238 -16.093  0.00  0.00    +0.000 A 
ATOM      7  C   UNL     1     -18.800  44.841 -14.866  0.00  0.00    +0.000 A 
ATOM      8  C   UNL     1     -20.281  43.075 -16.327  0.00  0.00    +0.000 A 
ATOM      9  C   UNL     1     -18.630  41.952 -12.518  0.00  0.00    +0.000 C 
ATOM     10  C   UNL     1     -17.905  41.928 -11.176  0.00  0.00    +0.000 C 
ATOM     11  C   UNL     1     -19.276  39.686 -12.159  0.00  0.00    +0.000 C 
ATOM     12  H   UNL     1     -17.999  43.903 -12.735  0.00  0.00    +0.000 HD
ENDROOT
BRANCH   4  15
ATOM     13  O   UNL     1     -21.777  45.200 -18.130  0.00  0.00    +0.000 OA
ATOM     14  N   UNL     1     -19.850  44.562 -19.289  0.00  0.00    +0.000 N 
ATOM     15  C   UNL     1     -20.630  44.728 -18.129  0.00  0.00    +0.000 C 
ATOM     16  C   UNL     1     -18.500  44.002 -19.245  0.00  0.00    +0.000 C 
ATOM     17  C   UNL     1     -20.332  44.939 -20.610  0.00  0.00    +0.000 C 
ENDBRANCH   4  15
TORSDOF 1
ENDMDL
MODEL 2
REMARK VINA RESULT:    -5.429      4.314      7.213
REMARK INTER + INTRA:          -5.759
REMARK INTER:                  -5.758
REMARK INTRA:                  -0.001
REMARK UNBOUND:                -0.012
REMARK  Name = 144327989
REMARK  5 active torsions:
REMARK  status: ('A' for Active; 'I' for Inactive)
REMARK    1  A    between atoms: N_2  and  C_12
REMARK    2  A    between atoms: N_2  and  C_13
REMARK    3  A    between atoms: N_5  and  C_16
REMARK    4  A    between atoms: C_6  and  C_7
REMARK    5  A    between atoms: C_14  and  C_15
REMARK                            x       y       z     vdW  Elec       q    Type
REMARK                         _______ _______ _______ _____ _____    ______ ____
ROOT
ATOM      1  N   UNL     1     -15.637  45.149 -14.466  0.00  0.00    +0.000 N 
ATOM      2  N   UNL     1     -17.537  44.680 -13.114  0.00  0.00    +0.000 NA
ATOM      3  N   UNL     1     -17.365  46.616 -15.201  0.00  0.00    +0.000 NA
ATOM      4  C   UNL     1     -17.383  42.983 -11.400  0.00  0.00    +0.000 A 
ATOM      5  C   UNL     1     -16.247  44.419 -13.423  0.00  0.00    +0.000 A 
ATOM      6  C   UNL     1     -16.058  42.741 -11.747  0.00  0.00    +0.000 A 
ATOM      7  C   UNL     1     -15.472  43.470 -12.776  0.00  0.00    +0.000 A 
ATOM      8  C   UNL     1     -18.073  43.954 -12.108  0.00  0.00    +0.000 A 
ATOM      9  C   UNL     1     -16.163  46.145 -15.277  0.00  0.00    +0.000 C 
ATOM     10  C   UNL     1     -15.173  46.694 -16.300  0.00  0.00    +0.000 C 
ATOM     11  C   UNL     1     -17.795  47.673 -16.102  0.00  0.00    +0.000 C 
ATOM     12  H   UNL     1     -14.669  44.881 -14.627  0.00  0.00    +0.000 HD
ENDROOT
BRANCH   4  15
ATOM     13  O   UNL     1     -17.867  42.663  -9.176  0.00  0.00    +0.000 OA
ATOM     14  N   UNL     1     -18.788  41.101 -10.650  0.00  0.00    +0.000 N 
ATOM     15  C   UNL     1     -18.024  42.239 -10.330  0.00  0.00    +0.000 C 
ATOM     16  C   UNL     1     -18.948  40.633 -12.026  0.00  0.00    +0.000 C 
ATOM     17  C   UNL     1     -19.473  40.315  -9.634  0.00  0.00    +0.000 C 
ENDBRANCH   4  15
TORSDOF 1
ENDMDL
MODEL 3
REMARK VINA RESULT:    -5.120      2.988      3.767
REMARK INTER + INTRA:          -5.432
REMARK INTER:                  -5.434
REMARK INTRA:                   0.002
REMARK UNBOUND:                -0.012
REMARK  Name = 144327989
REMARK  5 active torsions:
REMARK  status: ('A' for Active; 'I' for Inactive)
REMARK    1  A    between atoms: N_2  and  C_12
REMARK    2  A    between atoms: N_2  and  C_13
REMARK    3  A    between atoms: N_5  and  C_16
REMARK    4  A    between atoms: C_6  and  C_7
REMARK    5  A    between atoms: C_14  and  C_15
REMARK                            x       y       z     vdW  Elec       q    Type
REMARK                         _______ _______ _______ _____ _____    ______ ____
ROOT
ATOM      1  N   UNL     1     -16.414  41.850 -12.490  0.00  0.00    +0.000 N 
ATOM      2  N   UNL     1     -18.251  43.303 -12.907  0.00  0.00    +0.000 NA
ATOM      3  N   UNL     1     -18.384  40.605 -11.994  0.00  0.00    +0.000 NA
ATOM      4  C   UNL     1     -17.831  45.549 -13.694  0.00  0.00    +0.000 A 
ATOM      5  C   UNL     1     -16.914  43.106 -12.898  0.00  0.00    +0.000 A 
ATOM      6  C   UNL     1     -16.462  45.310 -13.672  0.00  0.00    +0.000 A 
ATOM      7  C   UNL     1     -15.986  44.067 -13.268  0.00  0.00    +0.000 A 
ATOM      8  C   UNL     1     -18.676  44.522 -13.306  0.00  0.00    +0.000 A 
ATOM      9  C   UNL     1     -17.097  40.718 -12.071  0.00  0.00    +0.000 C 
ATOM     10  C   UNL     1     -16.189  39.547 -11.710  0.00  0.00    +0.000 C 
ATOM     11  C   UNL     1     -18.983  39.357 -11.550  0.00  0.00    +0.000 C 
ATOM     12  H   UNL     1     -15.399  41.799 -12.514  0.00  0.00    +0.000 HD
ENDROOT
BRANCH   4  15
ATOM     13  O   UNL     1     -18.413  47.729 -13.253  0.00  0.00    +0.000 OA
ATOM     14  N   UNL     1     -18.764  47.009 -15.448  0.00  0.00    +0.000 N 
ATOM     15  C   UNL     1     -18.359  46.837 -14.111  0.00  0.00    +0.000 C 
ATOM     16  C   UNL     1     -18.685  45.929 -16.431  0.00  0.00    +0.000 C 
ATOM     17  C   UNL     1     -19.289  48.273 -15.944  0.00  0.00    +0.000 C 
ENDBRANCH   4  15
TORSDOF 1
ENDMDL
MODEL 4
REMARK VINA RESULT:    -5.073      3.036      3.906
REMARK INTER + INTRA:          -5.382
REMARK INTER:                  -5.369
REMARK INTRA:                  -0.014
REMARK UNBOUND:                -0.012
REMARK  Name = 144327989
REMARK  5 active torsions:
REMARK  status: ('A' for Active; 'I' for Inactive)
REMARK    1  A    between atoms: N_2  and  C_12
REMARK    2  A    between atoms: N_2  and  C_13
REMARK    3  A    between atoms: N_5  and  C_16
REMARK    4  A    between atoms: C_6  and  C_7
REMARK    5  A    between atoms: C_14  and  C_15
REMARK                            x       y       z     vdW  Elec       q    Type
REMARK                         _______ _______ _______ _____ _____    ______ ____
ROOT
ATOM      1  N   UNL     1     -19.241  41.508 -13.230  0.00  0.00    +0.000 N 
ATOM      2  N   UNL     1     -18.326  43.608 -12.587  0.00  0.00    +0.000 NA
ATOM      3  N   UNL     1     -18.436  41.239 -11.003  0.00  0.00    +0.000 NA
ATOM      4  C   UNL     1     -18.385  45.454 -14.145  0.00  0.00    +0.000 A 
ATOM      5  C   UNL     1     -18.942  42.855 -13.526  0.00  0.00    +0.000 A 
ATOM      6  C   UNL     1     -19.018  44.650 -15.087  0.00  0.00    +0.000 A 
ATOM      7  C   UNL     1     -19.306  43.325 -14.779  0.00  0.00    +0.000 A 
ATOM      8  C   UNL     1     -18.063  44.890 -12.921  0.00  0.00    +0.000 A 
ATOM      9  C   UNL     1     -18.996  40.779 -12.075  0.00  0.00    +0.000 C 
ATOM     10  C   UNL     1     -19.475  39.332 -12.145  0.00  0.00    +0.000 C 
ATOM     11  C   UNL     1     -18.246  40.375  -9.849  0.00  0.00    +0.000 C 
ATOM     12  H   UNL     1     -19.700  41.023 -13.997  0.00  0.00    +0.000 HD
ENDROOT
BRANCH   4  15
ATOM     13  O   UNL     1     -18.925  47.689 -14.135  0.00  0.00    +0.000 OA
ATOM     14  N   UNL     1     -16.830  47.153 -15.023  0.00  0.00    +0.000 N 
ATOM     15  C   UNL     1     -18.072  46.842 -14.436  0.00  0.00    +0.000 C 
ATOM     16  C   UNL     1     -15.850  46.124 -15.363  0.00  0.00    +0.000 C 
ATOM     17  C   UNL     1     -16.438  48.522 -15.330  0.00  0.00    +0.000 C 
ENDBRANCH   4  15
TORSDOF 1
ENDMDL
MODEL 5
REMARK VINA RESULT:    -5.025      1.443      2.271
REMARK INTER + INTRA:          -5.331
REMARK INTER:                  -5.322
REMARK INTRA:                  -0.009
REMARK UNBOUND:                -0.012
REMARK  Name = 144327989
REMARK  5 active torsions:
REMARK  status: ('A' for Active; 'I' for Inactive)
REMARK    1  A    between atoms: N_2  and  C_12
REMARK    2  A    between atoms: N_2  and  C_13
REMARK    3  A    between atoms: N_5  and  C_16
REMARK    4  A    between atoms: C_6  and  C_7
REMARK    5  A    between atoms: C_14  and  C_15
REMARK                            x       y       z     vdW  Elec       q    Type
REMARK                         _______ _______ _______ _____ _____    ______ ____
ROOT
ATOM      1  N   UNL     1     -19.722  42.327 -14.347  0.00  0.00    +0.000 N 
ATOM      2  N   UNL     1     -19.278  44.344 -15.528  0.00  0.00    +0.000 NA
ATOM      3  N   UNL     1     -17.629  43.132 -13.541  0.00  0.00    +0.000 NA
ATOM      4  C   UNL     1     -20.875  45.141 -17.157  0.00  0.00    +0.000 A 
ATOM      5  C   UNL     1     -20.101  43.295 -15.302  0.00  0.00    +0.000 A 
ATOM      6  C   UNL     1     -21.696  44.049 -16.899  0.00  0.00    +0.000 A 
ATOM      7  C   UNL     1     -21.309  43.104 -15.955  0.00  0.00    +0.000 A 
ATOM      8  C   UNL     1     -19.687  45.242 -16.451  0.00  0.00    +0.000 A 
ATOM      9  C   UNL     1     -18.585  42.260 -13.556  0.00  0.00    +0.000 C 
ATOM     10  C   UNL     1     -18.542  41.042 -12.638  0.00  0.00    +0.000 C 
ATOM     11  C   UNL     1     -16.491  42.956 -12.654  0.00  0.00    +0.000 C 
ATOM     12  H   UNL     1     -20.402  41.577 -14.250  0.00  0.00    +0.000 HD
ENDROOT
BRANCH   4  15
ATOM     13  O   UNL     1     -21.851  47.146 -17.718  0.00  0.00    +0.000 OA
ATOM     14  N   UNL     1     -20.911  45.943 -19.488  0.00  0.00    +0.000 N 
ATOM     15  C   UNL     1     -21.251  46.145 -18.137  0.00  0.00    +0.000 C 
ATOM     16  C   UNL     1     -20.203  44.747 -19.942  0.00  0.00    +0.000 C 
ATOM     17  C   UNL     1     -21.240  46.911 -20.524  0.00  0.00    +0.000 C 
ENDBRANCH   4  15
TORSDOF 1
ENDMDL
