MODEL 1
REMARK VINA RESULT:    -5.774      0.000      0.000
REMARK INTER + INTRA:          -8.136
REMARK INTER:                  -7.630
REMARK INTRA:                  -0.506
REMARK UNBOUND:                -0.506
REMARK  Name = 144404811
REMARK  6 active torsions:
REMARK  status: ('A' for Active; 'I' for Inactive)
REMARK    1  A    between atoms: O_2  and  C_12
REMARK    2  A    between atoms: N_4  and  C_7
REMARK    3  A    between atoms: N_6  and  C_15
REMARK    4  A    between atoms: C_7  and  C_8
REMARK    5  A    between atoms: C_8  and  C_12
REMARK    6  A    between atoms: C_9  and  C_10
REMARK                            x       y       z     vdW  Elec       q    Type
REMARK                         _______ _______ _______ _____ _____    ______ ____
ROOT
ATOM      1  O   UNL     1     -19.592  39.666 -11.416  0.00  0.00    +0.000 OA
ATOM      2  N   UNL     1     -19.591  40.959  -9.489  0.00  0.00    +0.000 N 
ATOM      3  C   UNL     1     -19.193  40.639 -10.782  0.00  0.00    +0.000 C 
ATOM      4  H   UNL     1     -19.175  41.746  -9.002  0.00  0.00    +0.000 HD
ENDROOT
BRANCH   3   6
ATOM      5  N   UNL     1     -16.911  42.185 -13.348  0.00  0.00    +0.000 NA
ATOM      6  C   UNL     1     -18.196  41.549 -11.402  0.00  0.00    +0.000 A 
ATOM      7  C   UNL     1     -17.619  42.585 -10.673  0.00  0.00    +0.000 A 
ATOM      8  C   UNL     1     -17.810  41.393 -12.724  0.00  0.00    +0.000 A 
ATOM      9  C   UNL     1     -16.689  43.421 -11.282  0.00  0.00    +0.000 A 
ATOM     10  C   UNL     1     -16.371  43.181 -12.609  0.00  0.00    +0.000 A 
BRANCH  10  11
ATOM     11  N   UNL     1     -15.443  43.995 -13.264  0.00  0.00    +0.000 NA
ATOM     12  C   UNL     1     -15.921  45.048 -13.842  0.00  0.00    +0.000 C 
ENDBRANCH  10  11
ENDBRANCH   3   6
BRANCH   2  13
ATOM     13  C   UNL     1     -20.530  40.162  -8.747  0.00  0.00    +0.000 C 
BRANCH  13  14
ATOM     14  C   UNL     1     -21.452  41.017  -7.886  0.00  0.00    +0.000 C 
BRANCH  14  16
ATOM     15  O   UNL     1     -19.511  42.160  -6.956  0.00  0.00    +0.000 OA
ATOM     16  C   UNL     1     -20.719  42.112  -7.144  0.00  0.00    +0.000 C 
BRANCH  16  17
ATOM     17  O   UNL     1     -21.576  43.069  -6.701  0.00  0.00    +0.000 OA
ATOM     18  H   UNL     1     -22.413  42.682  -6.367  0.00  0.00    +0.000 HD
ENDBRANCH  16  17
ENDBRANCH  14  16
ENDBRANCH  13  14
ENDBRANCH   2  13
TORSDOF 6
ENDMDL
MODEL 2
REMARK VINA RESULT:    -5.762      4.173      6.564
REMARK INTER + INTRA:          -8.121
REMARK INTER:                  -7.628
REMARK INTRA:                  -0.493
REMARK UNBOUND:                -0.506
REMARK  Name = 144404811
REMARK  6 active torsions:
REMARK  status: ('A' for Active; 'I' for Inactive)
REMARK    1  A    between atoms: O_2  and  C_12
REMARK    2  A    between atoms: N_4  and  C_7
REMARK    3  A    between atoms: N_6  and  C_15
REMARK    4  A    between atoms: C_7  and  C_8
REMARK    5  A    between atoms: C_8  and  C_12
REMARK    6  A    between atoms: C_9  and  C_10
REMARK                            x       y       z     vdW  Elec       q    Type
REMARK                         _______ _______ _______ _____ _____    ______ ____
ROOT
ATOM      1  O   UNL     1     -18.453  44.538 -14.285  0.00  0.00    +0.000 OA
ATOM      2  N   UNL     1     -19.575  42.739 -15.228  0.00  0.00    +0.000 N 
ATOM      3  C   UNL     1     -18.923  43.407 -14.198  0.00  0.00    +0.000 C 
ATOM      4  H   UNL     1     -19.886  41.782 -15.105  0.00  0.00    +0.000 HD
ENDROOT
BRANCH   3   6
ATOM      5  N   UNL     1     -19.407  40.763 -11.560  0.00  0.00    +0.000 NA
ATOM      6  C   UNL     1     -18.781  42.660 -12.922  0.00  0.00    +0.000 A 
ATOM      7  C   UNL     1     -17.934  43.112 -11.916  0.00  0.00    +0.000 A 
ATOM      8  C   UNL     1     -19.490  41.490 -12.696  0.00  0.00    +0.000 A 
ATOM      9  C   UNL     1     -17.822  42.390 -10.733  0.00  0.00    +0.000 A 
ATOM     10  C   UNL     1     -18.573  41.232 -10.605  0.00  0.00    +0.000 A 
BRANCH  10  11
ATOM     11  N   UNL     1     -18.494  40.471  -9.435  0.00  0.00    +0.000 NA
ATOM     12  C   UNL     1     -19.591  40.349  -8.763  0.00  0.00    +0.000 C 
ENDBRANCH  10  11
ENDBRANCH   3   6
BRANCH   2  13
ATOM     13  C   UNL     1     -19.769  43.321 -16.529  0.00  0.00    +0.000 C 
BRANCH  13  14
ATOM     14  C   UNL     1     -21.103  42.916 -17.144  0.00  0.00    +0.000 C 
BRANCH  14  16
ATOM     15  O   UNL     1     -22.723  44.689 -17.558  0.00  0.00    +0.000 OA
ATOM     16  C   UNL     1     -22.226  43.869 -16.798  0.00  0.00    +0.000 C 
BRANCH  16  17
ATOM     17  O   UNL     1     -22.637  43.703 -15.514  0.00  0.00    +0.000 OA
ATOM     18  H   UNL     1     -23.386  43.072 -15.449  0.00  0.00    +0.000 HD
ENDBRANCH  16  17
ENDBRANCH  14  16
ENDBRANCH  13  14
ENDBRANCH   2  13
TORSDOF 6
ENDMDL
MODEL 3
REMARK VINA RESULT:    -5.348      3.497      5.039
REMARK INTER + INTRA:          -7.574
REMARK INTER:                  -6.824
REMARK INTRA:                  -0.750
REMARK UNBOUND:                -0.506
REMARK  Name = 144404811
REMARK  6 active torsions:
REMARK  status: ('A' for Active; 'I' for Inactive)
REMARK    1  A    between atoms: O_2  and  C_12
REMARK    2  A    between atoms: N_4  and  C_7
REMARK    3  A    between atoms: N_6  and  C_15
REMARK    4  A    between atoms: C_7  and  C_8
REMARK    5  A    between atoms: C_8  and  C_12
REMARK    6  A    between atoms: C_9  and  C_10
REMARK                            x       y       z     vdW  Elec       q    Type
REMARK                         _______ _______ _______ _____ _____    ______ ____
ROOT
ATOM      1  O   UNL     1     -17.147  44.164 -12.025  0.00  0.00    +0.000 OA
ATOM      2  N   UNL     1     -18.447  42.265 -11.733  0.00  0.00    +0.000 N 
ATOM      3  C   UNL     1     -18.004  43.383 -12.430  0.00  0.00    +0.000 C 
ATOM      4  H   UNL     1     -19.202  41.695 -12.100  0.00  0.00    +0.000 HD
ENDROOT
BRANCH   3   6
ATOM      5  N   UNL     1     -20.059  42.830 -15.536  0.00  0.00    +0.000 NA
ATOM      6  C   UNL     1     -18.651  43.632 -13.743  0.00  0.00    +0.000 A 
ATOM      7  C   UNL     1     -18.482  44.843 -14.408  0.00  0.00    +0.000 A 
ATOM      8  C   UNL     1     -19.442  42.667 -14.345  0.00  0.00    +0.000 A 
ATOM      9  C   UNL     1     -19.102  45.047 -15.636  0.00  0.00    +0.000 A 
ATOM     10  C   UNL     1     -19.873  44.018 -16.153  0.00  0.00    +0.000 A 
BRANCH  10  11
ATOM     11  N   UNL     1     -20.517  44.177 -17.384  0.00  0.00    +0.000 NA
ATOM     12  C   UNL     1     -21.232  43.176 -17.782  0.00  0.00    +0.000 C 
ENDBRANCH  10  11
ENDBRANCH   3   6
BRANCH   2  13
ATOM     13  C   UNL     1     -17.935  41.904 -10.438  0.00  0.00    +0.000 C 
BRANCH  13  14
ATOM     14  C   UNL     1     -17.307  40.516 -10.438  0.00  0.00    +0.000 C 
BRANCH  14  16
ATOM     15  O   UNL     1     -17.041  39.723 -12.727  0.00  0.00    +0.000 OA
ATOM     16  C   UNL     1     -17.656  39.709 -11.670  0.00  0.00    +0.000 C 
BRANCH  16  17
ATOM     17  O   UNL     1     -18.757  38.941 -11.462  0.00  0.00    +0.000 OA
ATOM     18  H   UNL     1     -18.913  38.318 -12.204  0.00  0.00    +0.000 HD
ENDBRANCH  16  17
ENDBRANCH  14  16
ENDBRANCH  13  14
ENDBRANCH   2  13
TORSDOF 6
ENDMDL
MODEL 4
REMARK VINA RESULT:    -5.307      1.827      2.492
REMARK INTER + INTRA:          -7.519
REMARK INTER:                  -6.849
REMARK INTRA:                  -0.670
REMARK UNBOUND:                -0.506
REMARK  Name = 144404811
REMARK  6 active torsions:
REMARK  status: ('A' for Active; 'I' for Inactive)
REMARK    1  A    between atoms: O_2  and  C_12
REMARK    2  A    between atoms: N_4  and  C_7
REMARK    3  A    between atoms: N_6  and  C_15
REMARK    4  A    between atoms: C_7  and  C_8
REMARK    5  A    between atoms: C_8  and  C_12
REMARK    6  A    between atoms: C_9  and  C_10
REMARK                            x       y       z     vdW  Elec       q    Type
REMARK                         _______ _______ _______ _____ _____    ______ ____
ROOT
ATOM      1  O   UNL     1     -19.197  40.897 -11.442  0.00  0.00    +0.000 OA
ATOM      2  N   UNL     1     -18.087  41.845  -9.638  0.00  0.00    +0.000 N 
ATOM      3  C   UNL     1     -18.529  41.805 -10.956  0.00  0.00    +0.000 C 
ATOM      4  H   UNL     1     -17.487  42.598  -9.319  0.00  0.00    +0.000 HD
ENDROOT
BRANCH   3   6
ATOM      5  N   UNL     1     -16.763  44.922 -12.117  0.00  0.00    +0.000 NA
ATOM      6  C   UNL     1     -18.125  42.948 -11.814  0.00  0.00    +0.000 A 
ATOM      7  C   UNL     1     -18.688  43.135 -13.073  0.00  0.00    +0.000 A 
ATOM      8  C   UNL     1     -17.175  43.863 -11.387  0.00  0.00    +0.000 A 
ATOM      9  C   UNL     1     -18.289  44.214 -13.853  0.00  0.00    +0.000 A 
ATOM     10  C   UNL     1     -17.332  45.071 -13.335  0.00  0.00    +0.000 A 
BRANCH  10  11
ATOM     11  N   UNL     1     -16.897  46.170 -14.082  0.00  0.00    +0.000 NA
ATOM     12  C   UNL     1     -15.939  45.942 -14.921  0.00  0.00    +0.000 C 
ENDBRANCH  10  11
ENDBRANCH   3   6
BRANCH   2  13
ATOM     13  C   UNL     1     -18.376  40.802  -8.691  0.00  0.00    +0.000 C 
BRANCH  13  14
ATOM     14  C   UNL     1     -19.601  41.121  -7.843  0.00  0.00    +0.000 C 
BRANCH  14  16
ATOM     15  O   UNL     1     -22.011  40.824  -8.052  0.00  0.00    +0.000 OA
ATOM     16  C   UNL     1     -20.877  40.532  -8.405  0.00  0.00    +0.000 C 
BRANCH  16  17
ATOM     17  O   UNL     1     -20.614  39.620  -9.377  0.00  0.00    +0.000 OA
ATOM     18  H   UNL     1     -19.656  39.418  -9.438  0.00  0.00    +0.000 HD
ENDBRANCH  16  17
ENDBRANCH  14  16
ENDBRANCH  13  14
ENDBRANCH   2  13
TORSDOF 6
ENDMDL
MODEL 5
REMARK VINA RESULT:    -5.086      4.415      6.301
REMARK INTER + INTRA:          -7.227
REMARK INTER:                  -6.551
REMARK INTRA:                  -0.676
REMARK UNBOUND:                -0.506
REMARK  Name = 144404811
REMARK  6 active torsions:
REMARK  status: ('A' for Active; 'I' for Inactive)
REMARK    1  A    between atoms: O_2  and  C_12
REMARK    2  A    between atoms: N_4  and  C_7
REMARK    3  A    between atoms: N_6  and  C_15
REMARK    4  A    between atoms: C_7  and  C_8
REMARK    5  A    between atoms: C_8  and  C_12
REMARK    6  A    between atoms: C_9  and  C_10
REMARK                            x       y       z     vdW  Elec       q    Type
REMARK                         _______ _______ _______ _____ _____    ______ ____
ROOT
ATOM      1  O   UNL     1     -18.707  44.890 -13.072  0.00  0.00    +0.000 OA
ATOM      2  N   UNL     1     -17.833  42.814 -13.630  0.00  0.00    +0.000 N 
ATOM      3  C   UNL     1     -18.581  43.962 -13.866  0.00  0.00    +0.000 C 
ATOM      4  H   UNL     1     -17.821  42.059 -14.307  0.00  0.00    +0.000 HD
ENDROOT
BRANCH   3   6
ATOM      5  N   UNL     1     -19.639  45.165 -17.274  0.00  0.00    +0.000 NA
ATOM      6  C   UNL     1     -19.285  44.024 -15.173  0.00  0.00    +0.000 A 
ATOM      7  C   UNL     1     -20.217  43.056 -15.533  0.00  0.00    +0.000 A 
ATOM      8  C   UNL     1     -19.035  45.049 -16.071  0.00  0.00    +0.000 A 
ATOM      9  C   UNL     1     -20.859  43.142 -16.763  0.00  0.00    +0.000 A 
ATOM     10  C   UNL     1     -20.538  44.206 -17.590  0.00  0.00    +0.000 A 
BRANCH  10  11
ATOM     11  N   UNL     1     -21.156  44.334 -18.838  0.00  0.00    +0.000 NA
ATOM     12  C   UNL     1     -20.949  45.448 -19.461  0.00  0.00    +0.000 C 
ENDBRANCH  10  11
ENDBRANCH   3   6
BRANCH   2  13
ATOM     13  C   UNL     1     -17.115  42.596 -12.403  0.00  0.00    +0.000 C 
BRANCH  13  14
ATOM     14  C   UNL     1     -17.342  41.195 -11.849  0.00  0.00    +0.000 C 
BRANCH  14  16
ATOM     15  O   UNL     1     -18.805  39.780 -13.190  0.00  0.00    +0.000 OA
ATOM     16  C   UNL     1     -17.682  40.183 -12.922  0.00  0.00    +0.000 C 
BRANCH  16  17
ATOM     17  O   UNL     1     -16.567  39.766 -13.578  0.00  0.00    +0.000 OA
ATOM     18  H   UNL     1     -15.747  40.070 -13.134  0.00  0.00    +0.000 HD
ENDBRANCH  16  17
ENDBRANCH  14  16
ENDBRANCH  13  14
ENDBRANCH   2  13
TORSDOF 6
ENDMDL
