MODEL 1
REMARK VINA RESULT:    -7.718      0.000      0.000
REMARK INTER + INTRA:          -9.780
REMARK INTER:                  -9.072
REMARK INTRA:                  -0.709
REMARK UNBOUND:                -0.709
REMARK  Name = 144625229
REMARK  4 active torsions:
REMARK  status: ('A' for Active; 'I' for Inactive)
REMARK    1  A    between atoms: N_2  and  C_9
REMARK    2  A    between atoms: N_2  and  C_12
REMARK    3  A    between atoms: C_8  and  C_13
REMARK    4  A    between atoms: C_14  and  C_18
REMARK                            x       y       z     vdW  Elec       q    Type
REMARK                         _______ _______ _______ _____ _____    ______ ____
ROOT
ATOM      1  N   UNL     1     -17.045  43.565 -13.073  0.00  0.00    +0.000 NA
ATOM      2  N   UNL     1     -17.728  45.630 -12.098  0.00  0.00    +0.000 N 
ATOM      3  C   UNL     1     -17.506  42.281 -10.634  0.00  0.00    +0.000 A 
ATOM      4  C   UNL     1     -17.048  41.557 -11.728  0.00  0.00    +0.000 A 
ATOM      5  C   UNL     1     -17.733  43.647 -10.757  0.00  0.00    +0.000 A 
ATOM      6  C   UNL     1     -17.490  44.237 -11.987  0.00  0.00    +0.000 A 
ATOM      7  C   UNL     1     -16.836  42.240 -12.915  0.00  0.00    +0.000 A 
ATOM      8  H   UNL     1     -18.429  46.048 -11.498  0.00  0.00    +0.000 HD
ATOM      9  H   UNL     1     -17.554  46.055 -13.000  0.00  0.00    +0.000 HD
ENDROOT
BRANCH   4  12
ATOM     10  O   UNL     1     -17.726  39.307 -11.569  0.00  0.00    +0.000 OA
ATOM     11  N   UNL     1     -15.473  39.698 -11.725  0.00  0.00    +0.000 N 
ATOM     12  C   UNL     1     -16.795  40.125 -11.662  0.00  0.00    +0.000 C 
ATOM     13  H   UNL     1     -14.699  40.350 -11.808  0.00  0.00    +0.000 HD
ATOM     14  H   UNL     1     -15.240  38.712 -11.688  0.00  0.00    +0.000 HD
ENDBRANCH   4  12
BRANCH   3  15
ATOM     15  N   UNL     1     -17.741  41.657  -9.405  0.00  0.00    +0.000 N 
ATOM     16  H   UNL     1     -16.920  41.488  -8.834  0.00  0.00    +0.000 HD
BRANCH  15  20
ATOM     17  C   UNL     1     -21.591  40.977  -7.665  0.00  0.00    +0.000 C 
ATOM     18  C   UNL     1     -21.092  40.029  -8.765  0.00  0.00    +0.000 C 
ATOM     19  C   UNL     1     -20.515  41.817  -7.023  0.00  0.00    +0.000 C 
ATOM     20  C   UNL     1     -18.941  41.318  -8.843  0.00  0.00    +0.000 C 
ATOM     21  C   UNL     1     -19.781  40.417  -9.383  0.00  0.00    +0.000 C 
ATOM     22  C   UNL     1     -19.302  41.953  -7.585  0.00  0.00    +0.000 C 
ATOM     23  C   UNL     1     -20.883  42.506  -5.742  0.00  0.00    +0.000 C 
ENDBRANCH  15  20
ENDBRANCH   3  15
TORSDOF 3
ENDMDL
MODEL 2
REMARK VINA RESULT:    -7.377      1.977      5.226
REMARK INTER + INTRA:          -9.379
REMARK INTER:                  -8.631
REMARK INTRA:                  -0.748
REMARK UNBOUND:                -0.709
REMARK  Name = 144625229
REMARK  4 active torsions:
REMARK  status: ('A' for Active; 'I' for Inactive)
REMARK    1  A    between atoms: N_2  and  C_9
REMARK    2  A    between atoms: N_2  and  C_12
REMARK    3  A    between atoms: C_8  and  C_13
REMARK    4  A    between atoms: C_14  and  C_18
REMARK                            x       y       z     vdW  Elec       q    Type
REMARK                         _______ _______ _______ _____ _____    ______ ____
ROOT
ATOM      1  N   UNL     1     -20.646  40.855  -8.289  0.00  0.00    +0.000 NA
ATOM      2  N   UNL     1     -19.997  42.431  -6.624  0.00  0.00    +0.000 N 
ATOM      3  C   UNL     1     -18.247  41.325  -9.643  0.00  0.00    +0.000 A 
ATOM      4  C   UNL     1     -19.167  40.414 -10.149  0.00  0.00    +0.000 A 
ATOM      5  C   UNL     1     -18.525  42.003  -8.462  0.00  0.00    +0.000 A 
ATOM      6  C   UNL     1     -19.728  41.734  -7.828  0.00  0.00    +0.000 A 
ATOM      7  C   UNL     1     -20.340  40.216  -9.440  0.00  0.00    +0.000 A 
ATOM      8  H   UNL     1     -19.214  42.730  -6.055  0.00  0.00    +0.000 HD
ATOM      9  H   UNL     1     -20.875  42.228  -6.161  0.00  0.00    +0.000 HD
ENDROOT
BRANCH   4  12
ATOM     10  O   UNL     1     -17.877  39.039 -11.560  0.00  0.00    +0.000 OA
ATOM     11  N   UNL     1     -19.934  39.681 -12.342  0.00  0.00    +0.000 N 
ATOM     12  C   UNL     1     -18.931  39.672 -11.379  0.00  0.00    +0.000 C 
ATOM     13  H   UNL     1     -20.805  40.186 -12.210  0.00  0.00    +0.000 HD
ATOM     14  H   UNL     1     -19.824  39.177 -13.215  0.00  0.00    +0.000 HD
ENDBRANCH   4  12
BRANCH   3  15
ATOM     15  N   UNL     1     -17.041  41.575 -10.306  0.00  0.00    +0.000 N 
ATOM     16  H   UNL     1     -16.374  40.811 -10.305  0.00  0.00    +0.000 HD
BRANCH  15  20
ATOM     17  C   UNL     1     -16.087  45.258 -12.262  0.00  0.00    +0.000 C 
ATOM     18  C   UNL     1     -15.004  44.176 -12.142  0.00  0.00    +0.000 C 
ATOM     19  C   UNL     1     -17.495  44.768 -12.036  0.00  0.00    +0.000 C 
ATOM     20  C   UNL     1     -16.681  42.683 -11.021  0.00  0.00    +0.000 C 
ATOM     21  C   UNL     1     -15.407  42.970 -11.346  0.00  0.00    +0.000 C 
ATOM     22  C   UNL     1     -17.739  43.576 -11.466  0.00  0.00    +0.000 C 
ATOM     23  C   UNL     1     -18.599  45.692 -12.459  0.00  0.00    +0.000 C 
ENDBRANCH  15  20
ENDBRANCH   3  15
TORSDOF 3
ENDMDL
MODEL 3
REMARK VINA RESULT:    -7.184      1.640      2.231
REMARK INTER + INTRA:          -9.153
REMARK INTER:                  -8.317
REMARK INTRA:                  -0.836
REMARK UNBOUND:                -0.709
REMARK  Name = 144625229
REMARK  4 active torsions:
REMARK  status: ('A' for Active; 'I' for Inactive)
REMARK    1  A    between atoms: N_2  and  C_9
REMARK    2  A    between atoms: N_2  and  C_12
REMARK    3  A    between atoms: C_8  and  C_13
REMARK    4  A    between atoms: C_14  and  C_18
REMARK                            x       y       z     vdW  Elec       q    Type
REMARK                         _______ _______ _______ _____ _____    ______ ____
ROOT
ATOM      1  N   UNL     1     -18.062  42.488 -13.937  0.00  0.00    +0.000 NA
ATOM      2  N   UNL     1     -20.345  43.093 -14.250  0.00  0.00    +0.000 N 
ATOM      3  C   UNL     1     -18.758  41.145 -11.587  0.00  0.00    +0.000 A 
ATOM      4  C   UNL     1     -17.434  41.170 -12.011  0.00  0.00    +0.000 A 
ATOM      5  C   UNL     1     -19.734  41.790 -12.337  0.00  0.00    +0.000 A 
ATOM      6  C   UNL     1     -19.338  42.442 -13.494  0.00  0.00    +0.000 A 
ATOM      7  C   UNL     1     -17.141  41.849 -13.182  0.00  0.00    +0.000 A 
ATOM      8  H   UNL     1     -21.291  42.733 -14.204  0.00  0.00    +0.000 HD
ATOM      9  H   UNL     1     -20.052  43.563 -15.097  0.00  0.00    +0.000 HD
ENDROOT
BRANCH   4  12
ATOM     10  O   UNL     1     -16.456  39.318 -10.934  0.00  0.00    +0.000 OA
ATOM     11  N   UNL     1     -15.235  41.258 -10.965  0.00  0.00    +0.000 N 
ATOM     12  C   UNL     1     -16.367  40.512 -11.271  0.00  0.00    +0.000 C 
ATOM     13  H   UNL     1     -15.141  42.232 -11.237  0.00  0.00    +0.000 HD
ATOM     14  H   UNL     1     -14.460  40.847 -10.456  0.00  0.00    +0.000 HD
ENDBRANCH   4  12
BRANCH   3  15
ATOM     15  N   UNL     1     -19.125  40.479 -10.414  0.00  0.00    +0.000 N 
ATOM     16  H   UNL     1     -18.969  39.477 -10.411  0.00  0.00    +0.000 HD
BRANCH  15  20
ATOM     17  C   UNL     1     -20.690  41.791  -6.654  0.00  0.00    +0.000 C 
ATOM     18  C   UNL     1     -19.342  42.347  -7.135  0.00  0.00    +0.000 C 
ATOM     19  C   UNL     1     -21.524  41.142  -7.730  0.00  0.00    +0.000 C 
ATOM     20  C   UNL     1     -19.594  41.015  -9.247  0.00  0.00    +0.000 C 
ATOM     21  C   UNL     1     -18.832  41.744  -8.411  0.00  0.00    +0.000 C 
ATOM     22  C   UNL     1     -20.994  40.799  -8.917  0.00  0.00    +0.000 C 
ATOM     23  C   UNL     1     -22.962  40.882  -7.393  0.00  0.00    +0.000 C 
ENDBRANCH  15  20
ENDBRANCH   3  15
TORSDOF 3
ENDMDL
MODEL 4
REMARK VINA RESULT:    -6.351      3.293      4.929
REMARK INTER + INTRA:          -8.173
REMARK INTER:                  -7.462
REMARK INTRA:                  -0.711
REMARK UNBOUND:                -0.709
REMARK  Name = 144625229
REMARK  4 active torsions:
REMARK  status: ('A' for Active; 'I' for Inactive)
REMARK    1  A    between atoms: N_2  and  C_9
REMARK    2  A    between atoms: N_2  and  C_12
REMARK    3  A    between atoms: C_8  and  C_13
REMARK    4  A    between atoms: C_14  and  C_18
REMARK                            x       y       z     vdW  Elec       q    Type
REMARK                         _______ _______ _______ _____ _____    ______ ____
ROOT
ATOM      1  N   UNL     1     -18.620  46.257 -15.011  0.00  0.00    +0.000 NA
ATOM      2  N   UNL     1     -17.765  46.554 -12.806  0.00  0.00    +0.000 N 
ATOM      3  C   UNL     1     -19.072  43.556 -14.452  0.00  0.00    +0.000 A 
ATOM      4  C   UNL     1     -19.392  44.073 -15.702  0.00  0.00    +0.000 A 
ATOM      5  C   UNL     1     -18.525  44.387 -13.481  0.00  0.00    +0.000 A 
ATOM      6  C   UNL     1     -18.321  45.718 -13.807  0.00  0.00    +0.000 A 
ATOM      7  C   UNL     1     -19.149  45.418 -15.928  0.00  0.00    +0.000 A 
ATOM      8  H   UNL     1     -17.934  46.321 -11.836  0.00  0.00    +0.000 HD
ATOM      9  H   UNL     1     -17.623  47.527 -13.047  0.00  0.00    +0.000 HD
ENDROOT
BRANCH   4  12
ATOM     10  O   UNL     1     -21.078  42.709 -16.621  0.00  0.00    +0.000 OA
ATOM     11  N   UNL     1     -19.244  43.114 -17.937  0.00  0.00    +0.000 N 
ATOM     12  C   UNL     1     -19.969  43.254 -16.758  0.00  0.00    +0.000 C 
ATOM     13  H   UNL     1     -18.340  43.557 -18.070  0.00  0.00    +0.000 HD
ATOM     14  H   UNL     1     -19.602  42.559 -18.707  0.00  0.00    +0.000 HD
ENDBRANCH   4  12
BRANCH   3  15
ATOM     15  N   UNL     1     -19.289  42.207 -14.154  0.00  0.00    +0.000 N 
ATOM     16  H   UNL     1     -19.886  41.705 -14.802  0.00  0.00    +0.000 HD
BRANCH  15  20
ATOM     17  C   UNL     1     -17.889  39.652 -11.020  0.00  0.00    +0.000 C 
ATOM     18  C   UNL     1     -16.920  40.056 -12.141  0.00  0.00    +0.000 C 
ATOM     19  C   UNL     1     -19.124  40.511 -10.915  0.00  0.00    +0.000 C 
ATOM     20  C   UNL     1     -18.739  41.462 -13.148  0.00  0.00    +0.000 C 
ATOM     21  C   UNL     1     -17.538  40.864 -13.245  0.00  0.00    +0.000 C 
ATOM     22  C   UNL     1     -19.489  41.339 -11.908  0.00  0.00    +0.000 C 
ATOM     23  C   UNL     1     -19.927  40.372  -9.655  0.00  0.00    +0.000 C 
ENDBRANCH  15  20
ENDBRANCH   3  15
TORSDOF 3
ENDMDL
MODEL 5
REMARK VINA RESULT:    -6.312      3.475      6.360
REMARK INTER + INTRA:          -8.127
REMARK INTER:                  -7.394
REMARK INTRA:                  -0.733
REMARK UNBOUND:                -0.709
REMARK  Name = 144625229
REMARK  4 active torsions:
REMARK  status: ('A' for Active; 'I' for Inactive)
REMARK    1  A    between atoms: N_2  and  C_9
REMARK    2  A    between atoms: N_2  and  C_12
REMARK    3  A    between atoms: C_8  and  C_13
REMARK    4  A    between atoms: C_14  and  C_18
REMARK                            x       y       z     vdW  Elec       q    Type
REMARK                         _______ _______ _______ _____ _____    ______ ____
ROOT
ATOM      1  N   UNL     1     -17.465  39.759 -11.453  0.00  0.00    +0.000 NA
ATOM      2  N   UNL     1     -19.602  38.735 -11.698  0.00  0.00    +0.000 N 
ATOM      3  C   UNL     1     -18.541  42.178 -12.351  0.00  0.00    +0.000 A 
ATOM      4  C   UNL     1     -17.197  42.097 -12.005  0.00  0.00    +0.000 A 
ATOM      5  C   UNL     1     -19.348  41.050 -12.250  0.00  0.00    +0.000 A 
ATOM      6  C   UNL     1     -18.766  39.875 -11.799  0.00  0.00    +0.000 A 
ATOM      7  C   UNL     1     -16.713  40.877 -11.566  0.00  0.00    +0.000 A 
ATOM      8  H   UNL     1     -20.590  38.875 -11.527  0.00  0.00    +0.000 HD
ATOM      9  H   UNL     1     -19.174  37.880 -11.363  0.00  0.00    +0.000 HD
ENDROOT
BRANCH   4  12
ATOM     10  O   UNL     1     -16.585  44.324 -11.542  0.00  0.00    +0.000 OA
ATOM     11  N   UNL     1     -15.111  43.085 -12.787  0.00  0.00    +0.000 N 
ATOM     12  C   UNL     1     -16.303  43.243 -12.088  0.00  0.00    +0.000 C 
ATOM     13  H   UNL     1     -14.860  42.209 -13.234  0.00  0.00    +0.000 HD
ATOM     14  H   UNL     1     -14.450  43.849 -12.871  0.00  0.00    +0.000 HD
ENDBRANCH   4  12
BRANCH   3  15
ATOM     15  N   UNL     1     -19.098  43.378 -12.804  0.00  0.00    +0.000 N 
ATOM     16  H   UNL     1     -19.466  43.990 -12.083  0.00  0.00    +0.000 HD
BRANCH  15  20
ATOM     17  C   UNL     1     -19.616  44.898 -16.769  0.00  0.00    +0.000 C 
ATOM     18  C   UNL     1     -18.567  45.547 -15.853  0.00  0.00    +0.000 C 
ATOM     19  C   UNL     1     -20.083  43.535 -16.325  0.00  0.00    +0.000 C 
ATOM     20  C   UNL     1     -19.138  43.865 -14.080  0.00  0.00    +0.000 C 
ATOM     21  C   UNL     1     -18.540  45.012 -14.452  0.00  0.00    +0.000 C 
ATOM     22  C   UNL     1     -19.845  43.083 -15.082  0.00  0.00    +0.000 C 
ATOM     23  C   UNL     1     -20.843  42.729 -17.336  0.00  0.00    +0.000 C 
ENDBRANCH  15  20
ENDBRANCH   3  15
TORSDOF 3
ENDMDL
