MODEL 1
REMARK VINA RESULT:    -6.547      0.000      0.000
REMARK INTER + INTRA:          -7.824
REMARK INTER:                  -7.504
REMARK INTRA:                  -0.320
REMARK UNBOUND:                -0.320
REMARK  Name = 144940858
REMARK  3 active torsions:
REMARK  status: ('A' for Active; 'I' for Inactive)
REMARK    1  A    between atoms: N_2  and  C_6
REMARK    2  A    between atoms: N_3  and  C_7
REMARK    3  A    between atoms: C_12  and  C_13
REMARK                            x       y       z     vdW  Elec       q    Type
REMARK                         _______ _______ _______ _____ _____    ______ ____
ROOT
ATOM      1  O   UNL     1     -18.841  44.530 -14.024  0.00  0.00    +0.000 OA
ATOM      2  N   UNL     1     -19.087  42.229 -14.166  0.00  0.00    +0.000 N 
ATOM      3  C   UNL     1     -19.178  43.526 -14.646  0.00  0.00    +0.000 C 
ATOM      4  H   UNL     1     -19.484  41.459 -14.696  0.00  0.00    +0.000 HD
ENDROOT
BRANCH   3   7
ATOM      5  N   UNL     1     -19.910  44.949 -18.056  0.00  0.00    +0.000 NA
ATOM      6  N   UNL     1     -21.312  44.169 -19.817  0.00  0.00    +0.000 N 
ATOM      7  C   UNL     1     -19.754  43.675 -16.007  0.00  0.00    +0.000 A 
ATOM      8  C   UNL     1     -20.644  42.735 -16.516  0.00  0.00    +0.000 A 
ATOM      9  C   UNL     1     -19.422  44.754 -16.811  0.00  0.00    +0.000 A 
ATOM     10  C   UNL     1     -21.166  42.900 -17.794  0.00  0.00    +0.000 A 
ATOM     11  C   UNL     1     -20.771  44.014 -18.517  0.00  0.00    +0.000 A 
ATOM     12  H   UNL     1     -21.582  43.337 -20.329  0.00  0.00    +0.000 HD
ATOM     13  H   UNL     1     -21.015  44.981 -20.345  0.00  0.00    +0.000 HD
ENDBRANCH   3   7
BRANCH   2  14
ATOM     14  C   UNL     1     -18.574  41.924 -12.852  0.00  0.00    +0.000 C 
ATOM     15  C   UNL     1     -16.729  40.765 -11.563  0.00  0.00    +0.000 C 
ATOM     16  C   UNL     1     -17.264  41.133 -12.952  0.00  0.00    +0.000 C 
ATOM     17  C   UNL     1     -19.620  41.168 -12.030  0.00  0.00    +0.000 C 
ATOM     18  C   UNL     1     -17.780  40.001 -10.750  0.00  0.00    +0.000 C 
ATOM     19  C   UNL     1     -19.086  40.787 -10.652  0.00  0.00    +0.000 C 
BRANCH  15  20
ATOM     20  N   UNL     1     -15.509  39.970 -11.699  0.00  0.00    +0.000 NA
ATOM     21  H   UNL     1     -15.749  39.007 -11.930  0.00  0.00    +0.000 HD
ATOM     22  H   UNL     1     -14.955  40.324 -12.479  0.00  0.00    +0.000 HD
ENDBRANCH  15  20
ENDBRANCH   2  14
TORSDOF 3
ENDMDL
MODEL 2
REMARK VINA RESULT:    -6.132      2.294      2.701
REMARK INTER + INTRA:          -7.348
REMARK INTER:                  -7.065
REMARK INTRA:                  -0.283
REMARK UNBOUND:                -0.320
REMARK  Name = 144940858
REMARK  3 active torsions:
REMARK  status: ('A' for Active; 'I' for Inactive)
REMARK    1  A    between atoms: N_2  and  C_6
REMARK    2  A    between atoms: N_3  and  C_7
REMARK    3  A    between atoms: C_12  and  C_13
REMARK                            x       y       z     vdW  Elec       q    Type
REMARK                         _______ _______ _______ _____ _____    ______ ____
ROOT
ATOM      1  O   UNL     1     -19.955  42.292 -16.550  0.00  0.00    +0.000 OA
ATOM      2  N   UNL     1     -19.939  43.684 -14.696  0.00  0.00    +0.000 N 
ATOM      3  C   UNL     1     -20.328  43.310 -15.972  0.00  0.00    +0.000 C 
ATOM      4  H   UNL     1     -20.205  44.591 -14.327  0.00  0.00    +0.000 HD
ENDROOT
BRANCH   3   7
ATOM      5  N   UNL     1     -21.533  46.192 -18.077  0.00  0.00    +0.000 NA
ATOM      6  N   UNL     1     -23.731  46.905 -18.655  0.00  0.00    +0.000 N 
ATOM      7  C   UNL     1     -21.245  44.246 -16.672  0.00  0.00    +0.000 A 
ATOM      8  C   UNL     1     -22.625  44.086 -16.598  0.00  0.00    +0.000 A 
ATOM      9  C   UNL     1     -20.755  45.305 -17.418  0.00  0.00    +0.000 A 
ATOM     10  C   UNL     1     -23.458  44.978 -17.264  0.00  0.00    +0.000 A 
ATOM     11  C   UNL     1     -22.869  46.005 -17.983  0.00  0.00    +0.000 A 
ATOM     12  H   UNL     1     -24.638  46.570 -18.957  0.00  0.00    +0.000 HD
ATOM     13  H   UNL     1     -23.295  47.651 -19.186  0.00  0.00    +0.000 HD
ENDBRANCH   3   7
BRANCH   2  14
ATOM     14  C   UNL     1     -19.032  42.892 -13.900  0.00  0.00    +0.000 C 
ATOM     15  C   UNL     1     -18.856  41.079 -12.142  0.00  0.00    +0.000 C 
ATOM     16  C   UNL     1     -19.804  41.898 -13.025  0.00  0.00    +0.000 C 
ATOM     17  C   UNL     1     -18.133  43.797 -13.054  0.00  0.00    +0.000 C 
ATOM     18  C   UNL     1     -17.965  41.993 -11.293  0.00  0.00    +0.000 C 
ATOM     19  C   UNL     1     -17.197  42.985 -12.163  0.00  0.00    +0.000 C 
BRANCH  15  20
ATOM     20  N   UNL     1     -19.629  40.179 -11.289  0.00  0.00    +0.000 NA
ATOM     21  H   UNL     1     -19.356  40.307 -10.315  0.00  0.00    +0.000 HD
ATOM     22  H   UNL     1     -20.619  40.419 -11.345  0.00  0.00    +0.000 HD
ENDBRANCH  15  20
ENDBRANCH   2  14
TORSDOF 3
ENDMDL
MODEL 3
REMARK VINA RESULT:    -5.905      1.545      7.097
REMARK INTER + INTRA:          -7.087
REMARK INTER:                  -6.823
REMARK INTRA:                  -0.264
REMARK UNBOUND:                -0.320
REMARK  Name = 144940858
REMARK  3 active torsions:
REMARK  status: ('A' for Active; 'I' for Inactive)
REMARK    1  A    between atoms: N_2  and  C_6
REMARK    2  A    between atoms: N_3  and  C_7
REMARK    3  A    between atoms: C_12  and  C_13
REMARK                            x       y       z     vdW  Elec       q    Type
REMARK                         _______ _______ _______ _____ _____    ______ ____
ROOT
ATOM      1  O   UNL     1     -20.594  42.582 -14.272  0.00  0.00    +0.000 OA
ATOM      2  N   UNL     1     -18.967  43.815 -15.373  0.00  0.00    +0.000 N 
ATOM      3  C   UNL     1     -19.419  42.901 -14.434  0.00  0.00    +0.000 C 
ATOM      4  H   UNL     1     -17.995  44.106 -15.375  0.00  0.00    +0.000 HD
ENDROOT
BRANCH   3   7
ATOM      5  N   UNL     1     -17.543  40.371 -12.368  0.00  0.00    +0.000 NA
ATOM      6  N   UNL     1     -15.520  40.548 -11.122  0.00  0.00    +0.000 N 
ATOM      7  C   UNL     1     -18.378  42.302 -13.559  0.00  0.00    +0.000 A 
ATOM      8  C   UNL     1     -17.296  43.054 -13.114  0.00  0.00    +0.000 A 
ATOM      9  C   UNL     1     -18.454  40.977 -13.161  0.00  0.00    +0.000 A 
ATOM     10  C   UNL     1     -16.337  42.465 -12.297  0.00  0.00    +0.000 A 
ATOM     11  C   UNL     1     -16.504  41.133 -11.955  0.00  0.00    +0.000 A 
ATOM     12  H   UNL     1     -14.577  40.918 -11.157  0.00  0.00    +0.000 HD
ATOM     13  H   UNL     1     -15.643  39.572 -10.880  0.00  0.00    +0.000 HD
ENDBRANCH   3   7
BRANCH   2  14
ATOM     14  C   UNL     1     -19.859  44.500 -16.277  0.00  0.00    +0.000 C 
ATOM     15  C   UNL     1     -21.121  44.340 -18.466  0.00  0.00    +0.000 C 
ATOM     16  C   UNL     1     -20.207  43.609 -17.475  0.00  0.00    +0.000 C 
ATOM     17  C   UNL     1     -19.246  45.827 -16.730  0.00  0.00    +0.000 C 
ATOM     18  C   UNL     1     -20.495  45.663 -18.921  0.00  0.00    +0.000 C 
ATOM     19  C   UNL     1     -20.146  46.552 -17.728  0.00  0.00    +0.000 C 
BRANCH  15  20
ATOM     20  N   UNL     1     -21.391  43.478 -19.616  0.00  0.00    +0.000 NA
ATOM     21  H   UNL     1     -21.412  44.037 -20.467  0.00  0.00    +0.000 HD
ATOM     22  H   UNL     1     -20.629  42.809 -19.730  0.00  0.00    +0.000 HD
ENDBRANCH  15  20
ENDBRANCH   2  14
TORSDOF 3
ENDMDL
MODEL 4
REMARK VINA RESULT:    -5.823      1.887      7.073
REMARK INTER + INTRA:          -6.994
REMARK INTER:                  -6.663
REMARK INTRA:                  -0.331
REMARK UNBOUND:                -0.320
REMARK  Name = 144940858
REMARK  3 active torsions:
REMARK  status: ('A' for Active; 'I' for Inactive)
REMARK    1  A    between atoms: N_2  and  C_6
REMARK    2  A    between atoms: N_3  and  C_7
REMARK    3  A    between atoms: C_12  and  C_13
REMARK                            x       y       z     vdW  Elec       q    Type
REMARK                         _______ _______ _______ _____ _____    ______ ____
ROOT
ATOM      1  O   UNL     1     -18.225  44.357 -14.083  0.00  0.00    +0.000 OA
ATOM      2  N   UNL     1     -20.063  43.024 -14.551  0.00  0.00    +0.000 N 
ATOM      3  C   UNL     1     -18.973  43.427 -13.795  0.00  0.00    +0.000 C 
ATOM      4  H   UNL     1     -20.571  42.180 -14.304  0.00  0.00    +0.000 HD
ENDROOT
BRANCH   3   7
ATOM      5  N   UNL     1     -17.449  42.357 -10.521  0.00  0.00    +0.000 NA
ATOM      6  N   UNL     1     -17.900  40.488  -9.113  0.00  0.00    +0.000 N 
ATOM      7  C   UNL     1     -18.707  42.635 -12.567  0.00  0.00    +0.000 A 
ATOM      8  C   UNL     1     -19.421  41.473 -12.294  0.00  0.00    +0.000 A 
ATOM      9  C   UNL     1     -17.741  43.030 -11.655  0.00  0.00    +0.000 A 
ATOM     10  C   UNL     1     -19.150  40.753 -11.135  0.00  0.00    +0.000 A 
ATOM     11  C   UNL     1     -18.164  41.233 -10.289  0.00  0.00    +0.000 A 
ATOM     12  H   UNL     1     -18.651  39.941  -8.710  0.00  0.00    +0.000 HD
ATOM     13  H   UNL     1     -17.182  40.846  -8.494  0.00  0.00    +0.000 HD
ENDBRANCH   3   7
BRANCH   2  14
ATOM     14  C   UNL     1     -20.435  43.676 -15.783  0.00  0.00    +0.000 C 
ATOM     15  C   UNL     1     -22.370  44.481 -17.203  0.00  0.00    +0.000 C 
ATOM     16  C   UNL     1     -21.957  43.827 -15.879  0.00  0.00    +0.000 C 
ATOM     17  C   UNL     1     -19.874  42.911 -16.984  0.00  0.00    +0.000 C 
ATOM     18  C   UNL     1     -21.811  43.704 -18.401  0.00  0.00    +0.000 C 
ATOM     19  C   UNL     1     -20.294  43.551 -18.305  0.00  0.00    +0.000 C 
BRANCH  15  20
ATOM     20  N   UNL     1     -23.828  44.563 -17.280  0.00  0.00    +0.000 NA
ATOM     21  H   UNL     1     -24.118  44.621 -18.255  0.00  0.00    +0.000 HD
ATOM     22  H   UNL     1     -24.239  43.708 -16.908  0.00  0.00    +0.000 HD
ENDBRANCH  15  20
ENDBRANCH   2  14
TORSDOF 3
ENDMDL
MODEL 5
REMARK VINA RESULT:    -5.525      1.584      2.045
REMARK INTER + INTRA:          -6.652
REMARK INTER:                  -6.908
REMARK INTRA:                   0.256
REMARK UNBOUND:                -0.320
REMARK  Name = 144940858
REMARK  3 active torsions:
REMARK  status: ('A' for Active; 'I' for Inactive)
REMARK    1  A    between atoms: N_2  and  C_6
REMARK    2  A    between atoms: N_3  and  C_7
REMARK    3  A    between atoms: C_12  and  C_13
REMARK                            x       y       z     vdW  Elec       q    Type
REMARK                         _______ _______ _______ _____ _____    ______ ____
ROOT
ATOM      1  O   UNL     1     -18.331  43.580 -13.179  0.00  0.00    +0.000 OA
ATOM      2  N   UNL     1     -19.235  41.575 -13.913  0.00  0.00    +0.000 N 
ATOM      3  C   UNL     1     -18.988  42.937 -13.993  0.00  0.00    +0.000 C 
ATOM      4  H   UNL     1     -19.875  41.133 -14.566  0.00  0.00    +0.000 HD
ENDROOT
BRANCH   3   7
ATOM      5  N   UNL     1     -19.629  45.560 -16.619  0.00  0.00    +0.000 NA
ATOM      6  N   UNL     1     -21.243  45.671 -18.368  0.00  0.00    +0.000 N 
ATOM      7  C   UNL     1     -19.599  43.640 -15.150  0.00  0.00    +0.000 A 
ATOM      8  C   UNL     1     -20.671  43.086 -15.841  0.00  0.00    +0.000 A 
ATOM      9  C   UNL     1     -19.120  44.868 -15.576  0.00  0.00    +0.000 A 
ATOM     10  C   UNL     1     -21.222  43.767 -16.920  0.00  0.00    +0.000 A 
ATOM     11  C   UNL     1     -20.670  44.990 -17.267  0.00  0.00    +0.000 A 
ATOM     12  H   UNL     1     -21.687  45.124 -19.096  0.00  0.00    +0.000 HD
ATOM     13  H   UNL     1     -20.832  46.562 -18.622  0.00  0.00    +0.000 HD
ENDBRANCH   3   7
BRANCH   2  14
ATOM     14  C   UNL     1     -18.732  40.759 -12.834  0.00  0.00    +0.000 C 
ATOM     15  C   UNL     1     -19.051  40.092 -10.413  0.00  0.00    +0.000 C 
ATOM     16  C   UNL     1     -19.599  40.921 -11.581  0.00  0.00    +0.000 C 
ATOM     17  C   UNL     1     -17.267  41.098 -12.545  0.00  0.00    +0.000 C 
ATOM     18  C   UNL     1     -17.587  40.444 -10.125  0.00  0.00    +0.000 C 
ATOM     19  C   UNL     1     -16.722  40.285 -11.375  0.00  0.00    +0.000 C 
BRANCH  15  20
ATOM     20  N   UNL     1     -19.874  40.310  -9.224  0.00  0.00    +0.000 NA
ATOM     21  H   UNL     1     -19.478  41.064  -8.665  0.00  0.00    +0.000 HD
ATOM     22  H   UNL     1     -20.805  40.617  -9.503  0.00  0.00    +0.000 HD
ENDBRANCH  15  20
ENDBRANCH   2  14
TORSDOF 3
ENDMDL
