MODEL 1
REMARK VINA RESULT:    -5.920      0.000      0.000
REMARK INTER + INTRA:          -6.705
REMARK INTER:                  -6.612
REMARK INTRA:                  -0.093
REMARK UNBOUND:                -0.093
REMARK  Name = 145557483
REMARK  3 active torsions:
REMARK  status: ('A' for Active; 'I' for Inactive)
REMARK    1  A    between atoms: C_5  and  C_10
REMARK    2  A    between atoms: C_10  and  C_12
REMARK    3  A    between atoms: C_16  and  C_17
REMARK                            x       y       z     vdW  Elec       q    Type
REMARK                         _______ _______ _______ _____ _____    ______ ____
ROOT
ATOM      1  N   UNL     1     -18.746  42.385 -12.551  0.00  0.00    +0.000 N 
ATOM      2  N   UNL     1     -19.553  42.397 -14.778  0.00  0.00    +0.000 NA
ATOM      3  C   UNL     1     -18.199  40.832 -10.169  0.00  0.00    +0.000 C 
ATOM      4  C   UNL     1     -19.623  41.001 -10.711  0.00  0.00    +0.000 C 
ATOM      5  C   UNL     1     -17.363  42.063 -10.539  0.00  0.00    +0.000 C 
ATOM      6  C   UNL     1     -19.620  41.252 -12.218  0.00  0.00    +0.000 C 
ATOM      7  C   UNL     1     -17.370  42.316 -12.046  0.00  0.00    +0.000 C 
ATOM      8  C   UNL     1     -19.009  43.075 -13.742  0.00  0.00    +0.000 A 
ATOM      9  C   UNL     1     -18.688  44.422 -13.778  0.00  0.00    +0.000 A 
ATOM     10  C   UNL     1     -18.943  45.120 -14.953  0.00  0.00    +0.000 A 
ATOM     11  C   UNL     1     -19.787  43.108 -15.903  0.00  0.00    +0.000 A 
ATOM     12  C   UNL     1     -19.502  44.458 -16.042  0.00  0.00    +0.000 A 
ENDROOT
BRANCH  12  15
ATOM     13  O   UNL     1     -19.289  44.786 -18.364  0.00  0.00    +0.000 OA
ATOM     14  N   UNL     1     -20.635  46.258 -17.230  0.00  0.00    +0.000 N 
ATOM     15  C   UNL     1     -19.781  45.159 -17.283  0.00  0.00    +0.000 C 
ATOM     16  H   UNL     1     -20.852  46.761 -18.085  0.00  0.00    +0.000 HD
ATOM     17  H   UNL     1     -21.077  46.620 -16.396  0.00  0.00    +0.000 HD
ENDBRANCH  12  15
BRANCH   3  18
ATOM     18  C   UNL     1     -18.214  40.620  -8.658  0.00  0.00    +0.000 C 
ATOM     19  C   UNL     1     -19.584  40.906  -8.072  0.00  0.00    +0.000 C 
ENDBRANCH   3  18
TORSDOF 2
ENDMDL
MODEL 2
REMARK VINA RESULT:    -5.822      3.453      3.624
REMARK INTER + INTRA:          -6.596
REMARK INTER:                  -6.494
REMARK INTRA:                  -0.102
REMARK UNBOUND:                -0.093
REMARK  Name = 145557483
REMARK  3 active torsions:
REMARK  status: ('A' for Active; 'I' for Inactive)
REMARK    1  A    between atoms: C_5  and  C_10
REMARK    2  A    between atoms: C_10  and  C_12
REMARK    3  A    between atoms: C_16  and  C_17
REMARK                            x       y       z     vdW  Elec       q    Type
REMARK                         _______ _______ _______ _____ _____    ______ ____
ROOT
ATOM      1  N   UNL     1     -18.037  42.583 -10.980  0.00  0.00    +0.000 N 
ATOM      2  N   UNL     1     -16.636  43.204 -12.786  0.00  0.00    +0.000 NA
ATOM      3  C   UNL     1     -19.257  40.431  -9.475  0.00  0.00    +0.000 C 
ATOM      4  C   UNL     1     -19.584  40.666 -10.953  0.00  0.00    +0.000 C 
ATOM      5  C   UNL     1     -18.883  41.763  -8.817  0.00  0.00    +0.000 C 
ATOM      6  C   UNL     1     -18.428  41.351 -11.679  0.00  0.00    +0.000 C 
ATOM      7  C   UNL     1     -17.731  42.451  -9.551  0.00  0.00    +0.000 C 
ATOM      8  C   UNL     1     -17.397  43.576 -11.731  0.00  0.00    +0.000 A 
ATOM      9  C   UNL     1     -17.587  44.890 -11.338  0.00  0.00    +0.000 A 
ATOM     10  C   UNL     1     -16.959  45.888 -12.074  0.00  0.00    +0.000 A 
ATOM     11  C   UNL     1     -16.041  44.200 -13.478  0.00  0.00    +0.000 A 
ATOM     12  C   UNL     1     -16.168  45.545 -13.166  0.00  0.00    +0.000 A 
ENDROOT
BRANCH  12  15
ATOM     13  O   UNL     1     -15.242  47.687 -13.485  0.00  0.00    +0.000 OA
ATOM     14  N   UNL     1     -15.131  46.238 -15.259  0.00  0.00    +0.000 N 
ATOM     15  C   UNL     1     -15.498  46.564 -13.956  0.00  0.00    +0.000 C 
ATOM     16  H   UNL     1     -14.655  46.929 -15.830  0.00  0.00    +0.000 HD
ATOM     17  H   UNL     1     -15.297  45.350 -15.713  0.00  0.00    +0.000 HD
ENDBRANCH  12  15
BRANCH   3  18
ATOM     18  C   UNL     1     -20.435  39.781  -8.754  0.00  0.00    +0.000 C 
ATOM     19  C   UNL     1     -21.361  40.822  -8.155  0.00  0.00    +0.000 C 
ENDBRANCH   3  18
TORSDOF 2
ENDMDL
MODEL 3
REMARK VINA RESULT:    -5.743      2.780      7.003
REMARK INTER + INTRA:          -6.507
REMARK INTER:                  -6.409
REMARK INTRA:                  -0.098
REMARK UNBOUND:                -0.093
REMARK  Name = 145557483
REMARK  3 active torsions:
REMARK  status: ('A' for Active; 'I' for Inactive)
REMARK    1  A    between atoms: C_5  and  C_10
REMARK    2  A    between atoms: C_10  and  C_12
REMARK    3  A    between atoms: C_16  and  C_17
REMARK                            x       y       z     vdW  Elec       q    Type
REMARK                         _______ _______ _______ _____ _____    ______ ____
ROOT
ATOM      1  N   UNL     1     -19.102  43.556 -15.223  0.00  0.00    +0.000 N 
ATOM      2  N   UNL     1     -19.901  42.006 -13.621  0.00  0.00    +0.000 NA
ATOM      3  C   UNL     1     -19.679  45.134 -17.582  0.00  0.00    +0.000 C 
ATOM      4  C   UNL     1     -19.712  43.602 -17.609  0.00  0.00    +0.000 C 
ATOM      5  C   UNL     1     -18.674  45.604 -16.524  0.00  0.00    +0.000 C 
ATOM      6  C   UNL     1     -20.029  43.025 -16.231  0.00  0.00    +0.000 C 
ATOM      7  C   UNL     1     -18.989  45.017 -15.148  0.00  0.00    +0.000 C 
ATOM      8  C   UNL     1     -18.894  42.790 -14.069  0.00  0.00    +0.000 A 
ATOM      9  C   UNL     1     -17.656  42.889 -13.457  0.00  0.00    +0.000 A 
ATOM     10  C   UNL     1     -17.434  42.134 -12.311  0.00  0.00    +0.000 A 
ATOM     11  C   UNL     1     -19.649  41.286 -12.505  0.00  0.00    +0.000 A 
ATOM     12  C   UNL     1     -18.445  41.314 -11.818  0.00  0.00    +0.000 A 
ENDROOT
BRANCH  12  15
ATOM     13  O   UNL     1     -18.652  39.339 -10.553  0.00  0.00    +0.000 OA
ATOM     14  N   UNL     1     -17.564  41.096  -9.558  0.00  0.00    +0.000 N 
ATOM     15  C   UNL     1     -18.245  40.513 -10.623  0.00  0.00    +0.000 C 
ATOM     16  H   UNL     1     -17.403  40.555  -8.713  0.00  0.00    +0.000 HD
ATOM     17  H   UNL     1     -17.198  42.038  -9.538  0.00  0.00    +0.000 HD
ENDBRANCH  12  15
BRANCH   3  18
ATOM     18  C   UNL     1     -19.323  45.695 -18.956  0.00  0.00    +0.000 C 
ATOM     19  C   UNL     1     -18.355  44.788 -19.691  0.00  0.00    +0.000 C 
ENDBRANCH   3  18
TORSDOF 2
ENDMDL
MODEL 4
REMARK VINA RESULT:    -5.625      3.731      6.564
REMARK INTER + INTRA:          -6.375
REMARK INTER:                  -6.279
REMARK INTRA:                  -0.097
REMARK UNBOUND:                -0.093
REMARK  Name = 145557483
REMARK  3 active torsions:
REMARK  status: ('A' for Active; 'I' for Inactive)
REMARK    1  A    between atoms: C_5  and  C_10
REMARK    2  A    between atoms: C_10  and  C_12
REMARK    3  A    between atoms: C_16  and  C_17
REMARK                            x       y       z     vdW  Elec       q    Type
REMARK                         _______ _______ _______ _____ _____    ______ ____
ROOT
ATOM      1  N   UNL     1     -17.247  44.680 -12.239  0.00  0.00    +0.000 N 
ATOM      2  N   UNL     1     -18.585  42.789 -12.729  0.00  0.00    +0.000 NA
ATOM      3  C   UNL     1     -16.183  47.212 -13.157  0.00  0.00    +0.000 C 
ATOM      4  C   UNL     1     -15.825  45.891 -13.846  0.00  0.00    +0.000 C 
ATOM      5  C   UNL     1     -16.479  46.951 -11.675  0.00  0.00    +0.000 C 
ATOM      6  C   UNL     1     -16.927  44.849 -13.663  0.00  0.00    +0.000 C 
ATOM      7  C   UNL     1     -17.576  45.901 -11.496  0.00  0.00    +0.000 C 
ATOM      8  C   UNL     1     -17.814  43.461 -11.845  0.00  0.00    +0.000 A 
ATOM      9  C   UNL     1     -17.544  43.023 -10.560  0.00  0.00    +0.000 A 
ATOM     10  C   UNL     1     -18.100  41.814 -10.154  0.00  0.00    +0.000 A 
ATOM     11  C   UNL     1     -19.108  41.618 -12.300  0.00  0.00    +0.000 A 
ATOM     12  C   UNL     1     -18.899  41.092 -11.035  0.00  0.00    +0.000 A 
ENDROOT
BRANCH  12  15
ATOM     13  O   UNL     1     -19.273  38.780 -11.277  0.00  0.00    +0.000 OA
ATOM     14  N   UNL     1     -20.310  39.816  -9.513  0.00  0.00    +0.000 N 
ATOM     15  C   UNL     1     -19.494  39.827 -10.641  0.00  0.00    +0.000 C 
ATOM     16  H   UNL     1     -20.732  38.944  -9.211  0.00  0.00    +0.000 HD
ATOM     17  H   UNL     1     -20.534  40.620  -8.941  0.00  0.00    +0.000 HD
ENDBRANCH  12  15
BRANCH   3  18
ATOM     18  C   UNL     1     -15.057  48.230 -13.315  0.00  0.00    +0.000 C 
ATOM     19  C   UNL     1     -14.466  48.615 -11.972  0.00  0.00    +0.000 C 
ENDBRANCH   3  18
TORSDOF 2
ENDMDL
MODEL 5
REMARK VINA RESULT:    -5.618      2.827      6.954
REMARK INTER + INTRA:          -6.368
REMARK INTER:                  -6.271
REMARK INTRA:                  -0.097
REMARK UNBOUND:                -0.093
REMARK  Name = 145557483
REMARK  3 active torsions:
REMARK  status: ('A' for Active; 'I' for Inactive)
REMARK    1  A    between atoms: C_5  and  C_10
REMARK    2  A    between atoms: C_10  and  C_12
REMARK    3  A    between atoms: C_16  and  C_17
REMARK                            x       y       z     vdW  Elec       q    Type
REMARK                         _______ _______ _______ _____ _____    ______ ____
ROOT
ATOM      1  N   UNL     1     -19.260  43.800 -14.911  0.00  0.00    +0.000 N 
ATOM      2  N   UNL     1     -17.415  43.123 -13.590  0.00  0.00    +0.000 NA
ATOM      3  C   UNL     1     -20.206  45.397 -17.133  0.00  0.00    +0.000 C 
ATOM      4  C   UNL     1     -19.586  46.038 -15.887  0.00  0.00    +0.000 C 
ATOM      5  C   UNL     1     -20.880  44.077 -16.746  0.00  0.00    +0.000 C 
ATOM      6  C   UNL     1     -18.611  45.087 -15.196  0.00  0.00    +0.000 C 
ATOM      7  C   UNL     1     -19.904  43.130 -16.046  0.00  0.00    +0.000 C 
ATOM      8  C   UNL     1     -18.736  43.030 -13.865  0.00  0.00    +0.000 A 
ATOM      9  C   UNL     1     -19.617  42.215 -13.175  0.00  0.00    +0.000 A 
ATOM     10  C   UNL     1     -19.112  41.444 -12.133  0.00  0.00    +0.000 A 
ATOM     11  C   UNL     1     -16.960  42.360 -12.571  0.00  0.00    +0.000 A 
ATOM     12  C   UNL     1     -17.758  41.512 -11.819  0.00  0.00    +0.000 A 
ENDROOT
BRANCH  12  15
ATOM     13  O   UNL     1     -16.216  39.978 -10.915  0.00  0.00    +0.000 OA
ATOM     14  N   UNL     1     -17.789  40.831  -9.480  0.00  0.00    +0.000 N 
ATOM     15  C   UNL     1     -17.200  40.721 -10.737  0.00  0.00    +0.000 C 
ATOM     16  H   UNL     1     -17.414  40.295  -8.704  0.00  0.00    +0.000 HD
ATOM     17  H   UNL     1     -18.584  41.413  -9.252  0.00  0.00    +0.000 HD
ENDBRANCH  12  15
BRANCH   3  18
ATOM     18  C   UNL     1     -21.206  46.345 -17.791  0.00  0.00    +0.000 C 
ATOM     19  C   UNL     1     -22.634  45.973 -17.441  0.00  0.00    +0.000 C 
ENDBRANCH   3  18
TORSDOF 2
ENDMDL
