MODEL 1
REMARK VINA RESULT:    -6.656      0.000      0.000
REMARK INTER + INTRA:          -7.610
REMARK INTER:                  -7.823
REMARK INTRA:                   0.213
REMARK UNBOUND:                 0.213
REMARK  Name = 145616621
REMARK  4 active torsions:
REMARK  status: ('A' for Active; 'I' for Inactive)
REMARK    1  A    between atoms: N_2  and  C_9
REMARK    2  A    between atoms: C_5  and  C_6
REMARK    3  A    between atoms: C_5  and  C_7
REMARK    4  A    between atoms: C_8  and  C_9
REMARK                            x       y       z     vdW  Elec       q    Type
REMARK                         _______ _______ _______ _____ _____    ______ ____
ROOT
ATOM      1  O   UNL     1     -18.118  41.414  -8.568  0.00  0.00    +0.000 OA
ATOM      2  C   UNL     1     -19.164  40.787  -8.707  0.00  0.00    +0.000 C 
ENDROOT
BRANCH   2   4
ATOM      3  N   UNL     1     -22.741  41.016  -7.533  0.00  0.00    +0.000 NA
ATOM      4  C   UNL     1     -20.356  41.167  -7.896  0.00  0.00    +0.000 A 
ATOM      5  C   UNL     1     -20.231  41.994  -6.785  0.00  0.00    +0.000 A 
ATOM      6  C   UNL     1     -21.621  40.709  -8.226  0.00  0.00    +0.000 A 
ATOM      7  C   UNL     1     -21.361  42.333  -6.047  0.00  0.00    +0.000 A 
ATOM      8  C   UNL     1     -22.581  41.822  -6.459  0.00  0.00    +0.000 A 
ENDBRANCH   2   4
BRANCH   2   9
ATOM      9  N   UNL     1     -19.335  39.703  -9.539  0.00  0.00    +0.000 NA
ATOM     10  N   UNL     1     -19.352  38.937 -11.826  0.00  0.00    +0.000 N 
ATOM     11  C   UNL     1     -19.246  39.876 -10.825  0.00  0.00    +0.000 C 
ATOM     12  H   UNL     1     -19.247  39.179 -12.804  0.00  0.00    +0.000 HD
ATOM     13  H   UNL     1     -19.532  37.963 -11.607  0.00  0.00    +0.000 HD
BRANCH  11  14
ATOM     14  C   UNL     1     -18.956  41.298 -11.284  0.00  0.00    +0.000 C 
ATOM     15  C   UNL     1     -19.511  41.525 -12.680  0.00  0.00    +0.000 C 
ENDBRANCH  11  14
ENDBRANCH   2   9
TORSDOF 3
ENDMDL
MODEL 2
REMARK VINA RESULT:    -5.989      2.002      2.693
REMARK INTER + INTRA:          -6.827
REMARK INTER:                  -6.834
REMARK INTRA:                   0.007
REMARK UNBOUND:                 0.213
REMARK  Name = 145616621
REMARK  4 active torsions:
REMARK  status: ('A' for Active; 'I' for Inactive)
REMARK    1  A    between atoms: N_2  and  C_9
REMARK    2  A    between atoms: C_5  and  C_6
REMARK    3  A    between atoms: C_5  and  C_7
REMARK    4  A    between atoms: C_8  and  C_9
REMARK                            x       y       z     vdW  Elec       q    Type
REMARK                         _______ _______ _______ _____ _____    ______ ____
ROOT
ATOM      1  O   UNL     1     -17.188  40.134 -10.404  0.00  0.00    +0.000 OA
ATOM      2  C   UNL     1     -18.337  40.538 -10.558  0.00  0.00    +0.000 C 
ENDROOT
BRANCH   2   4
ATOM      3  N   UNL     1     -19.244  42.386  -7.398  0.00  0.00    +0.000 NA
ATOM      4  C   UNL     1     -19.115  40.996  -9.372  0.00  0.00    +0.000 A 
ATOM      5  C   UNL     1     -20.388  40.499  -9.116  0.00  0.00    +0.000 A 
ATOM      6  C   UNL     1     -18.592  41.929  -8.491  0.00  0.00    +0.000 A 
ATOM      7  C   UNL     1     -21.090  40.946  -8.001  0.00  0.00    +0.000 A 
ATOM      8  C   UNL     1     -20.480  41.881  -7.182  0.00  0.00    +0.000 A 
ENDBRANCH   2   4
BRANCH   2   9
ATOM      9  N   UNL     1     -19.011  40.571 -11.759  0.00  0.00    +0.000 NA
ATOM     10  N   UNL     1     -19.407  41.824 -13.781  0.00  0.00    +0.000 N 
ATOM     11  C   UNL     1     -18.858  41.600 -12.539  0.00  0.00    +0.000 C 
ATOM     12  H   UNL     1     -19.204  42.660 -14.317  0.00  0.00    +0.000 HD
ATOM     13  H   UNL     1     -20.031  41.144 -14.202  0.00  0.00    +0.000 HD
BRANCH  11  14
ATOM     14  C   UNL     1     -17.924  42.688 -12.026  0.00  0.00    +0.000 C 
ATOM     15  C   UNL     1     -16.671  42.754 -12.882  0.00  0.00    +0.000 C 
ENDBRANCH  11  14
ENDBRANCH   2   9
TORSDOF 3
ENDMDL
MODEL 3
REMARK VINA RESULT:    -5.976      1.830      4.990
REMARK INTER + INTRA:          -6.812
REMARK INTER:                  -6.856
REMARK INTRA:                   0.044
REMARK UNBOUND:                 0.213
REMARK  Name = 145616621
REMARK  4 active torsions:
REMARK  status: ('A' for Active; 'I' for Inactive)
REMARK    1  A    between atoms: N_2  and  C_9
REMARK    2  A    between atoms: C_5  and  C_6
REMARK    3  A    between atoms: C_5  and  C_7
REMARK    4  A    between atoms: C_8  and  C_9
REMARK                            x       y       z     vdW  Elec       q    Type
REMARK                         _______ _______ _______ _____ _____    ______ ____
ROOT
ATOM      1  O   UNL     1     -17.028  40.186 -10.154  0.00  0.00    +0.000 OA
ATOM      2  C   UNL     1     -18.136  40.386 -10.644  0.00  0.00    +0.000 C 
ENDROOT
BRANCH   2   4
ATOM      3  N   UNL     1     -19.201  42.047 -13.858  0.00  0.00    +0.000 NA
ATOM      4  C   UNL     1     -18.287  41.416 -11.711  0.00  0.00    +0.000 A 
ATOM      5  C   UNL     1     -17.688  42.665 -11.590  0.00  0.00    +0.000 A 
ATOM      6  C   UNL     1     -19.025  41.158 -12.855  0.00  0.00    +0.000 A 
ATOM      7  C   UNL     1     -17.846  43.606 -12.602  0.00  0.00    +0.000 A 
ATOM      8  C   UNL     1     -18.605  43.251 -13.705  0.00  0.00    +0.000 A 
ENDBRANCH   2   4
BRANCH   2   9
ATOM      9  N   UNL     1     -19.299  39.756 -10.260  0.00  0.00    +0.000 NA
ATOM     10  N   UNL     1     -21.118  39.736  -8.677  0.00  0.00    +0.000 N 
ATOM     11  C   UNL     1     -19.936  40.193  -9.214  0.00  0.00    +0.000 C 
ATOM     12  H   UNL     1     -21.541  40.166  -7.862  0.00  0.00    +0.000 HD
ATOM     13  H   UNL     1     -21.608  38.952  -9.093  0.00  0.00    +0.000 HD
BRANCH  11  14
ATOM     14  C   UNL     1     -19.310  41.387  -8.507  0.00  0.00    +0.000 C 
ATOM     15  C   UNL     1     -20.057  41.690  -7.220  0.00  0.00    +0.000 C 
ENDBRANCH  11  14
ENDBRANCH   2   9
TORSDOF 3
ENDMDL
MODEL 4
REMARK VINA RESULT:    -5.679      1.912      5.220
REMARK INTER + INTRA:          -6.462
REMARK INTER:                  -6.694
REMARK INTRA:                   0.231
REMARK UNBOUND:                 0.213
REMARK  Name = 145616621
REMARK  4 active torsions:
REMARK  status: ('A' for Active; 'I' for Inactive)
REMARK    1  A    between atoms: N_2  and  C_9
REMARK    2  A    between atoms: C_5  and  C_6
REMARK    3  A    between atoms: C_5  and  C_7
REMARK    4  A    between atoms: C_8  and  C_9
REMARK                            x       y       z     vdW  Elec       q    Type
REMARK                         _______ _______ _______ _____ _____    ______ ____
ROOT
ATOM      1  O   UNL     1     -20.620  39.337  -8.958  0.00  0.00    +0.000 OA
ATOM      2  C   UNL     1     -19.737  40.189  -8.934  0.00  0.00    +0.000 C 
ENDROOT
BRANCH   2   4
ATOM      3  N   UNL     1     -16.839  40.706 -11.292  0.00  0.00    +0.000 NA
ATOM      4  C   UNL     1     -18.974  40.484 -10.180  0.00  0.00    +0.000 A 
ATOM      5  C   UNL     1     -19.632  40.805 -11.363  0.00  0.00    +0.000 A 
ATOM      6  C   UNL     1     -17.589  40.449 -10.197  0.00  0.00    +0.000 A 
ATOM      7  C   UNL     1     -18.894  41.076 -12.510  0.00  0.00    +0.000 A 
ATOM      8  C   UNL     1     -17.513  41.013 -12.423  0.00  0.00    +0.000 A 
ENDBRANCH   2   4
BRANCH   2   9
ATOM      9  N   UNL     1     -19.343  40.893  -7.817  0.00  0.00    +0.000 NA
ATOM     10  N   UNL     1     -20.044  42.397  -6.068  0.00  0.00    +0.000 N 
ATOM     11  C   UNL     1     -20.213  41.641  -7.206  0.00  0.00    +0.000 C 
ATOM     12  H   UNL     1     -20.802  42.935  -5.662  0.00  0.00    +0.000 HD
ATOM     13  H   UNL     1     -19.147  42.432  -5.596  0.00  0.00    +0.000 HD
BRANCH  11  14
ATOM     14  C   UNL     1     -21.611  41.661  -7.808  0.00  0.00    +0.000 C 
ATOM     15  C   UNL     1     -22.658  41.551  -6.714  0.00  0.00    +0.000 C 
ENDBRANCH  11  14
ENDBRANCH   2   9
TORSDOF 3
ENDMDL
MODEL 5
REMARK VINA RESULT:    -5.266      2.941      5.127
REMARK INTER + INTRA:          -5.976
REMARK INTER:                  -6.002
REMARK INTRA:                   0.025
REMARK UNBOUND:                 0.213
REMARK  Name = 145616621
REMARK  4 active torsions:
REMARK  status: ('A' for Active; 'I' for Inactive)
REMARK    1  A    between atoms: N_2  and  C_9
REMARK    2  A    between atoms: C_5  and  C_6
REMARK    3  A    between atoms: C_5  and  C_7
REMARK    4  A    between atoms: C_8  and  C_9
REMARK                            x       y       z     vdW  Elec       q    Type
REMARK                         _______ _______ _______ _____ _____    ______ ____
ROOT
ATOM      1  O   UNL     1     -15.954  41.187 -11.330  0.00  0.00    +0.000 OA
ATOM      2  C   UNL     1     -17.022  41.307 -11.923  0.00  0.00    +0.000 C 
ENDROOT
BRANCH   2   4
ATOM      3  N   UNL     1     -18.775  44.134 -13.701  0.00  0.00    +0.000 NA
ATOM      4  C   UNL     1     -17.540  42.672 -12.224  0.00  0.00    +0.000 A 
ATOM      5  C   UNL     1     -17.295  43.736 -11.362  0.00  0.00    +0.000 A 
ATOM      6  C   UNL     1     -18.277  42.921 -13.370  0.00  0.00    +0.000 A 
ATOM      7  C   UNL     1     -17.791  44.999 -11.669  0.00  0.00    +0.000 A 
ATOM      8  C   UNL     1     -18.518  45.144 -12.839  0.00  0.00    +0.000 A 
ENDBRANCH   2   4
BRANCH   2   9
ATOM      9  N   UNL     1     -17.834  40.265 -12.315  0.00  0.00    +0.000 NA
ATOM     10  N   UNL     1     -19.589  38.755 -11.644  0.00  0.00    +0.000 N 
ATOM     11  C   UNL     1     -18.675  39.766 -11.458  0.00  0.00    +0.000 C 
ATOM     12  H   UNL     1     -20.216  38.453 -10.907  0.00  0.00    +0.000 HD
ATOM     13  H   UNL     1     -19.667  38.283 -12.539  0.00  0.00    +0.000 HD
BRANCH  11  14
ATOM     14  C   UNL     1     -18.671  40.404 -10.075  0.00  0.00    +0.000 C 
ATOM     15  C   UNL     1     -19.967  40.093  -9.347  0.00  0.00    +0.000 C 
ENDBRANCH  11  14
ENDBRANCH   2   9
TORSDOF 3
ENDMDL
