MODEL 1
REMARK VINA RESULT:    -5.962      0.000      0.000
REMARK INTER + INTRA:          -6.954
REMARK INTER:                  -6.660
REMARK INTRA:                  -0.295
REMARK UNBOUND:                -0.295
REMARK  Name = 145769789
REMARK  5 active torsions:
REMARK  status: ('A' for Active; 'I' for Inactive)
REMARK    1  A    between atoms: N_2  and  C_6
REMARK    2  A    between atoms: N_2  and  C_12
REMARK    3  A    between atoms: N_4  and  C_13
REMARK    4  A    between atoms: C_5  and  C_9
REMARK    5  A    between atoms: C_7  and  C_11
REMARK                            x       y       z     vdW  Elec       q    Type
REMARK                         _______ _______ _______ _____ _____    ______ ____
ROOT
ATOM      1  N   UNL     1     -20.307  39.682  -9.686  0.00  0.00    +0.000 NA
ATOM      2  C   UNL     1     -18.203  40.865  -9.836  0.00  0.00    +0.000 A 
ATOM      3  C   UNL     1     -19.124  39.934 -10.290  0.00  0.00    +0.000 A 
ATOM      4  C   UNL     1     -19.724  41.351  -8.036  0.00  0.00    +0.000 A 
ATOM      5  C   UNL     1     -18.517  41.583  -8.687  0.00  0.00    +0.000 A 
ATOM      6  C   UNL     1     -20.576  40.398  -8.571  0.00  0.00    +0.000 A 
ATOM      7  C   UNL     1     -20.088  42.102  -6.805  0.00  0.00    +0.000 C 
ENDROOT
BRANCH   2  10
ATOM      8  O   UNL     1     -16.213  40.168 -10.861  0.00  0.00    +0.000 OA
ATOM      9  N   UNL     1     -16.603  42.451 -10.755  0.00  0.00    +0.000 N 
ATOM     10  C   UNL     1     -16.937  41.114 -10.510  0.00  0.00    +0.000 C 
ATOM     11  C   UNL     1     -15.394  42.859 -11.434  0.00  0.00    +0.000 C 
ATOM     12  H   UNL     1     -17.230  43.183 -10.433  0.00  0.00    +0.000 HD
ENDBRANCH   2  10
BRANCH   3  13
ATOM     13  N   UNL     1     -18.811  39.199 -11.461  0.00  0.00    +0.000 N 
ATOM     14  C   UNL     1     -19.169  39.647 -12.768  0.00  0.00    +0.000 C 
ATOM     15  H   UNL     1     -18.079  38.502 -11.389  0.00  0.00    +0.000 HD
ENDBRANCH   3  13
TORSDOF 2
ENDMDL
MODEL 2
REMARK VINA RESULT:    -5.581      1.653      1.656
REMARK INTER + INTRA:          -6.529
REMARK INTER:                  -6.286
REMARK INTRA:                  -0.243
REMARK UNBOUND:                -0.295
REMARK  Name = 145769789
REMARK  5 active torsions:
REMARK  status: ('A' for Active; 'I' for Inactive)
REMARK    1  A    between atoms: N_2  and  C_6
REMARK    2  A    between atoms: N_2  and  C_12
REMARK    3  A    between atoms: N_4  and  C_13
REMARK    4  A    between atoms: C_5  and  C_9
REMARK    5  A    between atoms: C_7  and  C_11
REMARK                            x       y       z     vdW  Elec       q    Type
REMARK                         _______ _______ _______ _____ _____    ______ ____
ROOT
ATOM      1  N   UNL     1     -19.402  39.838 -10.572  0.00  0.00    +0.000 NA
ATOM      2  C   UNL     1     -18.051  41.842 -10.484  0.00  0.00    +0.000 A 
ATOM      3  C   UNL     1     -18.557  40.729 -11.137  0.00  0.00    +0.000 A 
ATOM      4  C   UNL     1     -19.307  41.160  -8.549  0.00  0.00    +0.000 A 
ATOM      5  C   UNL     1     -18.439  42.055  -9.166  0.00  0.00    +0.000 A 
ATOM      6  C   UNL     1     -19.755  40.078  -9.289  0.00  0.00    +0.000 A 
ATOM      7  C   UNL     1     -19.740  41.360  -7.140  0.00  0.00    +0.000 C 
ENDROOT
BRANCH   2  10
ATOM      8  O   UNL     1     -17.584  43.731 -11.792  0.00  0.00    +0.000 OA
ATOM      9  N   UNL     1     -15.773  42.578 -10.917  0.00  0.00    +0.000 N 
ATOM     10  C   UNL     1     -17.142  42.784 -11.121  0.00  0.00    +0.000 C 
ATOM     11  C   UNL     1     -14.747  43.437 -11.462  0.00  0.00    +0.000 C 
ATOM     12  H   UNL     1     -15.472  41.777 -10.367  0.00  0.00    +0.000 HD
ENDBRANCH   2  10
BRANCH   3  13
ATOM     13  N   UNL     1     -18.166  40.506 -12.481  0.00  0.00    +0.000 N 
ATOM     14  C   UNL     1     -17.015  39.738 -12.830  0.00  0.00    +0.000 C 
ATOM     15  H   UNL     1     -18.868  40.649 -13.198  0.00  0.00    +0.000 HD
ENDBRANCH   3  13
TORSDOF 2
ENDMDL
MODEL 3
REMARK VINA RESULT:    -5.216      3.993      5.181
REMARK INTER + INTRA:          -6.121
REMARK INTER:                  -5.738
REMARK INTRA:                  -0.383
REMARK UNBOUND:                -0.295
REMARK  Name = 145769789
REMARK  5 active torsions:
REMARK  status: ('A' for Active; 'I' for Inactive)
REMARK    1  A    between atoms: N_2  and  C_6
REMARK    2  A    between atoms: N_2  and  C_12
REMARK    3  A    between atoms: N_4  and  C_13
REMARK    4  A    between atoms: C_5  and  C_9
REMARK    5  A    between atoms: C_7  and  C_11
REMARK                            x       y       z     vdW  Elec       q    Type
REMARK                         _______ _______ _______ _____ _____    ______ ____
ROOT
ATOM      1  N   UNL     1     -17.737  42.262 -11.774  0.00  0.00    +0.000 NA
ATOM      2  C   UNL     1     -18.914  43.267 -13.633  0.00  0.00    +0.000 A 
ATOM      3  C   UNL     1     -18.452  42.173 -12.918  0.00  0.00    +0.000 A 
ATOM      4  C   UNL     1     -17.889  44.668 -11.967  0.00  0.00    +0.000 A 
ATOM      5  C   UNL     1     -18.623  44.534 -13.141  0.00  0.00    +0.000 A 
ATOM      6  C   UNL     1     -17.473  43.511 -11.328  0.00  0.00    +0.000 A 
ATOM      7  C   UNL     1     -17.561  46.010 -11.416  0.00  0.00    +0.000 C 
ENDROOT
BRANCH   2  10
ATOM      8  O   UNL     1     -20.827  42.657 -14.843  0.00  0.00    +0.000 OA
ATOM      9  N   UNL     1     -19.077  43.598 -16.038  0.00  0.00    +0.000 N 
ATOM     10  C   UNL     1     -19.682  43.137 -14.863  0.00  0.00    +0.000 C 
ATOM     11  C   UNL     1     -19.718  43.560 -17.333  0.00  0.00    +0.000 C 
ATOM     12  H   UNL     1     -18.132  43.970 -15.992  0.00  0.00    +0.000 HD
ENDBRANCH   2  10
BRANCH   3  13
ATOM     13  N   UNL     1     -18.745  40.877 -13.413  0.00  0.00    +0.000 N 
ATOM     14  C   UNL     1     -18.934  39.752 -12.557  0.00  0.00    +0.000 C 
ATOM     15  H   UNL     1     -19.107  40.813 -14.358  0.00  0.00    +0.000 HD
ENDBRANCH   3  13
TORSDOF 2
ENDMDL
MODEL 4
REMARK VINA RESULT:    -5.061      2.470      2.854
REMARK INTER + INTRA:          -5.947
REMARK INTER:                  -5.565
REMARK INTRA:                  -0.383
REMARK UNBOUND:                -0.295
REMARK  Name = 145769789
REMARK  5 active torsions:
REMARK  status: ('A' for Active; 'I' for Inactive)
REMARK    1  A    between atoms: N_2  and  C_6
REMARK    2  A    between atoms: N_2  and  C_12
REMARK    3  A    between atoms: N_4  and  C_13
REMARK    4  A    between atoms: C_5  and  C_9
REMARK    5  A    between atoms: C_7  and  C_11
REMARK                            x       y       z     vdW  Elec       q    Type
REMARK                         _______ _______ _______ _____ _____    ______ ____
ROOT
ATOM      1  N   UNL     1     -19.529  40.862 -11.927  0.00  0.00    +0.000 NA
ATOM      2  C   UNL     1     -17.869  42.560 -11.471  0.00  0.00    +0.000 A 
ATOM      3  C   UNL     1     -18.693  41.845 -12.327  0.00  0.00    +0.000 A 
ATOM      4  C   UNL     1     -18.755  41.239  -9.667  0.00  0.00    +0.000 A 
ATOM      5  C   UNL     1     -17.908  42.245 -10.118  0.00  0.00    +0.000 A 
ATOM      6  C   UNL     1     -19.538  40.583 -10.604  0.00  0.00    +0.000 A 
ATOM      7  C   UNL     1     -18.819  40.878  -8.226  0.00  0.00    +0.000 C 
ENDROOT
BRANCH   2  10
ATOM      8  O   UNL     1     -16.009  43.346 -12.663  0.00  0.00    +0.000 OA
ATOM      9  N   UNL     1     -17.286  44.921 -11.539  0.00  0.00    +0.000 N 
ATOM     10  C   UNL     1     -16.979  43.615 -11.934  0.00  0.00    +0.000 C 
ATOM     11  C   UNL     1     -16.513  46.077 -11.934  0.00  0.00    +0.000 C 
ATOM     12  H   UNL     1     -18.086  45.077 -10.931  0.00  0.00    +0.000 HD
ENDBRANCH   2  10
BRANCH   3  13
ATOM     13  N   UNL     1     -18.659  42.161 -13.709  0.00  0.00    +0.000 N 
ATOM     14  C   UNL     1     -19.640  42.988 -14.332  0.00  0.00    +0.000 C 
ATOM     15  H   UNL     1     -17.776  42.037 -14.192  0.00  0.00    +0.000 HD
ENDBRANCH   3  13
TORSDOF 2
ENDMDL
MODEL 5
REMARK VINA RESULT:    -4.929      3.475      4.990
REMARK INTER + INTRA:          -5.800
REMARK INTER:                  -5.388
REMARK INTRA:                  -0.411
REMARK UNBOUND:                -0.295
REMARK  Name = 145769789
REMARK  5 active torsions:
REMARK  status: ('A' for Active; 'I' for Inactive)
REMARK    1  A    between atoms: N_2  and  C_6
REMARK    2  A    between atoms: N_2  and  C_12
REMARK    3  A    between atoms: N_4  and  C_13
REMARK    4  A    between atoms: C_5  and  C_9
REMARK    5  A    between atoms: C_7  and  C_11
REMARK                            x       y       z     vdW  Elec       q    Type
REMARK                         _______ _______ _______ _____ _____    ______ ____
ROOT
ATOM      1  N   UNL     1     -16.490  41.026 -12.072  0.00  0.00    +0.000 NA
ATOM      2  C   UNL     1     -18.332  42.069 -13.241  0.00  0.00    +0.000 A 
ATOM      3  C   UNL     1     -17.007  42.012 -12.838  0.00  0.00    +0.000 A 
ATOM      4  C   UNL     1     -18.687  40.015 -12.041  0.00  0.00    +0.000 A 
ATOM      5  C   UNL     1     -19.181  41.048 -12.832  0.00  0.00    +0.000 A 
ATOM      6  C   UNL     1     -17.347  40.051 -11.692  0.00  0.00    +0.000 A 
ATOM      7  C   UNL     1     -19.570  38.908 -11.586  0.00  0.00    +0.000 C 
ENDROOT
BRANCH   2  10
ATOM      8  O   UNL     1     -18.810  44.324 -13.674  0.00  0.00    +0.000 OA
ATOM      9  N   UNL     1     -19.386  42.789 -15.313  0.00  0.00    +0.000 N 
ATOM     10  C   UNL     1     -18.858  43.146 -14.068  0.00  0.00    +0.000 C 
ATOM     11  C   UNL     1     -19.924  43.744 -16.256  0.00  0.00    +0.000 C 
ATOM     12  H   UNL     1     -19.409  41.807 -15.575  0.00  0.00    +0.000 HD
ENDBRANCH   2  10
BRANCH   3  13
ATOM     13  N   UNL     1     -16.135  43.051 -13.253  0.00  0.00    +0.000 N 
ATOM     14  C   UNL     1     -15.386  43.839 -12.330  0.00  0.00    +0.000 C 
ATOM     15  H   UNL     1     -15.825  43.038 -14.218  0.00  0.00    +0.000 HD
ENDBRANCH   3  13
TORSDOF 2
ENDMDL
