MODEL 1
REMARK VINA RESULT:    -5.887      0.000      0.000
REMARK INTER + INTRA:          -6.748
REMARK INTER:                  -6.576
REMARK INTRA:                  -0.172
REMARK UNBOUND:                -0.172
REMARK  Name = 145770021
REMARK  6 active torsions:
REMARK  status: ('A' for Active; 'I' for Inactive)
REMARK    1  A    between atoms: N_2  and  C_12
REMARK    2  A    between atoms: N_2  and  C_13
REMARK    3  A    between atoms: N_3  and  C_6
REMARK    4  A    between atoms: N_3  and  C_14
REMARK    5  A    between atoms: C_5  and  C_8
REMARK    6  A    between atoms: C_9  and  C_11
REMARK                            x       y       z     vdW  Elec       q    Type
REMARK                         _______ _______ _______ _____ _____    ______ ____
ROOT
ATOM      1  N   UNL     1     -19.611  39.620  -9.931  0.00  0.00    +0.000 NA
ATOM      2  C   UNL     1     -17.863  41.239 -10.341  0.00  0.00    +0.000 A 
ATOM      3  C   UNL     1     -18.582  40.100 -10.665  0.00  0.00    +0.000 A 
ATOM      4  C   UNL     1     -18.225  41.932  -9.190  0.00  0.00    +0.000 A 
ATOM      5  C   UNL     1     -19.279  41.469  -8.409  0.00  0.00    +0.000 A 
ATOM      6  C   UNL     1     -19.933  40.319  -8.819  0.00  0.00    +0.000 A 
ATOM      7  C   UNL     1     -19.689  42.186  -7.173  0.00  0.00    +0.000 C 
ENDROOT
BRANCH   2  10
ATOM      8  O   UNL     1     -15.676  41.147 -11.038  0.00  0.00    +0.000 OA
ATOM      9  N   UNL     1     -16.983  42.819 -12.016  0.00  0.00    +0.000 N 
ATOM     10  C   UNL     1     -16.747  41.737 -11.160  0.00  0.00    +0.000 C 
ATOM     11  C   UNL     1     -18.288  43.470 -12.105  0.00  0.00    +0.000 C 
ATOM     12  C   UNL     1     -15.943  43.370 -12.874  0.00  0.00    +0.000 C 
ENDBRANCH   2  10
BRANCH   3  13
ATOM     13  N   UNL     1     -18.219  39.390 -11.836  0.00  0.00    +0.000 N 
ATOM     14  C   UNL     1     -18.698  39.746 -13.131  0.00  0.00    +0.000 C 
ATOM     15  H   UNL     1     -17.855  38.451 -11.714  0.00  0.00    +0.000 HD
ENDBRANCH   3  13
TORSDOF 2
ENDMDL
MODEL 2
REMARK VINA RESULT:    -5.132      1.987      2.334
REMARK INTER + INTRA:          -5.904
REMARK INTER:                  -5.964
REMARK INTRA:                   0.060
REMARK UNBOUND:                -0.172
REMARK  Name = 145770021
REMARK  6 active torsions:
REMARK  status: ('A' for Active; 'I' for Inactive)
REMARK    1  A    between atoms: N_2  and  C_12
REMARK    2  A    between atoms: N_2  and  C_13
REMARK    3  A    between atoms: N_3  and  C_6
REMARK    4  A    between atoms: N_3  and  C_14
REMARK    5  A    between atoms: C_5  and  C_8
REMARK    6  A    between atoms: C_9  and  C_11
REMARK                            x       y       z     vdW  Elec       q    Type
REMARK                         _______ _______ _______ _____ _____    ______ ____
ROOT
ATOM      1  N   UNL     1     -17.730  40.531  -8.859  0.00  0.00    +0.000 NA
ATOM      2  C   UNL     1     -18.997  40.919 -10.880  0.00  0.00    +0.000 A 
ATOM      3  C   UNL     1     -17.812  40.699 -10.197  0.00  0.00    +0.000 A 
ATOM      4  C   UNL     1     -20.176  40.967 -10.142  0.00  0.00    +0.000 A 
ATOM      5  C   UNL     1     -20.131  40.798  -8.762  0.00  0.00    +0.000 A 
ATOM      6  C   UNL     1     -18.895  40.584  -8.174  0.00  0.00    +0.000 A 
ATOM      7  C   UNL     1     -21.372  40.845  -7.944  0.00  0.00    +0.000 C 
ENDROOT
BRANCH   2  10
ATOM      8  O   UNL     1     -19.347  40.104 -13.000  0.00  0.00    +0.000 OA
ATOM      9  N   UNL     1     -18.791  42.369 -12.862  0.00  0.00    +0.000 N 
ATOM     10  C   UNL     1     -19.055  41.099 -12.340  0.00  0.00    +0.000 C 
ATOM     11  C   UNL     1     -18.449  43.506 -12.010  0.00  0.00    +0.000 C 
ATOM     12  C   UNL     1     -18.839  42.645 -14.292  0.00  0.00    +0.000 C 
ENDBRANCH   2  10
BRANCH   3  13
ATOM     13  N   UNL     1     -16.609  40.649 -10.944  0.00  0.00    +0.000 N 
ATOM     14  C   UNL     1     -16.197  39.486 -11.661  0.00  0.00    +0.000 C 
ATOM     15  H   UNL     1     -15.899  41.340 -10.726  0.00  0.00    +0.000 HD
ENDBRANCH   3  13
TORSDOF 2
ENDMDL
MODEL 3
REMARK VINA RESULT:    -5.078      2.142      3.015
REMARK INTER + INTRA:          -5.844
REMARK INTER:                  -5.615
REMARK INTRA:                  -0.229
REMARK UNBOUND:                -0.172
REMARK  Name = 145770021
REMARK  6 active torsions:
REMARK  status: ('A' for Active; 'I' for Inactive)
REMARK    1  A    between atoms: N_2  and  C_12
REMARK    2  A    between atoms: N_2  and  C_13
REMARK    3  A    between atoms: N_3  and  C_6
REMARK    4  A    between atoms: N_3  and  C_14
REMARK    5  A    between atoms: C_5  and  C_8
REMARK    6  A    between atoms: C_9  and  C_11
REMARK                            x       y       z     vdW  Elec       q    Type
REMARK                         _______ _______ _______ _____ _____    ______ ____
ROOT
ATOM      1  N   UNL     1     -19.231  40.946 -12.784  0.00  0.00    +0.000 NA
ATOM      2  C   UNL     1     -18.087  42.859 -11.849  0.00  0.00    +0.000 A 
ATOM      3  C   UNL     1     -18.626  42.148 -12.909  0.00  0.00    +0.000 A 
ATOM      4  C   UNL     1     -18.176  42.301 -10.578  0.00  0.00    +0.000 A 
ATOM      5  C   UNL     1     -18.792  41.065 -10.410  0.00  0.00    +0.000 A 
ATOM      6  C   UNL     1     -19.298  40.435 -11.535  0.00  0.00    +0.000 A 
ATOM      7  C   UNL     1     -18.903  40.440  -9.065  0.00  0.00    +0.000 C 
ENDROOT
BRANCH   2  10
ATOM      8  O   UNL     1     -18.178  45.128 -12.207  0.00  0.00    +0.000 OA
ATOM      9  N   UNL     1     -16.039  44.228 -11.934  0.00  0.00    +0.000 N 
ATOM     10  C   UNL     1     -17.434  44.167 -12.016  0.00  0.00    +0.000 C 
ATOM     11  C   UNL     1     -15.221  43.039 -11.705  0.00  0.00    +0.000 C 
ATOM     12  C   UNL     1     -15.307  45.479 -12.072  0.00  0.00    +0.000 C 
ENDBRANCH   2  10
BRANCH   3  13
ATOM     13  N   UNL     1     -18.538  42.712 -14.206  0.00  0.00    +0.000 N 
ATOM     14  C   UNL     1     -19.680  43.191 -14.915  0.00  0.00    +0.000 C 
ATOM     15  H   UNL     1     -17.706  42.503 -14.747  0.00  0.00    +0.000 HD
ENDBRANCH   3  13
TORSDOF 2
ENDMDL
MODEL 4
REMARK VINA RESULT:    -4.868      2.246      4.803
REMARK INTER + INTRA:          -5.609
REMARK INTER:                  -5.317
REMARK INTRA:                  -0.292
REMARK UNBOUND:                -0.172
REMARK  Name = 145770021
REMARK  6 active torsions:
REMARK  status: ('A' for Active; 'I' for Inactive)
REMARK    1  A    between atoms: N_2  and  C_12
REMARK    2  A    between atoms: N_2  and  C_13
REMARK    3  A    between atoms: N_3  and  C_6
REMARK    4  A    between atoms: N_3  and  C_14
REMARK    5  A    between atoms: C_5  and  C_8
REMARK    6  A    between atoms: C_9  and  C_11
REMARK                            x       y       z     vdW  Elec       q    Type
REMARK                         _______ _______ _______ _____ _____    ______ ____
ROOT
ATOM      1  N   UNL     1     -16.746  44.387 -13.421  0.00  0.00    +0.000 NA
ATOM      2  C   UNL     1     -17.101  42.565 -11.873  0.00  0.00    +0.000 A 
ATOM      3  C   UNL     1     -17.542  43.475 -12.821  0.00  0.00    +0.000 A 
ATOM      4  C   UNL     1     -15.756  42.593 -11.520  0.00  0.00    +0.000 A 
ATOM      5  C   UNL     1     -14.906  43.517 -12.117  0.00  0.00    +0.000 A 
ATOM      6  C   UNL     1     -15.445  44.384 -13.053  0.00  0.00    +0.000 A 
ATOM      7  C   UNL     1     -13.463  43.573 -11.761  0.00  0.00    +0.000 C 
ENDROOT
BRANCH   2  10
ATOM      8  O   UNL     1     -18.560  41.949 -10.208  0.00  0.00    +0.000 OA
ATOM      9  N   UNL     1     -18.141  40.330 -11.841  0.00  0.00    +0.000 N 
ATOM     10  C   UNL     1     -17.993  41.583 -11.236  0.00  0.00    +0.000 C 
ATOM     11  C   UNL     1     -17.430  39.969 -13.065  0.00  0.00    +0.000 C 
ATOM     12  C   UNL     1     -19.012  39.301 -11.291  0.00  0.00    +0.000 C 
ENDBRANCH   2  10
BRANCH   3  13
ATOM     13  N   UNL     1     -18.911  43.452 -13.184  0.00  0.00    +0.000 N 
ATOM     14  C   UNL     1     -19.362  42.983 -14.454  0.00  0.00    +0.000 C 
ATOM     15  H   UNL     1     -19.541  44.045 -12.654  0.00  0.00    +0.000 HD
ENDBRANCH   3  13
TORSDOF 2
ENDMDL
