MODEL 1
REMARK VINA RESULT:    -5.253      0.000      0.000
REMARK INTER + INTRA:          -6.399
REMARK INTER:                  -6.021
REMARK INTRA:                  -0.378
REMARK UNBOUND:                -0.378
REMARK  Name = 146427045
REMARK  3 active torsions:
REMARK  status: ('A' for Active; 'I' for Inactive)
REMARK    1  A    between atoms: N_4  and  C_7
REMARK    2  A    between atoms: N_5  and  C_11
REMARK    3  A    between atoms: C_6  and  C_11
REMARK                            x       y       z     vdW  Elec       q    Type
REMARK                         _______ _______ _______ _____ _____    ______ ____
ROOT
ATOM      1 BR   UNL     1     -20.174  42.007  -6.808  0.00  0.00    +0.000 Br
ATOM      2  N   UNL     1     -19.881  39.449 -10.054  0.00  0.00    +0.000 NA
ATOM      3  C   UNL     1     -18.064  41.032 -10.252  0.00  0.00    +0.000 A 
ATOM      4  C   UNL     1     -18.795  39.940 -10.692  0.00  0.00    +0.000 A 
ATOM      5  C   UNL     1     -18.474  41.661  -9.082  0.00  0.00    +0.000 A 
ATOM      6  C   UNL     1     -19.587  41.184  -8.397  0.00  0.00    +0.000 A 
ATOM      7  C   UNL     1     -20.249  40.085  -8.919  0.00  0.00    +0.000 A 
ENDROOT
BRANCH   4   8
ATOM      8  N   UNL     1     -18.383  39.293 -11.885  0.00  0.00    +0.000 N 
ATOM      9  H   UNL     1     -18.331  39.838 -12.737  0.00  0.00    +0.000 HD
ATOM     10  H   UNL     1     -18.618  38.312 -11.970  0.00  0.00    +0.000 HD
ENDBRANCH   4   8
BRANCH   3  12
ATOM     11  O   UNL     1     -15.942  40.780 -11.216  0.00  0.00    +0.000 OA
ATOM     12  C   UNL     1     -16.898  41.538 -10.963  0.00  0.00    +0.000 C 
BRANCH  12  13
ATOM     13  N   UNL     1     -16.926  42.884 -11.326  0.00  0.00    +0.000 NA
ATOM     14  C   UNL     1     -17.547  43.230 -12.401  0.00  0.00    +0.000 C 
ENDBRANCH  12  13
ENDBRANCH   3  12
TORSDOF 3
ENDMDL
MODEL 2
REMARK VINA RESULT:    -5.173      2.956      4.606
REMARK INTER + INTRA:          -6.307
REMARK INTER:                  -5.967
REMARK INTRA:                  -0.340
REMARK UNBOUND:                -0.378
REMARK  Name = 146427045
REMARK  3 active torsions:
REMARK  status: ('A' for Active; 'I' for Inactive)
REMARK    1  A    between atoms: N_4  and  C_7
REMARK    2  A    between atoms: N_5  and  C_11
REMARK    3  A    between atoms: C_6  and  C_11
REMARK                            x       y       z     vdW  Elec       q    Type
REMARK                         _______ _______ _______ _____ _____    ______ ____
ROOT
ATOM      1 BR   UNL     1     -19.641  43.366 -14.896  0.00  0.00    +0.000 Br
ATOM      2  N   UNL     1     -16.553  42.364 -12.323  0.00  0.00    +0.000 NA
ATOM      3  C   UNL     1     -18.426  40.950 -11.742  0.00  0.00    +0.000 A 
ATOM      4  C   UNL     1     -17.124  41.394 -11.575  0.00  0.00    +0.000 A 
ATOM      5  C   UNL     1     -19.192  41.541 -12.741  0.00  0.00    +0.000 A 
ATOM      6  C   UNL     1     -18.638  42.542 -13.532  0.00  0.00    +0.000 A 
ATOM      7  C   UNL     1     -17.327  42.914 -13.286  0.00  0.00    +0.000 A 
ENDROOT
BRANCH   4   8
ATOM      8  N   UNL     1     -16.338  40.797 -10.558  0.00  0.00    +0.000 N 
ATOM      9  H   UNL     1     -15.350  40.654 -10.730  0.00  0.00    +0.000 HD
ATOM     10  H   UNL     1     -16.808  40.130  -9.957  0.00  0.00    +0.000 HD
ENDBRANCH   4   8
BRANCH   3  12
ATOM     11  O   UNL     1     -19.330  38.811 -11.427  0.00  0.00    +0.000 OA
ATOM     12  C   UNL     1     -19.014  39.903 -10.918  0.00  0.00    +0.000 C 
BRANCH  12  13
ATOM     13  N   UNL     1     -19.192  40.199  -9.567  0.00  0.00    +0.000 NA
ATOM     14  C   UNL     1     -20.354  40.030  -9.037  0.00  0.00    +0.000 C 
ENDBRANCH  12  13
ENDBRANCH   3  12
TORSDOF 3
ENDMDL
MODEL 3
REMARK VINA RESULT:    -5.030      2.725      3.904
REMARK INTER + INTRA:          -6.143
REMARK INTER:                  -5.767
REMARK INTRA:                  -0.376
REMARK UNBOUND:                -0.378
REMARK  Name = 146427045
REMARK  3 active torsions:
REMARK  status: ('A' for Active; 'I' for Inactive)
REMARK    1  A    between atoms: N_4  and  C_7
REMARK    2  A    between atoms: N_5  and  C_11
REMARK    3  A    between atoms: C_6  and  C_11
REMARK                            x       y       z     vdW  Elec       q    Type
REMARK                         _______ _______ _______ _____ _____    ______ ____
ROOT
ATOM      1 BR   UNL     1     -17.971  45.463 -12.729  0.00  0.00    +0.000 Br
ATOM      2  N   UNL     1     -19.778  41.845 -13.626  0.00  0.00    +0.000 NA
ATOM      3  C   UNL     1     -18.298  41.436 -11.758  0.00  0.00    +0.000 A 
ATOM      4  C   UNL     1     -19.225  41.026 -12.703  0.00  0.00    +0.000 A 
ATOM      5  C   UNL     1     -17.914  42.772 -11.760  0.00  0.00    +0.000 A 
ATOM      6  C   UNL     1     -18.463  43.646 -12.693  0.00  0.00    +0.000 A 
ATOM      7  C   UNL     1     -19.382  43.137 -13.596  0.00  0.00    +0.000 A 
ENDROOT
BRANCH   4   8
ATOM      8  N   UNL     1     -19.620  39.665 -12.708  0.00  0.00    +0.000 N 
ATOM      9  H   UNL     1     -18.910  38.955 -12.845  0.00  0.00    +0.000 HD
ATOM     10  H   UNL     1     -20.552  39.467 -13.052  0.00  0.00    +0.000 HD
ENDBRANCH   4   8
BRANCH   3  12
ATOM     11  O   UNL     1     -16.907  39.655 -11.137  0.00  0.00    +0.000 OA
ATOM     12  C   UNL     1     -17.719  40.529 -10.777  0.00  0.00    +0.000 C 
BRANCH  12  13
ATOM     13  N   UNL     1     -18.124  40.701  -9.454  0.00  0.00    +0.000 NA
ATOM     14  C   UNL     1     -19.319  40.358  -9.115  0.00  0.00    +0.000 C 
ENDBRANCH  12  13
ENDBRANCH   3  12
TORSDOF 3
ENDMDL
MODEL 4
REMARK VINA RESULT:    -5.011      2.626      4.349
REMARK INTER + INTRA:          -6.122
REMARK INTER:                  -5.759
REMARK INTRA:                  -0.363
REMARK UNBOUND:                -0.378
REMARK  Name = 146427045
REMARK  3 active torsions:
REMARK  status: ('A' for Active; 'I' for Inactive)
REMARK    1  A    between atoms: N_4  and  C_7
REMARK    2  A    between atoms: N_5  and  C_11
REMARK    3  A    between atoms: C_6  and  C_11
REMARK                            x       y       z     vdW  Elec       q    Type
REMARK                         _______ _______ _______ _____ _____    ______ ____
ROOT
ATOM      1 BR   UNL     1     -18.479  45.367 -12.756  0.00  0.00    +0.000 Br
ATOM      2  N   UNL     1     -15.690  42.583 -11.479  0.00  0.00    +0.000 NA
ATOM      3  C   UNL     1     -17.714  41.358 -11.977  0.00  0.00    +0.000 A 
ATOM      4  C   UNL     1     -16.395  41.433 -11.558  0.00  0.00    +0.000 A 
ATOM      5  C   UNL     1     -18.350  42.540 -12.339  0.00  0.00    +0.000 A 
ATOM      6  C   UNL     1     -17.655  43.744 -12.273  0.00  0.00    +0.000 A 
ATOM      7  C   UNL     1     -16.340  43.712 -11.841  0.00  0.00    +0.000 A 
ENDROOT
BRANCH   4   8
ATOM      8  N   UNL     1     -15.741  40.231 -11.187  0.00  0.00    +0.000 N 
ATOM      9  H   UNL     1     -15.874  39.878 -10.247  0.00  0.00    +0.000 HD
ATOM     10  H   UNL     1     -14.851  40.045 -11.634  0.00  0.00    +0.000 HD
ENDBRANCH   4   8
BRANCH   3  12
ATOM     11  O   UNL     1     -18.833  39.666 -13.151  0.00  0.00    +0.000 OA
ATOM     12  C   UNL     1     -18.448  40.102 -12.050  0.00  0.00    +0.000 C 
BRANCH  12  13
ATOM     13  N   UNL     1     -18.683  39.448 -10.841  0.00  0.00    +0.000 NA
ATOM     14  C   UNL     1     -19.435  40.012  -9.959  0.00  0.00    +0.000 C 
ENDBRANCH  12  13
ENDBRANCH   3  12
TORSDOF 3
ENDMDL
MODEL 5
REMARK VINA RESULT:    -4.306      2.995      4.224
REMARK INTER + INTRA:          -5.313
REMARK INTER:                  -5.014
REMARK INTRA:                  -0.299
REMARK UNBOUND:                -0.378
REMARK  Name = 146427045
REMARK  3 active torsions:
REMARK  status: ('A' for Active; 'I' for Inactive)
REMARK    1  A    between atoms: N_4  and  C_7
REMARK    2  A    between atoms: N_5  and  C_11
REMARK    3  A    between atoms: C_6  and  C_11
REMARK                            x       y       z     vdW  Elec       q    Type
REMARK                         _______ _______ _______ _____ _____    ______ ____
ROOT
ATOM      1 BR   UNL     1     -19.567  40.091 -10.017  0.00  0.00    +0.000 Br
ATOM      2  N   UNL     1     -16.398  42.176 -11.680  0.00  0.00    +0.000 NA
ATOM      3  C   UNL     1     -18.356  42.734 -12.985  0.00  0.00    +0.000 A 
ATOM      4  C   UNL     1     -17.004  42.833 -12.695  0.00  0.00    +0.000 A 
ATOM      5  C   UNL     1     -19.135  41.909 -12.183  0.00  0.00    +0.000 A 
ATOM      6  C   UNL     1     -18.547  41.218 -11.128  0.00  0.00    +0.000 A 
ATOM      7  C   UNL     1     -17.188  41.385 -10.921  0.00  0.00    +0.000 A 
ENDROOT
BRANCH   4   8
ATOM      8  N   UNL     1     -16.203  43.673 -13.509  0.00  0.00    +0.000 N 
ATOM      9  H   UNL     1     -16.368  44.672 -13.484  0.00  0.00    +0.000 HD
ATOM     10  H   UNL     1     -15.875  43.275 -14.381  0.00  0.00    +0.000 HD
ENDBRANCH   4   8
BRANCH   3  12
ATOM     11  O   UNL     1     -18.786  44.677 -14.224  0.00  0.00    +0.000 OA
ATOM     12  C   UNL     1     -18.980  43.454 -14.086  0.00  0.00    +0.000 C 
BRANCH  12  13
ATOM     13  N   UNL     1     -19.782  42.704 -14.945  0.00  0.00    +0.000 NA
ATOM     14  C   UNL     1     -19.935  43.097 -16.163  0.00  0.00    +0.000 C 
ENDBRANCH  12  13
ENDBRANCH   3  12
TORSDOF 3
ENDMDL
