MODEL 1
REMARK VINA RESULT:    -5.907      0.000      0.000
REMARK INTER + INTRA:          -5.907
REMARK INTER:                  -5.907
REMARK INTRA:                   0.000
REMARK UNBOUND:                 0.000
REMARK  Name = 146517038
REMARK  0 active torsions:
REMARK  status: ('A' for Active; 'I' for Inactive)
REMARK                            x       y       z     vdW  Elec       q    Type
REMARK                         _______ _______ _______ _____ _____    ______ ____
ROOT
ATOM      1  I   UNL     1     -21.593  42.096  -6.152  0.00  0.00    +0.000 I 
ATOM      2  O   UNL     1     -21.486  39.986  -8.653  0.00  0.00    +0.000 OA
ATOM      3  N   UNL     1     -20.215  41.720  -7.732  0.00  0.00    +0.000 N 
ATOM      4  N   UNL     1     -18.148  42.355  -8.726  0.00  0.00    +0.000 NA
ATOM      5  N   UNL     1     -17.364  41.262 -10.627  0.00  0.00    +0.000 NA
ATOM      6  C   UNL     1     -19.466  40.539  -9.703  0.00  0.00    +0.000 A 
ATOM      7  C   UNL     1     -18.342  41.362  -9.698  0.00  0.00    +0.000 A 
ATOM      8  C   UNL     1     -20.494  40.707  -8.655  0.00  0.00    +0.000 A 
ATOM      9  C   UNL     1     -19.593  39.573 -10.700  0.00  0.00    +0.000 A 
ATOM     10  C   UNL     1     -19.061  42.482  -7.820  0.00  0.00    +0.000 A 
ATOM     11  C   UNL     1     -18.598  39.457 -11.662  0.00  0.00    +0.000 A 
ATOM     12  C   UNL     1     -17.514  40.315 -11.582  0.00  0.00    +0.000 A 
ENDROOT
TORSDOF 0
ENDMDL
MODEL 2
REMARK VINA RESULT:    -5.751      2.743      4.014
REMARK INTER + INTRA:          -5.751
REMARK INTER:                  -5.751
REMARK INTRA:                   0.000
REMARK UNBOUND:                 0.000
REMARK  Name = 146517038
REMARK  0 active torsions:
REMARK  status: ('A' for Active; 'I' for Inactive)
REMARK                            x       y       z     vdW  Elec       q    Type
REMARK                         _______ _______ _______ _____ _____    ______ ____
ROOT
ATOM      1  I   UNL     1     -17.012  40.088 -12.746  0.00  0.00    +0.000 I 
ATOM      2  O   UNL     1     -19.581  39.222 -10.909  0.00  0.00    +0.000 OA
ATOM      3  N   UNL     1     -17.888  40.835 -10.954  0.00  0.00    +0.000 N 
ATOM      4  N   UNL     1     -17.757  42.489  -9.247  0.00  0.00    +0.000 NA
ATOM      5  N   UNL     1     -19.311  42.524  -7.513  0.00  0.00    +0.000 NA
ATOM      6  C   UNL     1     -19.536  40.808  -9.186  0.00  0.00    +0.000 A 
ATOM      7  C   UNL     1     -18.891  41.919  -8.648  0.00  0.00    +0.000 A 
ATOM      8  C   UNL     1     -19.018  40.200 -10.430  0.00  0.00    +0.000 A 
ATOM      9  C   UNL     1     -20.657  40.295  -8.536  0.00  0.00    +0.000 A 
ATOM     10  C   UNL     1     -17.325  41.939 -10.334  0.00  0.00    +0.000 A 
ATOM     11  C   UNL     1     -21.102  40.904  -7.370  0.00  0.00    +0.000 A 
ATOM     12  C   UNL     1     -20.402  42.006  -6.904  0.00  0.00    +0.000 A 
ENDROOT
TORSDOF 0
ENDMDL
MODEL 3
REMARK VINA RESULT:    -5.741      2.939      4.654
REMARK INTER + INTRA:          -5.741
REMARK INTER:                  -5.741
REMARK INTRA:                   0.000
REMARK UNBOUND:                 0.000
REMARK  Name = 146517038
REMARK  0 active torsions:
REMARK  status: ('A' for Active; 'I' for Inactive)
REMARK                            x       y       z     vdW  Elec       q    Type
REMARK                         _______ _______ _______ _____ _____    ______ ____
ROOT
ATOM      1  I   UNL     1     -16.647  40.723 -11.259  0.00  0.00    +0.000 I 
ATOM      2  O   UNL     1     -17.705  42.496  -8.718  0.00  0.00    +0.000 OA
ATOM      3  N   UNL     1     -18.415  40.726 -10.072  0.00  0.00    +0.000 N 
ATOM      4  N   UNL     1     -20.534  39.707  -9.705  0.00  0.00    +0.000 NA
ATOM      5  N   UNL     1     -21.928  40.457  -7.995  0.00  0.00    +0.000 NA
ATOM      6  C   UNL     1     -19.806  41.559  -8.279  0.00  0.00    +0.000 A 
ATOM      7  C   UNL     1     -20.747  40.598  -8.641  0.00  0.00    +0.000 A 
ATOM      8  C   UNL     1     -18.538  41.653  -9.032  0.00  0.00    +0.000 A 
ATOM      9  C   UNL     1     -20.085  42.411  -7.211  0.00  0.00    +0.000 A 
ATOM     10  C   UNL     1     -19.417  39.810 -10.347  0.00  0.00    +0.000 A 
ATOM     11  C   UNL     1     -21.291  42.280  -6.537  0.00  0.00    +0.000 A 
ATOM     12  C   UNL     1     -22.170  41.297  -6.963  0.00  0.00    +0.000 A 
ENDROOT
TORSDOF 0
ENDMDL
MODEL 4
REMARK VINA RESULT:    -5.425      4.217      5.029
REMARK INTER + INTRA:          -5.425
REMARK INTER:                  -5.425
REMARK INTRA:                   0.000
REMARK UNBOUND:                 0.000
REMARK  Name = 146517038
REMARK  0 active torsions:
REMARK  status: ('A' for Active; 'I' for Inactive)
REMARK                            x       y       z     vdW  Elec       q    Type
REMARK                         _______ _______ _______ _____ _____    ______ ____
ROOT
ATOM      1  I   UNL     1     -18.097  45.999 -13.856  0.00  0.00    +0.000 I 
ATOM      2  O   UNL     1     -17.368  44.101 -11.290  0.00  0.00    +0.000 OA
ATOM      3  N   UNL     1     -18.493  43.972 -13.336  0.00  0.00    +0.000 N 
ATOM      4  N   UNL     1     -19.525  41.938 -14.015  0.00  0.00    +0.000 NA
ATOM      5  N   UNL     1     -19.429  40.051 -12.654  0.00  0.00    +0.000 NA
ATOM      6  C   UNL     1     -18.351  42.056 -11.870  0.00  0.00    +0.000 A 
ATOM      7  C   UNL     1     -19.087  41.349 -12.819  0.00  0.00    +0.000 A 
ATOM      8  C   UNL     1     -18.015  43.473 -12.120  0.00  0.00    +0.000 A 
ATOM      9  C   UNL     1     -17.949  41.406 -10.704  0.00  0.00    +0.000 A 
ATOM     10  C   UNL     1     -19.218  43.178 -14.210  0.00  0.00    +0.000 A 
ATOM     11  C   UNL     1     -18.292  40.074 -10.519  0.00  0.00    +0.000 A 
ATOM     12  C   UNL     1     -19.024  39.446 -11.513  0.00  0.00    +0.000 A 
ENDROOT
TORSDOF 0
ENDMDL
MODEL 5
REMARK VINA RESULT:    -4.642      5.755      6.619
REMARK INTER + INTRA:          -4.642
REMARK INTER:                  -4.642
REMARK INTRA:                   0.000
REMARK UNBOUND:                 0.000
REMARK  Name = 146517038
REMARK  0 active torsions:
REMARK  status: ('A' for Active; 'I' for Inactive)
REMARK                            x       y       z     vdW  Elec       q    Type
REMARK                         _______ _______ _______ _____ _____    ______ ____
ROOT
ATOM      1  I   UNL     1     -19.028  46.584 -16.613  0.00  0.00    +0.000 I 
ATOM      2  O   UNL     1     -17.729  45.788 -13.716  0.00  0.00    +0.000 OA
ATOM      3  N   UNL     1     -19.123  44.870 -15.353  0.00  0.00    +0.000 N 
ATOM      4  N   UNL     1     -20.018  42.682 -15.081  0.00  0.00    +0.000 NA
ATOM      5  N   UNL     1     -19.520  41.427 -13.183  0.00  0.00    +0.000 NA
ATOM      6  C   UNL     1     -18.561  43.628 -13.357  0.00  0.00    +0.000 A 
ATOM      7  C   UNL     1     -19.348  42.591 -13.852  0.00  0.00    +0.000 A 
ATOM      8  C   UNL     1     -18.420  44.871 -14.144  0.00  0.00    +0.000 A 
ATOM      9  C   UNL     1     -17.923  43.468 -12.128  0.00  0.00    +0.000 A 
ATOM     10  C   UNL     1     -19.879  43.779 -15.750  0.00  0.00    +0.000 A 
ATOM     11  C   UNL     1     -18.089  42.280 -11.429  0.00  0.00    +0.000 A 
ATOM     12  C   UNL     1     -18.889  41.299 -11.994  0.00  0.00    +0.000 A 
ENDROOT
TORSDOF 0
ENDMDL
