MODEL 1
REMARK VINA RESULT:    -6.564      0.000      0.000
REMARK INTER + INTRA:          -7.485
REMARK INTER:                  -7.331
REMARK INTRA:                  -0.154
REMARK UNBOUND:                -0.154
REMARK  Name = 147531350
REMARK  3 active torsions:
REMARK  status: ('A' for Active; 'I' for Inactive)
REMARK    1  A    between atoms: N_3  and  C_11
REMARK    2  A    between atoms: C_6  and  C_8
REMARK    3  A    between atoms: C_8  and  C_12
REMARK                            x       y       z     vdW  Elec       q    Type
REMARK                         _______ _______ _______ _____ _____    ______ ____
ROOT
ATOM      1  N   UNL     1     -20.338  39.805  -9.438  0.00  0.00    +0.000 NA
ATOM      2  C   UNL     1     -20.718  41.447  -7.705  0.00  0.00    +0.000 A 
ATOM      3  C   UNL     1     -19.421  41.922  -7.860  0.00  0.00    +0.000 A 
ATOM      4  C   UNL     1     -21.125  40.396  -8.511  0.00  0.00    +0.000 A 
ATOM      5  C   UNL     1     -18.580  41.339  -8.803  0.00  0.00    +0.000 A 
ATOM      6  C   UNL     1     -19.083  40.292  -9.560  0.00  0.00    +0.000 A 
ENDROOT
BRANCH   2   8
ATOM      7  O   UNL     1     -22.799  42.322  -7.023  0.00  0.00    +0.000 OA
ATOM      8  C   UNL     1     -21.620  42.034  -6.731  0.00  0.00    +0.000 C 
ATOM      9  C   UNL     1     -21.141  42.318  -5.310  0.00  0.00    +0.000 C 
ENDBRANCH   2   8
BRANCH   6  10
ATOM     10  N   UNL     1     -18.278  39.674 -10.521  0.00  0.00    +0.000 NA
ATOM     11  N   UNL     1     -18.789  39.685 -11.662  0.00  0.00    +0.000 NA
ATOM     12  N   UNL     1     -19.251  39.692 -12.705  0.00  0.00    +0.000 NA
ENDBRANCH   6  10
TORSDOF 2
ENDMDL
MODEL 2
REMARK VINA RESULT:    -6.557      3.239      5.134
REMARK INTER + INTRA:          -7.478
REMARK INTER:                  -7.446
REMARK INTRA:                  -0.032
REMARK UNBOUND:                -0.154
REMARK  Name = 147531350
REMARK  3 active torsions:
REMARK  status: ('A' for Active; 'I' for Inactive)
REMARK    1  A    between atoms: N_3  and  C_11
REMARK    2  A    between atoms: C_6  and  C_8
REMARK    3  A    between atoms: C_8  and  C_12
REMARK                            x       y       z     vdW  Elec       q    Type
REMARK                         _______ _______ _______ _____ _____    ______ ____
ROOT
ATOM      1  N   UNL     1     -18.816  41.957  -7.923  0.00  0.00    +0.000 NA
ATOM      2  C   UNL     1     -19.069  40.381  -9.738  0.00  0.00    +0.000 A 
ATOM      3  C   UNL     1     -20.349  40.065  -9.296  0.00  0.00    +0.000 A 
ATOM      4  C   UNL     1     -18.350  41.325  -9.023  0.00  0.00    +0.000 A 
ATOM      5  C   UNL     1     -20.863  40.694  -8.167  0.00  0.00    +0.000 A 
ATOM      6  C   UNL     1     -20.064  41.623  -7.521  0.00  0.00    +0.000 A 
ENDROOT
BRANCH   2   8
ATOM      7  O   UNL     1     -19.147  38.905 -11.576  0.00  0.00    +0.000 OA
ATOM      8  C   UNL     1     -18.504  39.745 -10.915  0.00  0.00    +0.000 C 
ATOM      9  C   UNL     1     -17.090  40.093 -11.374  0.00  0.00    +0.000 C 
ENDBRANCH   2   8
BRANCH   6  10
ATOM     10  N   UNL     1     -20.536  42.283  -6.383  0.00  0.00    +0.000 NA
ATOM     11  N   UNL     1     -21.762  42.520  -6.433  0.00  0.00    +0.000 NA
ATOM     12  N   UNL     1     -22.881  42.740  -6.473  0.00  0.00    +0.000 NA
ENDBRANCH   6  10
TORSDOF 2
ENDMDL
MODEL 3
REMARK VINA RESULT:    -5.149      3.623      5.171
REMARK INTER + INTRA:          -5.904
REMARK INTER:                  -5.736
REMARK INTRA:                  -0.169
REMARK UNBOUND:                -0.154
REMARK  Name = 147531350
REMARK  3 active torsions:
REMARK  status: ('A' for Active; 'I' for Inactive)
REMARK    1  A    between atoms: N_3  and  C_11
REMARK    2  A    between atoms: C_6  and  C_8
REMARK    3  A    between atoms: C_8  and  C_12
REMARK                            x       y       z     vdW  Elec       q    Type
REMARK                         _______ _______ _______ _____ _____    ______ ____
ROOT
ATOM      1  N   UNL     1     -19.785  40.452 -11.015  0.00  0.00    +0.000 NA
ATOM      2  C   UNL     1     -18.181  42.121 -11.711  0.00  0.00    +0.000 A 
ATOM      3  C   UNL     1     -17.824  42.343 -10.386  0.00  0.00    +0.000 A 
ATOM      4  C   UNL     1     -19.158  41.173 -11.971  0.00  0.00    +0.000 A 
ATOM      5  C   UNL     1     -18.448  41.621  -9.374  0.00  0.00    +0.000 A 
ATOM      6  C   UNL     1     -19.414  40.696  -9.737  0.00  0.00    +0.000 A 
ENDROOT
BRANCH   2   8
ATOM      7  O   UNL     1     -16.306  42.914 -12.903  0.00  0.00    +0.000 OA
ATOM      8  C   UNL     1     -17.548  42.856 -12.791  0.00  0.00    +0.000 C 
ATOM      9  C   UNL     1     -18.397  43.586 -13.828  0.00  0.00    +0.000 C 
ENDBRANCH   2   8
BRANCH   6  10
ATOM     10  N   UNL     1     -20.069  39.945  -8.757  0.00  0.00    +0.000 NA
ATOM     11  N   UNL     1     -21.108  40.498  -8.336  0.00  0.00    +0.000 NA
ATOM     12  N   UNL     1     -22.058  40.998  -7.948  0.00  0.00    +0.000 NA
ENDBRANCH   6  10
TORSDOF 2
ENDMDL
MODEL 4
REMARK VINA RESULT:    -5.146      2.571      3.270
REMARK INTER + INTRA:          -5.901
REMARK INTER:                  -5.782
REMARK INTRA:                  -0.119
REMARK UNBOUND:                -0.154
REMARK  Name = 147531350
REMARK  3 active torsions:
REMARK  status: ('A' for Active; 'I' for Inactive)
REMARK    1  A    between atoms: N_3  and  C_11
REMARK    2  A    between atoms: C_6  and  C_8
REMARK    3  A    between atoms: C_8  and  C_12
REMARK                            x       y       z     vdW  Elec       q    Type
REMARK                         _______ _______ _______ _____ _____    ______ ____
ROOT
ATOM      1  N   UNL     1     -19.288  41.060 -12.092  0.00  0.00    +0.000 NA
ATOM      2  C   UNL     1     -19.005  41.420  -9.719  0.00  0.00    +0.000 A 
ATOM      3  C   UNL     1     -18.040  42.388  -9.973  0.00  0.00    +0.000 A 
ATOM      4  C   UNL     1     -19.594  40.790 -10.803  0.00  0.00    +0.000 A 
ATOM      5  C   UNL     1     -17.698  42.693 -11.286  0.00  0.00    +0.000 A 
ATOM      6  C   UNL     1     -18.345  42.006 -12.301  0.00  0.00    +0.000 A 
ENDROOT
BRANCH   2   8
ATOM      7  O   UNL     1     -19.612  39.901  -8.020  0.00  0.00    +0.000 OA
ATOM      8  C   UNL     1     -19.386  41.080  -8.360  0.00  0.00    +0.000 C 
ATOM      9  C   UNL     1     -19.522  42.172  -7.302  0.00  0.00    +0.000 C 
ENDBRANCH   2   8
BRANCH   6  10
ATOM     10  N   UNL     1     -18.036  42.277 -13.637  0.00  0.00    +0.000 NA
ATOM     11  N   UNL     1     -19.053  42.417 -14.351  0.00  0.00    +0.000 NA
ATOM     12  N   UNL     1     -19.978  42.545 -15.007  0.00  0.00    +0.000 NA
ENDBRANCH   6  10
TORSDOF 2
ENDMDL
MODEL 5
REMARK VINA RESULT:    -5.113      1.680      2.334
REMARK INTER + INTRA:          -5.864
REMARK INTER:                  -5.679
REMARK INTRA:                  -0.185
REMARK UNBOUND:                -0.154
REMARK  Name = 147531350
REMARK  3 active torsions:
REMARK  status: ('A' for Active; 'I' for Inactive)
REMARK    1  A    between atoms: N_3  and  C_11
REMARK    2  A    between atoms: C_6  and  C_8
REMARK    3  A    between atoms: C_8  and  C_12
REMARK                            x       y       z     vdW  Elec       q    Type
REMARK                         _______ _______ _______ _____ _____    ______ ____
ROOT
ATOM      1  N   UNL     1     -18.100  41.821 -10.037  0.00  0.00    +0.000 NA
ATOM      2  C   UNL     1     -19.750  41.492  -8.302  0.00  0.00    +0.000 A 
ATOM      3  C   UNL     1     -20.303  40.435  -9.017  0.00  0.00    +0.000 A 
ATOM      4  C   UNL     1     -18.659  42.146  -8.850  0.00  0.00    +0.000 A 
ATOM      5  C   UNL     1     -19.756  40.071 -10.243  0.00  0.00    +0.000 A 
ATOM      6  C   UNL     1     -18.665  40.790 -10.705  0.00  0.00    +0.000 A 
ENDROOT
BRANCH   2   8
ATOM      7  O   UNL     1     -19.569  42.348  -6.111  0.00  0.00    +0.000 OA
ATOM      8  C   UNL     1     -20.297  41.895  -7.018  0.00  0.00    +0.000 C 
ATOM      9  C   UNL     1     -21.794  41.773  -6.746  0.00  0.00    +0.000 C 
ENDBRANCH   2   8
BRANCH   6  10
ATOM     10  N   UNL     1     -18.079  40.462 -11.931  0.00  0.00    +0.000 NA
ATOM     11  N   UNL     1     -16.946  39.948 -11.805  0.00  0.00    +0.000 NA
ATOM     12  N   UNL     1     -15.911  39.480 -11.697  0.00  0.00    +0.000 NA
ENDBRANCH   6  10
TORSDOF 2
ENDMDL
