MODEL 1
REMARK VINA RESULT:    -6.771      0.000      0.000
REMARK INTER + INTRA:          -8.909
REMARK INTER:                  -8.354
REMARK INTRA:                  -0.554
REMARK UNBOUND:                -0.554
REMARK  Name = 148048379
REMARK  6 active torsions:
REMARK  status: ('A' for Active; 'I' for Inactive)
REMARK    1  A    between atoms: N_3  and  C_11
REMARK    2  A    between atoms: N_5  and  C_15
REMARK    3  A    between atoms: N_6  and  C_16
REMARK    4  A    between atoms: C_7  and  C_10
REMARK    5  A    between atoms: C_8  and  C_13
REMARK    6  A    between atoms: C_10  and  C_14
REMARK                            x       y       z     vdW  Elec       q    Type
REMARK                         _______ _______ _______ _____ _____    ______ ____
ROOT
ATOM      1  N   UNL     1     -19.090  42.028  -7.021  0.00  0.00    +0.000 NA
ATOM      2  C   UNL     1     -19.730  41.095  -9.157  0.00  0.00    +0.000 A 
ATOM      3  C   UNL     1     -21.409  41.540  -7.495  0.00  0.00    +0.000 A 
ATOM      4  C   UNL     1     -21.062  41.081  -8.761  0.00  0.00    +0.000 A 
ATOM      5  C   UNL     1     -20.394  41.999  -6.670  0.00  0.00    +0.000 A 
ATOM      6  C   UNL     1     -18.791  41.573  -8.258  0.00  0.00    +0.000 A 
ENDROOT
BRANCH   3   9
ATOM      7  O   UNL     1     -23.282  42.408  -6.359  0.00  0.00    +0.000 OA
ATOM      8  N   UNL     1     -23.591  40.454  -7.521  0.00  0.00    +0.000 N 
ATOM      9  C   UNL     1     -22.807  41.519  -7.086  0.00  0.00    +0.000 C 
ATOM     10  H   UNL     1     -23.218  39.716  -8.108  0.00  0.00    +0.000 HD
ATOM     11  H   UNL     1     -24.569  40.386  -7.260  0.00  0.00    +0.000 HD
ENDBRANCH   3   9
BRANCH   5  12
ATOM     12  N   UNL     1     -20.740  42.468  -5.377  0.00  0.00    +0.000 N 
ATOM     13  H   UNL     1     -20.131  42.242  -4.600  0.00  0.00    +0.000 HD
ATOM     14  H   UNL     1     -21.729  42.569  -5.184  0.00  0.00    +0.000 HD
ENDBRANCH   5  12
BRANCH   2  15
ATOM     15  C   UNL     1     -19.330  40.617 -10.489  0.00  0.00    +0.000 C 
ATOM     16  C   UNL     1     -19.720  39.428 -10.978  0.00  0.00    +0.000 C 
BRANCH  16  17
ATOM     17  N   UNL     1     -19.437  38.851 -12.178  0.00  0.00    +0.000 N 
ATOM     18  H   UNL     1     -19.851  37.952 -12.393  0.00  0.00    +0.000 HD
ATOM     19  H   UNL     1     -18.827  39.283 -12.855  0.00  0.00    +0.000 HD
ENDBRANCH  16  17
BRANCH  15  21
ATOM     20  N   UNL     1     -18.863  41.877 -12.536  0.00  0.00    +0.000 NA
ATOM     21  C   UNL     1     -18.478  41.451 -11.381  0.00  0.00    +0.000 C 
ATOM     22  C   UNL     1     -17.849  42.676 -13.219  0.00  0.00    +0.000 C 
ENDBRANCH  15  21
ENDBRANCH   2  15
TORSDOF 5
ENDMDL
MODEL 2
REMARK VINA RESULT:    -6.203      2.920      5.335
REMARK INTER + INTRA:          -8.207
REMARK INTER:                  -7.489
REMARK INTRA:                  -0.718
REMARK UNBOUND:                -0.554
REMARK  Name = 148048379
REMARK  6 active torsions:
REMARK  status: ('A' for Active; 'I' for Inactive)
REMARK    1  A    between atoms: N_3  and  C_11
REMARK    2  A    between atoms: N_5  and  C_15
REMARK    3  A    between atoms: N_6  and  C_16
REMARK    4  A    between atoms: C_7  and  C_10
REMARK    5  A    between atoms: C_8  and  C_13
REMARK    6  A    between atoms: C_10  and  C_14
REMARK                            x       y       z     vdW  Elec       q    Type
REMARK                         _______ _______ _______ _____ _____    ______ ____
ROOT
ATOM      1  N   UNL     1     -18.740  40.517 -13.246  0.00  0.00    +0.000 NA
ATOM      2  C   UNL     1     -17.806  42.568 -12.372  0.00  0.00    +0.000 A 
ATOM      3  C   UNL     1     -18.776  40.960 -10.869  0.00  0.00    +0.000 A 
ATOM      4  C   UNL     1     -18.141  42.179 -11.079  0.00  0.00    +0.000 A 
ATOM      5  C   UNL     1     -19.051  40.172 -11.977  0.00  0.00    +0.000 A 
ATOM      6  C   UNL     1     -18.125  41.709 -13.410  0.00  0.00    +0.000 A 
ENDROOT
BRANCH   3   9
ATOM      7  O   UNL     1     -20.302  40.317  -9.195  0.00  0.00    +0.000 OA
ATOM      8  N   UNL     1     -18.099  40.483  -8.578  0.00  0.00    +0.000 N 
ATOM      9  C   UNL     1     -19.126  40.561  -9.513  0.00  0.00    +0.000 C 
ATOM     10  H   UNL     1     -17.135  40.687  -8.818  0.00  0.00    +0.000 HD
ATOM     11  H   UNL     1     -18.288  40.218  -7.617  0.00  0.00    +0.000 HD
ENDBRANCH   3   9
BRANCH   5  12
ATOM     12  N   UNL     1     -19.698  38.927 -11.770  0.00  0.00    +0.000 N 
ATOM     13  H   UNL     1     -19.437  38.143 -12.356  0.00  0.00    +0.000 HD
ATOM     14  H   UNL     1     -20.652  38.966 -11.435  0.00  0.00    +0.000 HD
ENDBRANCH   5  12
BRANCH   2  15
ATOM     15  C   UNL     1     -17.134  43.851 -12.627  0.00  0.00    +0.000 C 
ATOM     16  C   UNL     1     -15.902  43.929 -13.158  0.00  0.00    +0.000 C 
BRANCH  16  17
ATOM     17  N   UNL     1     -15.155  45.028 -13.450  0.00  0.00    +0.000 N 
ATOM     18  H   UNL     1     -14.421  45.301 -12.808  0.00  0.00    +0.000 HD
ATOM     19  H   UNL     1     -15.309  45.582 -14.279  0.00  0.00    +0.000 HD
ENDBRANCH  16  17
BRANCH  15  21
ATOM     20  N   UNL     1     -17.386  45.965 -11.419  0.00  0.00    +0.000 NA
ATOM     21  C   UNL     1     -17.805  45.144 -12.321  0.00  0.00    +0.000 C 
ATOM     22  C   UNL     1     -18.211  47.165 -11.309  0.00  0.00    +0.000 C 
ENDBRANCH  15  21
ENDBRANCH   2  15
TORSDOF 5
ENDMDL
MODEL 3
REMARK VINA RESULT:    -5.952      4.103      5.734
REMARK INTER + INTRA:          -7.898
REMARK INTER:                  -7.222
REMARK INTRA:                  -0.675
REMARK UNBOUND:                -0.554
REMARK  Name = 148048379
REMARK  6 active torsions:
REMARK  status: ('A' for Active; 'I' for Inactive)
REMARK    1  A    between atoms: N_3  and  C_11
REMARK    2  A    between atoms: N_5  and  C_15
REMARK    3  A    between atoms: N_6  and  C_16
REMARK    4  A    between atoms: C_7  and  C_10
REMARK    5  A    between atoms: C_8  and  C_13
REMARK    6  A    between atoms: C_10  and  C_14
REMARK                            x       y       z     vdW  Elec       q    Type
REMARK                         _______ _______ _______ _____ _____    ______ ____
ROOT
ATOM      1  N   UNL     1     -16.430  42.310 -12.065  0.00  0.00    +0.000 NA
ATOM      2  C   UNL     1     -18.361  42.840 -13.419  0.00  0.00    +0.000 A 
ATOM      3  C   UNL     1     -18.443  40.981 -11.895  0.00  0.00    +0.000 A 
ATOM      4  C   UNL     1     -19.059  41.778 -12.854  0.00  0.00    +0.000 A 
ATOM      5  C   UNL     1     -17.139  41.287 -11.538  0.00  0.00    +0.000 A 
ATOM      6  C   UNL     1     -17.062  43.061 -12.994  0.00  0.00    +0.000 A 
ENDROOT
BRANCH   3   9
ATOM      7  O   UNL     1     -19.248  39.714 -10.081  0.00  0.00    +0.000 OA
ATOM      8  N   UNL     1     -19.787  38.970 -12.182  0.00  0.00    +0.000 N 
ATOM      9  C   UNL     1     -19.179  39.868 -11.311  0.00  0.00    +0.000 C 
ATOM     10  H   UNL     1     -19.735  39.076 -13.190  0.00  0.00    +0.000 HD
ATOM     11  H   UNL     1     -20.307  38.173 -11.830  0.00  0.00    +0.000 HD
ENDBRANCH   3   9
BRANCH   5  12
ATOM     12  N   UNL     1     -16.504  40.478 -10.561  0.00  0.00    +0.000 N 
ATOM     13  H   UNL     1     -16.577  40.749  -9.587  0.00  0.00    +0.000 HD
ATOM     14  H   UNL     1     -15.664  39.995 -10.853  0.00  0.00    +0.000 HD
ENDBRANCH   5  12
BRANCH   2  15
ATOM     15  C   UNL     1     -18.984  43.702 -14.435  0.00  0.00    +0.000 C 
ATOM     16  C   UNL     1     -18.679  45.003 -14.564  0.00  0.00    +0.000 C 
BRANCH  16  17
ATOM     17  N   UNL     1     -19.164  45.922 -15.445  0.00  0.00    +0.000 N 
ATOM     18  H   UNL     1     -18.948  46.900 -15.293  0.00  0.00    +0.000 HD
ATOM     19  H   UNL     1     -19.733  45.664 -16.237  0.00  0.00    +0.000 HD
ENDBRANCH  16  17
BRANCH  15  21
ATOM     20  N   UNL     1     -19.903  43.319 -16.671  0.00  0.00    +0.000 NA
ATOM     21  C   UNL     1     -19.985  43.158 -15.394  0.00  0.00    +0.000 C 
ATOM     22  C   UNL     1     -21.002  42.691 -17.399  0.00  0.00    +0.000 C 
ENDBRANCH  15  21
ENDBRANCH   2  15
TORSDOF 5
ENDMDL
MODEL 4
REMARK VINA RESULT:    -5.877      1.693      2.207
REMARK INTER + INTRA:          -7.806
REMARK INTER:                  -7.375
REMARK INTRA:                  -0.431
REMARK UNBOUND:                -0.554
REMARK  Name = 148048379
REMARK  6 active torsions:
REMARK  status: ('A' for Active; 'I' for Inactive)
REMARK    1  A    between atoms: N_3  and  C_11
REMARK    2  A    between atoms: N_5  and  C_15
REMARK    3  A    between atoms: N_6  and  C_16
REMARK    4  A    between atoms: C_7  and  C_10
REMARK    5  A    between atoms: C_8  and  C_13
REMARK    6  A    between atoms: C_10  and  C_14
REMARK                            x       y       z     vdW  Elec       q    Type
REMARK                         _______ _______ _______ _____ _____    ______ ____
ROOT
ATOM      1  N   UNL     1     -18.189  42.686  -8.547  0.00  0.00    +0.000 NA
ATOM      2  C   UNL     1     -18.421  41.467 -10.621  0.00  0.00    +0.000 A 
ATOM      3  C   UNL     1     -20.035  41.158  -8.866  0.00  0.00    +0.000 A 
ATOM      4  C   UNL     1     -19.574  40.856 -10.142  0.00  0.00    +0.000 A 
ATOM      5  C   UNL     1     -19.313  42.073  -8.115  0.00  0.00    +0.000 A 
ATOM      6  C   UNL     1     -17.771  42.366  -9.792  0.00  0.00    +0.000 A 
ENDROOT
BRANCH   3   9
ATOM      7  O   UNL     1     -22.088  41.138  -7.712  0.00  0.00    +0.000 OA
ATOM      8  N   UNL     1     -21.405  39.156  -8.642  0.00  0.00    +0.000 N 
ATOM      9  C   UNL     1     -21.242  40.511  -8.370  0.00  0.00    +0.000 C 
ATOM     10  H   UNL     1     -20.720  38.626  -9.171  0.00  0.00    +0.000 HD
ATOM     11  H   UNL     1     -22.223  38.653  -8.315  0.00  0.00    +0.000 HD
ENDBRANCH   3   9
BRANCH   5  12
ATOM     12  N   UNL     1     -19.777  42.386  -6.812  0.00  0.00    +0.000 N 
ATOM     13  H   UNL     1     -20.077  41.629  -6.209  0.00  0.00    +0.000 HD
ATOM     14  H   UNL     1     -20.231  43.284  -6.700  0.00  0.00    +0.000 HD
ENDBRANCH   5  12
BRANCH   2  15
ATOM     15  C   UNL     1     -17.907  41.169 -11.967  0.00  0.00    +0.000 C 
ATOM     16  C   UNL     1     -17.077  40.141 -12.212  0.00  0.00    +0.000 C 
BRANCH  16  17
ATOM     17  N   UNL     1     -16.522  39.740 -13.388  0.00  0.00    +0.000 N 
ATOM     18  H   UNL     1     -16.963  38.986 -13.901  0.00  0.00    +0.000 HD
ATOM     19  H   UNL     1     -15.686  40.162 -13.764  0.00  0.00    +0.000 HD
ENDBRANCH  16  17
BRANCH  15  21
ATOM     20  N   UNL     1     -19.495  42.458 -13.311  0.00  0.00    +0.000 NA
ATOM     21  C   UNL     1     -18.305  41.993 -13.141  0.00  0.00    +0.000 C 
ATOM     22  C   UNL     1     -19.636  43.238 -14.538  0.00  0.00    +0.000 C 
ENDBRANCH  15  21
ENDBRANCH   2  15
TORSDOF 5
ENDMDL
MODEL 5
REMARK VINA RESULT:    -5.734      3.158      5.554
REMARK INTER + INTRA:          -7.629
REMARK INTER:                  -6.927
REMARK INTRA:                  -0.701
REMARK UNBOUND:                -0.554
REMARK  Name = 148048379
REMARK  6 active torsions:
REMARK  status: ('A' for Active; 'I' for Inactive)
REMARK    1  A    between atoms: N_3  and  C_11
REMARK    2  A    between atoms: N_5  and  C_15
REMARK    3  A    between atoms: N_6  and  C_16
REMARK    4  A    between atoms: C_7  and  C_10
REMARK    5  A    between atoms: C_8  and  C_13
REMARK    6  A    between atoms: C_10  and  C_14
REMARK                            x       y       z     vdW  Elec       q    Type
REMARK                         _______ _______ _______ _____ _____    ______ ____
ROOT
ATOM      1  N   UNL     1     -19.044  41.158 -13.557  0.00  0.00    +0.000 NA
ATOM      2  C   UNL     1     -18.209  43.122 -12.421  0.00  0.00    +0.000 A 
ATOM      3  C   UNL     1     -18.852  41.186 -11.148  0.00  0.00    +0.000 A 
ATOM      4  C   UNL     1     -18.359  42.485 -11.194  0.00  0.00    +0.000 A 
ATOM      5  C   UNL     1     -19.176  40.572 -12.347  0.00  0.00    +0.000 A 
ATOM      6  C   UNL     1     -18.563  42.422 -13.562  0.00  0.00    +0.000 A 
ENDROOT
BRANCH   3   9
ATOM      7  O   UNL     1     -20.087  40.006  -9.526  0.00  0.00    +0.000 OA
ATOM      8  N   UNL     1     -17.915  40.520  -8.999  0.00  0.00    +0.000 N 
ATOM      9  C   UNL     1     -19.010  40.527  -9.858  0.00  0.00    +0.000 C 
ATOM     10  H   UNL     1     -17.030  40.947  -9.251  0.00  0.00    +0.000 HD
ATOM     11  H   UNL     1     -17.972  40.081  -8.086  0.00  0.00    +0.000 HD
ENDBRANCH   3   9
BRANCH   5  12
ATOM     12  N   UNL     1     -19.679  39.246 -12.308  0.00  0.00    +0.000 N 
ATOM     13  H   UNL     1     -20.322  38.950 -13.033  0.00  0.00    +0.000 HD
ATOM     14  H   UNL     1     -19.782  38.830 -11.391  0.00  0.00    +0.000 HD
ENDBRANCH   5  12
BRANCH   2  15
ATOM     15  C   UNL     1     -17.691  44.495 -12.504  0.00  0.00    +0.000 C 
ATOM     16  C   UNL     1     -17.533  45.275 -11.421  0.00  0.00    +0.000 C 
BRANCH  16  17
ATOM     17  N   UNL     1     -17.071  46.552 -11.335  0.00  0.00    +0.000 N 
ATOM     18  H   UNL     1     -16.323  46.841 -11.955  0.00  0.00    +0.000 HD
ATOM     19  H   UNL     1     -17.440  47.218 -10.673  0.00  0.00    +0.000 HD
ENDBRANCH  16  17
BRANCH  15  21
ATOM     20  N   UNL     1     -16.104  45.525 -14.058  0.00  0.00    +0.000 NA
ATOM     21  C   UNL     1     -17.292  45.089 -13.810  0.00  0.00    +0.000 C 
ATOM     22  C   UNL     1     -15.960  46.059 -15.409  0.00  0.00    +0.000 C 
ENDBRANCH  15  21
ENDBRANCH   2  15
TORSDOF 5
ENDMDL
