MODEL 1
REMARK VINA RESULT:    -6.175      0.000      0.000
REMARK INTER + INTRA:          -8.119
REMARK INTER:                  -7.619
REMARK INTRA:                  -0.500
REMARK UNBOUND:                -0.500
REMARK  Name = 148048380
REMARK  6 active torsions:
REMARK  status: ('A' for Active; 'I' for Inactive)
REMARK    1  A    between atoms: N_3  and  C_16
REMARK    2  A    between atoms: N_4  and  C_11
REMARK    3  A    between atoms: N_5  and  C_14
REMARK    4  A    between atoms: C_7  and  C_10
REMARK    5  A    between atoms: C_9  and  C_15
REMARK    6  A    between atoms: C_10  and  C_13
REMARK                            x       y       z     vdW  Elec       q    Type
REMARK                         _______ _______ _______ _____ _____    ______ ____
ROOT
ATOM      1  N   UNL     1     -18.198  40.059 -13.029  0.00  0.00    +0.000 NA
ATOM      2  C   UNL     1     -16.928  41.895 -12.097  0.00  0.00    +0.000 A 
ATOM      3  C   UNL     1     -17.552  41.712 -10.868  0.00  0.00    +0.000 A 
ATOM      4  C   UNL     1     -18.499  40.704 -10.718  0.00  0.00    +0.000 A 
ATOM      5  C   UNL     1     -18.783  39.912 -11.819  0.00  0.00    +0.000 A 
ATOM      6  C   UNL     1     -17.283  41.049 -13.137  0.00  0.00    +0.000 A 
ENDROOT
BRANCH   4   9
ATOM      7  O   UNL     1     -20.384  40.428  -9.334  0.00  0.00    +0.000 OA
ATOM      8  N   UNL     1     -18.339  40.476  -8.298  0.00  0.00    +0.000 N 
ATOM      9  C   UNL     1     -19.149  40.522  -9.428  0.00  0.00    +0.000 C 
ATOM     10  H   UNL     1     -17.328  40.559  -8.355  0.00  0.00    +0.000 HD
ATOM     11  H   UNL     1     -18.740  40.357  -7.373  0.00  0.00    +0.000 HD
ENDBRANCH   4   9
BRANCH   5  12
ATOM     12  N   UNL     1     -19.746  38.882 -11.674  0.00  0.00    +0.000 N 
ATOM     13  H   UNL     1     -20.698  39.064 -11.967  0.00  0.00    +0.000 HD
ATOM     14  H   UNL     1     -19.607  38.238 -10.904  0.00  0.00    +0.000 HD
ENDBRANCH   5  12
BRANCH   2  15
ATOM     15  C   UNL     1     -15.923  42.950 -12.288  0.00  0.00    +0.000 C 
ATOM     16  C   UNL     1     -16.103  43.942 -13.176  0.00  0.00    +0.000 C 
BRANCH  15  18
ATOM     17  N   UNL     1     -13.967  41.960 -11.190  0.00  0.00    +0.000 N 
ATOM     18  C   UNL     1     -14.657  42.995 -11.516  0.00  0.00    +0.000 C 
ATOM     19  C   UNL     1     -12.709  41.972 -10.427  0.00  0.00    +0.000 C 
ATOM     20  H   UNL     1     -14.306  41.038 -11.478  0.00  0.00    +0.000 HD
ENDBRANCH  15  18
BRANCH  16  21
ATOM     21  N   UNL     1     -15.288  44.988 -13.480  0.00  0.00    +0.000 N 
ATOM     22  H   UNL     1     -14.298  44.908 -13.284  0.00  0.00    +0.000 HD
ATOM     23  H   UNL     1     -15.636  45.841 -13.894  0.00  0.00    +0.000 HD
ENDBRANCH  16  21
ENDBRANCH   2  15
TORSDOF 5
ENDMDL
MODEL 2
REMARK VINA RESULT:    -6.145      1.500      2.899
REMARK INTER + INTRA:          -8.083
REMARK INTER:                  -7.586
REMARK INTRA:                  -0.497
REMARK UNBOUND:                -0.500
REMARK  Name = 148048380
REMARK  6 active torsions:
REMARK  status: ('A' for Active; 'I' for Inactive)
REMARK    1  A    between atoms: N_3  and  C_16
REMARK    2  A    between atoms: N_4  and  C_11
REMARK    3  A    between atoms: N_5  and  C_14
REMARK    4  A    between atoms: C_7  and  C_10
REMARK    5  A    between atoms: C_9  and  C_15
REMARK    6  A    between atoms: C_10  and  C_13
REMARK                            x       y       z     vdW  Elec       q    Type
REMARK                         _______ _______ _______ _____ _____    ______ ____
ROOT
ATOM      1  N   UNL     1     -18.864  40.184 -13.241  0.00  0.00    +0.000 NA
ATOM      2  C   UNL     1     -17.769  42.223 -12.540  0.00  0.00    +0.000 A 
ATOM      3  C   UNL     1     -18.070  41.937 -11.213  0.00  0.00    +0.000 A 
ATOM      4  C   UNL     1     -18.767  40.775 -10.899  0.00  0.00    +0.000 A 
ATOM      5  C   UNL     1     -19.138  39.940 -11.940  0.00  0.00    +0.000 A 
ATOM      6  C   UNL     1     -18.185  41.322 -13.508  0.00  0.00    +0.000 A 
ENDROOT
BRANCH   4   9
ATOM      7  O   UNL     1     -20.239  40.219  -9.146  0.00  0.00    +0.000 OA
ATOM      8  N   UNL     1     -18.038  40.536  -8.587  0.00  0.00    +0.000 N 
ATOM      9  C   UNL     1     -19.080  40.486  -9.507  0.00  0.00    +0.000 C 
ATOM     10  H   UNL     1     -17.086  40.759  -8.862  0.00  0.00    +0.000 HD
ATOM     11  H   UNL     1     -18.201  40.348  -7.603  0.00  0.00    +0.000 HD
ENDBRANCH   4   9
BRANCH   5  12
ATOM     12  N   UNL     1     -19.848  38.754 -11.628  0.00  0.00    +0.000 N 
ATOM     13  H   UNL     1     -19.967  38.054 -12.351  0.00  0.00    +0.000 HD
ATOM     14  H   UNL     1     -20.578  38.834 -10.930  0.00  0.00    +0.000 HD
ENDBRANCH   5  12
BRANCH   2  15
ATOM     15  C   UNL     1     -17.033  43.441 -12.905  0.00  0.00    +0.000 C 
ATOM     16  C   UNL     1     -15.699  43.528 -12.765  0.00  0.00    +0.000 C 
BRANCH  15  18
ATOM     17  N   UNL     1     -18.048  44.789 -14.685  0.00  0.00    +0.000 N 
ATOM     18  C   UNL     1     -17.704  44.645 -13.455  0.00  0.00    +0.000 C 
ATOM     19  C   UNL     1     -18.715  45.967 -15.259  0.00  0.00    +0.000 C 
ATOM     20  H   UNL     1     -17.850  44.025 -15.338  0.00  0.00    +0.000 HD
ENDBRANCH  15  18
BRANCH  16  21
ATOM     21  N   UNL     1     -14.866  44.564 -13.049  0.00  0.00    +0.000 N 
ATOM     22  H   UNL     1     -14.233  44.480 -13.836  0.00  0.00    +0.000 HD
ATOM     23  H   UNL     1     -14.854  45.414 -12.503  0.00  0.00    +0.000 HD
ENDBRANCH  16  21
ENDBRANCH   2  15
TORSDOF 5
ENDMDL
MODEL 3
REMARK VINA RESULT:    -5.889      1.691      1.846
REMARK INTER + INTRA:          -7.766
REMARK INTER:                  -7.291
REMARK INTRA:                  -0.475
REMARK UNBOUND:                -0.500
REMARK  Name = 148048380
REMARK  6 active torsions:
REMARK  status: ('A' for Active; 'I' for Inactive)
REMARK    1  A    between atoms: N_3  and  C_16
REMARK    2  A    between atoms: N_4  and  C_11
REMARK    3  A    between atoms: N_5  and  C_14
REMARK    4  A    between atoms: C_7  and  C_10
REMARK    5  A    between atoms: C_9  and  C_15
REMARK    6  A    between atoms: C_10  and  C_13
REMARK                            x       y       z     vdW  Elec       q    Type
REMARK                         _______ _______ _______ _____ _____    ______ ____
ROOT
ATOM      1  N   UNL     1     -19.161  42.465 -13.585  0.00  0.00    +0.000 NA
ATOM      2  C   UNL     1     -16.993  43.223 -12.827  0.00  0.00    +0.000 A 
ATOM      3  C   UNL     1     -16.963  42.209 -11.875  0.00  0.00    +0.000 A 
ATOM      4  C   UNL     1     -18.031  41.323 -11.778  0.00  0.00    +0.000 A 
ATOM      5  C   UNL     1     -19.096  41.492 -12.648  0.00  0.00    +0.000 A 
ATOM      6  C   UNL     1     -18.105  43.307 -13.650  0.00  0.00    +0.000 A 
ENDROOT
BRANCH   4   9
ATOM      7  O   UNL     1     -18.354  39.108 -11.044  0.00  0.00    +0.000 OA
ATOM      8  N   UNL     1     -17.551  40.602  -9.501  0.00  0.00    +0.000 N 
ATOM      9  C   UNL     1     -17.992  40.267 -10.776  0.00  0.00    +0.000 C 
ATOM     10  H   UNL     1     -17.258  41.545  -9.262  0.00  0.00    +0.000 HD
ATOM     11  H   UNL     1     -17.509  39.907  -8.763  0.00  0.00    +0.000 HD
ENDBRANCH   4   9
BRANCH   5  12
ATOM     12  N   UNL     1     -20.187  40.593 -12.555  0.00  0.00    +0.000 N 
ATOM     13  H   UNL     1     -21.120  40.972 -12.447  0.00  0.00    +0.000 HD
ATOM     14  H   UNL     1     -19.996  39.692 -12.134  0.00  0.00    +0.000 HD
ENDBRANCH   5  12
BRANCH   2  15
ATOM     15  C   UNL     1     -15.880  44.174 -12.956  0.00  0.00    +0.000 C 
ATOM     16  C   UNL     1     -15.949  45.230 -13.784  0.00  0.00    +0.000 C 
BRANCH  15  18
ATOM     17  N   UNL     1     -13.622  43.313 -12.544  0.00  0.00    +0.000 N 
ATOM     18  C   UNL     1     -14.620  44.039 -12.184  0.00  0.00    +0.000 C 
ATOM     19  C   UNL     1     -12.361  43.159 -11.803  0.00  0.00    +0.000 C 
ATOM     20  H   UNL     1     -13.691  42.789 -13.421  0.00  0.00    +0.000 HD
ENDBRANCH  15  18
BRANCH  16  21
ATOM     21  N   UNL     1     -15.026  46.200 -14.026  0.00  0.00    +0.000 N 
ATOM     22  H   UNL     1     -15.069  47.059 -13.492  0.00  0.00    +0.000 HD
ATOM     23  H   UNL     1     -14.300  46.094 -14.721  0.00  0.00    +0.000 HD
ENDBRANCH  16  21
ENDBRANCH   2  15
TORSDOF 5
ENDMDL
MODEL 4
REMARK VINA RESULT:    -5.886      2.870      4.381
REMARK INTER + INTRA:          -7.762
REMARK INTER:                  -7.254
REMARK INTRA:                  -0.508
REMARK UNBOUND:                -0.500
REMARK  Name = 148048380
REMARK  6 active torsions:
REMARK  status: ('A' for Active; 'I' for Inactive)
REMARK    1  A    between atoms: N_3  and  C_16
REMARK    2  A    between atoms: N_4  and  C_11
REMARK    3  A    between atoms: N_5  and  C_14
REMARK    4  A    between atoms: C_7  and  C_10
REMARK    5  A    between atoms: C_9  and  C_15
REMARK    6  A    between atoms: C_10  and  C_13
REMARK                            x       y       z     vdW  Elec       q    Type
REMARK                         _______ _______ _______ _____ _____    ______ ____
ROOT
ATOM      1  N   UNL     1     -16.483  42.255 -12.171  0.00  0.00    +0.000 NA
ATOM      2  C   UNL     1     -18.536  42.646 -13.389  0.00  0.00    +0.000 A 
ATOM      3  C   UNL     1     -19.146  41.596 -12.711  0.00  0.00    +0.000 A 
ATOM      4  C   UNL     1     -18.427  40.876 -11.763  0.00  0.00    +0.000 A 
ATOM      5  C   UNL     1     -17.111  41.242 -11.532  0.00  0.00    +0.000 A 
ATOM      6  C   UNL     1     -17.215  42.932 -13.085  0.00  0.00    +0.000 A 
ENDROOT
BRANCH   4   9
ATOM      7  O   UNL     1     -19.110  39.735  -9.819  0.00  0.00    +0.000 OA
ATOM      8  N   UNL     1     -19.636  38.762 -11.828  0.00  0.00    +0.000 N 
ATOM      9  C   UNL     1     -19.074  39.777 -11.061  0.00  0.00    +0.000 C 
ATOM     10  H   UNL     1     -19.610  38.776 -12.843  0.00  0.00    +0.000 HD
ATOM     11  H   UNL     1     -20.095  37.970 -11.390  0.00  0.00    +0.000 HD
ENDBRANCH   4   9
BRANCH   5  12
ATOM     12  N   UNL     1     -16.371  40.513 -10.568  0.00  0.00    +0.000 N 
ATOM     13  H   UNL     1     -15.492  40.094 -10.846  0.00  0.00    +0.000 HD
ATOM     14  H   UNL     1     -16.906  40.045  -9.846  0.00  0.00    +0.000 HD
ENDBRANCH   5  12
BRANCH   2  15
ATOM     15  C   UNL     1     -19.269  43.427 -14.395  0.00  0.00    +0.000 C 
ATOM     16  C   UNL     1     -20.446  43.010 -14.891  0.00  0.00    +0.000 C 
BRANCH  15  18
ATOM     17  N   UNL     1     -18.890  45.848 -14.318  0.00  0.00    +0.000 N 
ATOM     18  C   UNL     1     -18.767  44.720 -14.922  0.00  0.00    +0.000 C 
ATOM     19  C   UNL     1     -18.404  47.145 -14.812  0.00  0.00    +0.000 C 
ATOM     20  H   UNL     1     -19.365  45.866 -13.410  0.00  0.00    +0.000 HD
ENDBRANCH  15  18
BRANCH  16  21
ATOM     21  N   UNL     1     -21.251  43.598 -15.816  0.00  0.00    +0.000 N 
ATOM     22  H   UNL     1     -21.368  44.604 -15.791  0.00  0.00    +0.000 HD
ATOM     23  H   UNL     1     -21.738  43.068 -16.525  0.00  0.00    +0.000 HD
ENDBRANCH  16  21
ENDBRANCH   2  15
TORSDOF 5
ENDMDL
MODEL 5
REMARK VINA RESULT:    -5.642      3.530      5.758
REMARK INTER + INTRA:          -7.462
REMARK INTER:                  -7.247
REMARK INTRA:                  -0.215
REMARK UNBOUND:                -0.500
REMARK  Name = 148048380
REMARK  6 active torsions:
REMARK  status: ('A' for Active; 'I' for Inactive)
REMARK    1  A    between atoms: N_3  and  C_16
REMARK    2  A    between atoms: N_4  and  C_11
REMARK    3  A    between atoms: N_5  and  C_14
REMARK    4  A    between atoms: C_7  and  C_10
REMARK    5  A    between atoms: C_9  and  C_15
REMARK    6  A    between atoms: C_10  and  C_13
REMARK                            x       y       z     vdW  Elec       q    Type
REMARK                         _______ _______ _______ _____ _____    ______ ____
ROOT
ATOM      1  N   UNL     1     -18.038  44.696 -13.868  0.00  0.00    +0.000 NA
ATOM      2  C   UNL     1     -18.328  42.402 -13.158  0.00  0.00    +0.000 A 
ATOM      3  C   UNL     1     -19.279  42.207 -14.153  0.00  0.00    +0.000 A 
ATOM      4  C   UNL     1     -19.610  43.255 -15.006  0.00  0.00    +0.000 A 
ATOM      5  C   UNL     1     -18.967  44.468 -14.823  0.00  0.00    +0.000 A 
ATOM      6  C   UNL     1     -17.742  43.654 -13.058  0.00  0.00    +0.000 A 
ENDROOT
BRANCH   4   9
ATOM      7  O   UNL     1     -20.340  42.419 -17.084  0.00  0.00    +0.000 OA
ATOM      8  N   UNL     1     -21.877  43.577 -15.838  0.00  0.00    +0.000 N 
ATOM      9  C   UNL     1     -20.610  43.042 -16.043  0.00  0.00    +0.000 C 
ATOM     10  H   UNL     1     -22.114  44.096 -14.998  0.00  0.00    +0.000 HD
ATOM     11  H   UNL     1     -22.611  43.464 -16.531  0.00  0.00    +0.000 HD
ENDBRANCH   4   9
BRANCH   5  12
ATOM     12  N   UNL     1     -19.298  45.541 -15.688  0.00  0.00    +0.000 N 
ATOM     13  H   UNL     1     -19.153  45.424 -16.684  0.00  0.00    +0.000 HD
ATOM     14  H   UNL     1     -19.203  46.475 -15.307  0.00  0.00    +0.000 HD
ENDBRANCH   5  12
BRANCH   2  15
ATOM     15  C   UNL     1     -17.955  41.315 -12.243  0.00  0.00    +0.000 C 
ATOM     16  C   UNL     1     -17.024  40.404 -12.571  0.00  0.00    +0.000 C 
BRANCH  15  18
ATOM     17  N   UNL     1     -19.669  40.526 -10.676  0.00  0.00    +0.000 N 
ATOM     18  C   UNL     1     -18.571  41.155 -10.902  0.00  0.00    +0.000 C 
ATOM     19  C   UNL     1     -20.303  40.348  -9.361  0.00  0.00    +0.000 C 
ATOM     20  H   UNL     1     -20.159  40.102 -11.469  0.00  0.00    +0.000 HD
ENDBRANCH  15  18
BRANCH  16  21
ATOM     21  N   UNL     1     -16.560  39.344 -11.856  0.00  0.00    +0.000 N 
ATOM     22  H   UNL     1     -17.225  38.766 -11.356  0.00  0.00    +0.000 HD
ATOM     23  H   UNL     1     -15.578  39.115 -11.804  0.00  0.00    +0.000 HD
ENDBRANCH  16  21
ENDBRANCH   2  15
TORSDOF 5
ENDMDL
