MODEL 1
REMARK VINA RESULT:    -6.964      0.000      0.000
REMARK INTER + INTRA:          -6.964
REMARK INTER:                  -6.964
REMARK INTRA:                   0.000
REMARK UNBOUND:                 0.000
REMARK  Name = 149253951
REMARK  0 active torsions:
REMARK  status: ('A' for Active; 'I' for Inactive)
REMARK                            x       y       z     vdW  Elec       q    Type
REMARK                         _______ _______ _______ _____ _____    ______ ____
ROOT
ATOM      1  O   UNL     1     -19.173  38.977 -11.130  0.00  0.00    +0.000 OA
ATOM      2  O   UNL     1     -15.917  42.237 -11.617  0.00  0.00    +0.000 OA
ATOM      3  N   UNL     1     -17.375  42.154  -9.828  0.00  0.00    +0.000 N 
ATOM      4  N   UNL     1     -18.725  42.208  -7.917  0.00  0.00    +0.000 NA
ATOM      5  N   UNL     1     -19.098  41.053 -12.112  0.00  0.00    +0.000 NA
ATOM      6  C   UNL     1     -19.434  40.821  -9.739  0.00  0.00    +0.000 A 
ATOM      7  C   UNL     1     -18.552  41.739  -9.178  0.00  0.00    +0.000 A 
ATOM      8  C   UNL     1     -20.535  40.388  -8.997  0.00  0.00    +0.000 A 
ATOM      9  C   UNL     1     -19.192  40.201 -11.049  0.00  0.00    +0.000 A 
ATOM     10  C   UNL     1     -20.738  40.887  -7.718  0.00  0.00    +0.000 A 
ATOM     11  C   UNL     1     -17.042  42.063 -11.159  0.00  0.00    +0.000 A 
ATOM     12  C   UNL     1     -19.810  41.785  -7.227  0.00  0.00    +0.000 A 
ATOM     13  C   UNL     1     -18.130  41.903 -12.161  0.00  0.00    +0.000 A 
ATOM     14  H   UNL     1     -16.683  42.578  -9.215  0.00  0.00    +0.000 HD
ENDROOT
TORSDOF 0
ENDMDL
MODEL 2
REMARK VINA RESULT:    -6.955      1.524      2.820
REMARK INTER + INTRA:          -6.955
REMARK INTER:                  -6.955
REMARK INTRA:                   0.000
REMARK UNBOUND:                 0.000
REMARK  Name = 149253951
REMARK  0 active torsions:
REMARK  status: ('A' for Active; 'I' for Inactive)
REMARK                            x       y       z     vdW  Elec       q    Type
REMARK                         _______ _______ _______ _____ _____    ______ ____
ROOT
ATOM      1  O   UNL     1     -17.502  42.916 -10.502  0.00  0.00    +0.000 OA
ATOM      2  O   UNL     1     -19.248  39.334 -12.866  0.00  0.00    +0.000 OA
ATOM      3  N   UNL     1     -20.002  39.967 -10.776  0.00  0.00    +0.000 N 
ATOM      4  N   UNL     1     -20.935  40.485  -8.694  0.00  0.00    +0.000 NA
ATOM      5  N   UNL     1     -17.023  40.672 -10.625  0.00  0.00    +0.000 NA
ATOM      6  C   UNL     1     -18.822  41.476  -9.242  0.00  0.00    +0.000 A 
ATOM      7  C   UNL     1     -19.887  40.632  -9.541  0.00  0.00    +0.000 A 
ATOM      8  C   UNL     1     -18.821  42.172  -8.032  0.00  0.00    +0.000 A 
ATOM      9  C   UNL     1     -17.745  41.752 -10.203  0.00  0.00    +0.000 A 
ATOM     10  C   UNL     1     -19.873  42.004  -7.143  0.00  0.00    +0.000 A 
ATOM     11  C   UNL     1     -19.034  39.716 -11.720  0.00  0.00    +0.000 A 
ATOM     12  C   UNL     1     -20.899  41.158  -7.520  0.00  0.00    +0.000 A 
ATOM     13  C   UNL     1     -17.605  39.744 -11.305  0.00  0.00    +0.000 A 
ATOM     14  H   UNL     1     -20.938  39.631 -10.988  0.00  0.00    +0.000 HD
ENDROOT
TORSDOF 0
ENDMDL
MODEL 3
REMARK VINA RESULT:    -6.150      1.845      4.666
REMARK INTER + INTRA:          -6.150
REMARK INTER:                  -6.150
REMARK INTRA:                   0.000
REMARK UNBOUND:                 0.000
REMARK  Name = 149253951
REMARK  0 active torsions:
REMARK  status: ('A' for Active; 'I' for Inactive)
REMARK                            x       y       z     vdW  Elec       q    Type
REMARK                         _______ _______ _______ _____ _____    ______ ____
ROOT
ATOM      1  O   UNL     1     -16.093  41.270 -11.294  0.00  0.00    +0.000 OA
ATOM      2  O   UNL     1     -19.627  38.279 -11.448  0.00  0.00    +0.000 OA
ATOM      3  N   UNL     1     -19.609  40.284 -12.593  0.00  0.00    +0.000 N 
ATOM      4  N   UNL     1     -19.754  42.243 -13.865  0.00  0.00    +0.000 NA
ATOM      5  N   UNL     1     -18.013  40.971 -10.068  0.00  0.00    +0.000 NA
ATOM      6  C   UNL     1     -18.061  42.142 -12.171  0.00  0.00    +0.000 A 
ATOM      7  C   UNL     1     -19.145  41.589 -12.845  0.00  0.00    +0.000 A 
ATOM      8  C   UNL     1     -17.602  43.408 -12.537  0.00  0.00    +0.000 A 
ATOM      9  C   UNL     1     -17.305  41.396 -11.155  0.00  0.00    +0.000 A 
ATOM     10  C   UNL     1     -18.238  44.099 -13.558  0.00  0.00    +0.000 A 
ATOM     11  C   UNL     1     -19.382  39.479 -11.501  0.00  0.00    +0.000 A 
ATOM     12  C   UNL     1     -19.300  43.477 -14.187  0.00  0.00    +0.000 A 
ATOM     13  C   UNL     1     -18.960  40.110 -10.221  0.00  0.00    +0.000 A 
ATOM     14  H   UNL     1     -20.191  39.895 -13.330  0.00  0.00    +0.000 HD
ENDROOT
TORSDOF 0
ENDMDL
MODEL 4
REMARK VINA RESULT:    -5.801      2.122      3.143
REMARK INTER + INTRA:          -5.801
REMARK INTER:                  -5.801
REMARK INTRA:                   0.000
REMARK UNBOUND:                 0.000
REMARK  Name = 149253951
REMARK  0 active torsions:
REMARK  status: ('A' for Active; 'I' for Inactive)
REMARK                            x       y       z     vdW  Elec       q    Type
REMARK                         _______ _______ _______ _____ _____    ______ ____
ROOT
ATOM      1  O   UNL     1     -17.695  44.221 -10.856  0.00  0.00    +0.000 OA
ATOM      2  O   UNL     1     -19.436  42.014 -14.538  0.00  0.00    +0.000 OA
ATOM      3  N   UNL     1     -19.610  41.215 -12.378  0.00  0.00    +0.000 N 
ATOM      4  N   UNL     1     -19.933  40.272 -10.261  0.00  0.00    +0.000 NA
ATOM      5  N   UNL     1     -16.897  42.641 -12.320  0.00  0.00    +0.000 NA
ATOM      6  C   UNL     1     -18.295  42.010 -10.464  0.00  0.00    +0.000 A 
ATOM      7  C   UNL     1     -19.237  41.153 -11.022  0.00  0.00    +0.000 A 
ATOM      8  C   UNL     1     -18.042  41.949  -9.092  0.00  0.00    +0.000 A 
ATOM      9  C   UNL     1     -17.629  43.061 -11.246  0.00  0.00    +0.000 A 
ATOM     10  C   UNL     1     -18.725  41.028  -8.310  0.00  0.00    +0.000 A 
ATOM     11  C   UNL     1     -18.949  41.801 -13.432  0.00  0.00    +0.000 A 
ATOM     12  C   UNL     1     -19.655  40.221  -8.937  0.00  0.00    +0.000 A 
ATOM     13  C   UNL     1     -17.489  42.063 -13.308  0.00  0.00    +0.000 A 
ATOM     14  H   UNL     1     -20.493  40.760 -12.594  0.00  0.00    +0.000 HD
ENDROOT
TORSDOF 0
ENDMDL
MODEL 5
REMARK VINA RESULT:    -5.773      2.223      4.113
REMARK INTER + INTRA:          -5.773
REMARK INTER:                  -5.773
REMARK INTRA:                   0.000
REMARK UNBOUND:                 0.000
REMARK  Name = 149253951
REMARK  0 active torsions:
REMARK  status: ('A' for Active; 'I' for Inactive)
REMARK                            x       y       z     vdW  Elec       q    Type
REMARK                         _______ _______ _______ _____ _____    ______ ____
ROOT
ATOM      1  O   UNL     1     -19.974  41.710 -13.594  0.00  0.00    +0.000 OA
ATOM      2  O   UNL     1     -20.062  39.819  -9.366  0.00  0.00    +0.000 OA
ATOM      3  N   UNL     1     -18.383  41.229 -10.093  0.00  0.00    +0.000 N 
ATOM      4  N   UNL     1     -16.623  42.675 -10.628  0.00  0.00    +0.000 NA
ATOM      5  N   UNL     1     -19.159  39.769 -12.674  0.00  0.00    +0.000 NA
ATOM      6  C   UNL     1     -17.965  41.846 -12.432  0.00  0.00    +0.000 A 
ATOM      7  C   UNL     1     -17.634  41.893 -11.082  0.00  0.00    +0.000 A 
ATOM      8  C   UNL     1     -17.229  42.602 -13.345  0.00  0.00    +0.000 A 
ATOM      9  C   UNL     1     -19.138  41.111 -12.926  0.00  0.00    +0.000 A 
ATOM     10  C   UNL     1     -16.172  43.381 -12.895  0.00  0.00    +0.000 A 
ATOM     11  C   UNL     1     -19.281  40.197 -10.233  0.00  0.00    +0.000 A 
ATOM     12  C   UNL     1     -15.914  43.384 -11.537  0.00  0.00    +0.000 A 
ATOM     13  C   UNL     1     -19.215  39.351 -11.456  0.00  0.00    +0.000 A 
ATOM     14  H   UNL     1     -18.230  41.571  -9.148  0.00  0.00    +0.000 HD
ENDROOT
TORSDOF 0
ENDMDL
