MODEL 1
REMARK VINA RESULT:    -5.684      0.000      0.000
REMARK INTER + INTRA:          -6.790
REMARK INTER:                  -6.847
REMARK INTRA:                   0.057
REMARK UNBOUND:                 0.057
REMARK  Name = 15154532
REMARK  6 active torsions:
REMARK  status: ('A' for Active; 'I' for Inactive)
REMARK    1  A    between atoms: N_2  and  C_5
REMARK    2  A    between atoms: N_4  and  C_11
REMARK    3  A    between atoms: C_5  and  C_6
REMARK    4  A    between atoms: C_5  and  C_7
REMARK    5  A    between atoms: C_5  and  C_10
REMARK    6  A    between atoms: C_8  and  C_9
REMARK                            x       y       z     vdW  Elec       q    Type
REMARK                         _______ _______ _______ _____ _____    ______ ____
ROOT
ATOM      1  O   UNL     1     -16.981  40.717 -11.000  0.00  0.00    +0.000 OA
ATOM      2  N   UNL     1     -17.563  42.956 -10.843  0.00  0.00    +0.000 N 
ATOM      3  C   UNL     1     -17.673  41.614 -10.525  0.00  0.00    +0.000 C 
ATOM      4  H   UNL     1     -18.126  43.642 -10.348  0.00  0.00    +0.000 HD
ENDROOT
BRANCH   3   6
ATOM      5  N   UNL     1     -20.636  39.950  -8.932  0.00  0.00    +0.000 NA
ATOM      6  C   UNL     1     -18.738  41.269  -9.548  0.00  0.00    +0.000 A 
ATOM      7  C   UNL     1     -19.657  40.284  -9.802  0.00  0.00    +0.000 A 
ATOM      8  C   UNL     1     -18.788  41.969  -8.364  0.00  0.00    +0.000 A 
ATOM      9  C   UNL     1     -19.781  41.653  -7.445  0.00  0.00    +0.000 A 
ATOM     10  C   UNL     1     -20.674  40.644  -7.773  0.00  0.00    +0.000 A 
BRANCH   7  11
ATOM     11  N   UNL     1     -19.591  39.575 -11.027  0.00  0.00    +0.000 N 
ATOM     12  H   UNL     1     -19.524  40.135 -11.869  0.00  0.00    +0.000 HD
ATOM     13  H   UNL     1     -20.065  38.682 -11.096  0.00  0.00    +0.000 HD
ENDBRANCH   7  11
ENDBRANCH   3   6
BRANCH   2  14
ATOM     14  C   UNL     1     -16.590  43.447 -11.797  0.00  0.00    +0.000 C 
ATOM     15  C   UNL     1     -16.888  42.856 -13.180  0.00  0.00    +0.000 C 
ATOM     16  C   UNL     1     -15.187  43.032 -11.345  0.00  0.00    +0.000 C 
BRANCH  14  17
ATOM     17  C   UNL     1     -16.680  44.921 -11.860  0.00  0.00    +0.000 C 
ATOM     18  C   UNL     1     -16.753  46.119 -11.910  0.00  0.00    +0.000 C 
ENDBRANCH  14  17
ENDBRANCH   2  14
TORSDOF 4
ENDMDL
MODEL 2
REMARK VINA RESULT:    -5.675      1.749      5.213
REMARK INTER + INTRA:          -6.779
REMARK INTER:                  -6.814
REMARK INTRA:                   0.034
REMARK UNBOUND:                 0.057
REMARK  Name = 15154532
REMARK  6 active torsions:
REMARK  status: ('A' for Active; 'I' for Inactive)
REMARK    1  A    between atoms: N_2  and  C_5
REMARK    2  A    between atoms: N_4  and  C_11
REMARK    3  A    between atoms: C_5  and  C_6
REMARK    4  A    between atoms: C_5  and  C_7
REMARK    5  A    between atoms: C_5  and  C_10
REMARK    6  A    between atoms: C_8  and  C_9
REMARK                            x       y       z     vdW  Elec       q    Type
REMARK                         _______ _______ _______ _____ _____    ______ ____
ROOT
ATOM      1  O   UNL     1     -18.685  39.751 -10.082  0.00  0.00    +0.000 OA
ATOM      2  N   UNL     1     -19.885  41.581  -9.318  0.00  0.00    +0.000 N 
ATOM      3  C   UNL     1     -19.046  40.919 -10.196  0.00  0.00    +0.000 C 
ATOM      4  H   UNL     1     -20.195  42.526  -9.526  0.00  0.00    +0.000 HD
ENDROOT
BRANCH   3   6
ATOM      5  N   UNL     1     -18.539  42.212 -13.683  0.00  0.00    +0.000 NA
ATOM      6  C   UNL     1     -18.548  41.725 -11.341  0.00  0.00    +0.000 A 
ATOM      7  C   UNL     1     -18.975  41.496 -12.623  0.00  0.00    +0.000 A 
ATOM      8  C   UNL     1     -17.632  42.720 -11.087  0.00  0.00    +0.000 A 
ATOM      9  C   UNL     1     -17.160  43.478 -12.153  0.00  0.00    +0.000 A 
ATOM     10  C   UNL     1     -17.640  43.187 -13.420  0.00  0.00    +0.000 A 
BRANCH   7  11
ATOM     11  N   UNL     1     -19.918  40.466 -12.865  0.00  0.00    +0.000 N 
ATOM     12  H   UNL     1     -20.236  39.947 -12.055  0.00  0.00    +0.000 HD
ATOM     13  H   UNL     1     -19.882  39.975 -13.750  0.00  0.00    +0.000 HD
ENDBRANCH   7  11
ENDBRANCH   3   6
BRANCH   2  14
ATOM     14  C   UNL     1     -20.434  40.940  -8.140  0.00  0.00    +0.000 C 
ATOM     15  C   UNL     1     -19.290  40.494  -7.222  0.00  0.00    +0.000 C 
ATOM     16  C   UNL     1     -21.262  39.724  -8.568  0.00  0.00    +0.000 C 
BRANCH  14  17
ATOM     17  C   UNL     1     -21.295  41.904  -7.424  0.00  0.00    +0.000 C 
ATOM     18  C   UNL     1     -21.996  42.688  -6.844  0.00  0.00    +0.000 C 
ENDBRANCH  14  17
ENDBRANCH   2  14
TORSDOF 4
ENDMDL
MODEL 3
REMARK VINA RESULT:    -5.491      2.223      5.408
REMARK INTER + INTRA:          -6.558
REMARK INTER:                  -6.592
REMARK INTRA:                   0.034
REMARK UNBOUND:                 0.057
REMARK  Name = 15154532
REMARK  6 active torsions:
REMARK  status: ('A' for Active; 'I' for Inactive)
REMARK    1  A    between atoms: N_2  and  C_5
REMARK    2  A    between atoms: N_4  and  C_11
REMARK    3  A    between atoms: C_5  and  C_6
REMARK    4  A    between atoms: C_5  and  C_7
REMARK    5  A    between atoms: C_5  and  C_10
REMARK    6  A    between atoms: C_8  and  C_9
REMARK                            x       y       z     vdW  Elec       q    Type
REMARK                         _______ _______ _______ _____ _____    ______ ____
ROOT
ATOM      1  O   UNL     1     -17.134  41.788 -13.217  0.00  0.00    +0.000 OA
ATOM      2  N   UNL     1     -18.645  41.896 -11.463  0.00  0.00    +0.000 N 
ATOM      3  C   UNL     1     -17.874  42.432 -12.479  0.00  0.00    +0.000 C 
ATOM      4  H   UNL     1     -19.288  42.490 -10.946  0.00  0.00    +0.000 HD
ENDROOT
BRANCH   3   6
ATOM      5  N   UNL     1     -18.459  45.815 -13.994  0.00  0.00    +0.000 NA
ATOM      6  C   UNL     1     -17.959  43.906 -12.642  0.00  0.00    +0.000 A 
ATOM      7  C   UNL     1     -18.373  44.478 -13.817  0.00  0.00    +0.000 A 
ATOM      8  C   UNL     1     -17.608  44.701 -11.575  0.00  0.00    +0.000 A 
ATOM      9  C   UNL     1     -17.684  46.082 -11.720  0.00  0.00    +0.000 A 
ATOM     10  C   UNL     1     -18.111  46.585 -12.938  0.00  0.00    +0.000 A 
BRANCH   7  11
ATOM     11  N   UNL     1     -18.730  43.644 -14.905  0.00  0.00    +0.000 N 
ATOM     12  H   UNL     1     -18.061  42.927 -15.162  0.00  0.00    +0.000 HD
ATOM     13  H   UNL     1     -19.307  44.030 -15.643  0.00  0.00    +0.000 HD
ENDBRANCH   7  11
ENDBRANCH   3   6
BRANCH   2  14
ATOM     14  C   UNL     1     -18.652  40.479 -11.162  0.00  0.00    +0.000 C 
ATOM     15  C   UNL     1     -17.221  40.013 -10.867  0.00  0.00    +0.000 C 
ATOM     16  C   UNL     1     -19.212  39.712 -12.364  0.00  0.00    +0.000 C 
BRANCH  14  17
ATOM     17  C   UNL     1     -19.502  40.242  -9.977  0.00  0.00    +0.000 C 
ATOM     18  C   UNL     1     -20.195  40.049  -9.015  0.00  0.00    +0.000 C 
ENDBRANCH  14  17
ENDBRANCH   2  14
TORSDOF 4
ENDMDL
MODEL 4
REMARK VINA RESULT:    -4.926      4.324      5.720
REMARK INTER + INTRA:          -5.877
REMARK INTER:                  -6.088
REMARK INTRA:                   0.211
REMARK UNBOUND:                 0.057
REMARK  Name = 15154532
REMARK  6 active torsions:
REMARK  status: ('A' for Active; 'I' for Inactive)
REMARK    1  A    between atoms: N_2  and  C_5
REMARK    2  A    between atoms: N_4  and  C_11
REMARK    3  A    between atoms: C_5  and  C_6
REMARK    4  A    between atoms: C_5  and  C_7
REMARK    5  A    between atoms: C_5  and  C_10
REMARK    6  A    between atoms: C_8  and  C_9
REMARK                            x       y       z     vdW  Elec       q    Type
REMARK                         _______ _______ _______ _____ _____    ______ ____
ROOT
ATOM      1  O   UNL     1     -20.756  42.692 -14.921  0.00  0.00    +0.000 OA
ATOM      2  N   UNL     1     -19.206  44.054 -15.977  0.00  0.00    +0.000 N 
ATOM      3  C   UNL     1     -19.715  43.343 -14.905  0.00  0.00    +0.000 C 
ATOM      4  H   UNL     1     -18.299  44.506 -15.901  0.00  0.00    +0.000 HD
ENDROOT
BRANCH   3   6
ATOM      5  N   UNL     1     -17.842  42.325 -11.816  0.00  0.00    +0.000 NA
ATOM      6  C   UNL     1     -18.924  43.416 -13.650  0.00  0.00    +0.000 A 
ATOM      7  C   UNL     1     -18.561  42.289 -12.961  0.00  0.00    +0.000 A 
ATOM      8  C   UNL     1     -18.558  44.658 -13.182  0.00  0.00    +0.000 A 
ATOM      9  C   UNL     1     -17.818  44.735 -12.007  0.00  0.00    +0.000 A 
ATOM     10  C   UNL     1     -17.489  43.550 -11.367  0.00  0.00    +0.000 A 
BRANCH   7  11
ATOM     11  N   UNL     1     -18.948  41.019 -13.456  0.00  0.00    +0.000 N 
ATOM     12  H   UNL     1     -19.923  40.914 -13.713  0.00  0.00    +0.000 HD
ATOM     13  H   UNL     1     -18.462  40.198 -13.117  0.00  0.00    +0.000 HD
ENDBRANCH   7  11
ENDBRANCH   3   6
BRANCH   2  14
ATOM     14  C   UNL     1     -19.874  44.102 -17.262  0.00  0.00    +0.000 C 
ATOM     15  C   UNL     1     -20.516  42.741 -17.554  0.00  0.00    +0.000 C 
ATOM     16  C   UNL     1     -18.849  44.439 -18.350  0.00  0.00    +0.000 C 
BRANCH  14  17
ATOM     17  C   UNL     1     -20.921  45.144 -17.221  0.00  0.00    +0.000 C 
ATOM     18  C   UNL     1     -21.773  45.990 -17.188  0.00  0.00    +0.000 C 
ENDBRANCH  14  17
ENDBRANCH   2  14
TORSDOF 4
ENDMDL
MODEL 5
REMARK VINA RESULT:    -4.909      2.377      2.975
REMARK INTER + INTRA:          -5.856
REMARK INTER:                  -5.926
REMARK INTRA:                   0.070
REMARK UNBOUND:                 0.057
REMARK  Name = 15154532
REMARK  6 active torsions:
REMARK  status: ('A' for Active; 'I' for Inactive)
REMARK    1  A    between atoms: N_2  and  C_5
REMARK    2  A    between atoms: N_4  and  C_11
REMARK    3  A    between atoms: C_5  and  C_6
REMARK    4  A    between atoms: C_5  and  C_7
REMARK    5  A    between atoms: C_5  and  C_10
REMARK    6  A    between atoms: C_8  and  C_9
REMARK                            x       y       z     vdW  Elec       q    Type
REMARK                         _______ _______ _______ _____ _____    ______ ____
ROOT
ATOM      1  O   UNL     1     -18.817  44.374 -12.880  0.00  0.00    +0.000 OA
ATOM      2  N   UNL     1     -16.651  43.944 -12.172  0.00  0.00    +0.000 N 
ATOM      3  C   UNL     1     -17.977  43.620 -12.396  0.00  0.00    +0.000 C 
ATOM      4  H   UNL     1     -16.005  43.236 -11.836  0.00  0.00    +0.000 HD
ENDROOT
BRANCH   3   6
ATOM      5  N   UNL     1     -19.497  40.188 -12.461  0.00  0.00    +0.000 NA
ATOM      6  C   UNL     1     -18.383  42.251 -11.983  0.00  0.00    +0.000 A 
ATOM      7  C   UNL     1     -19.114  41.437 -12.809  0.00  0.00    +0.000 A 
ATOM      8  C   UNL     1     -18.008  41.808 -10.736  0.00  0.00    +0.000 A 
ATOM      9  C   UNL     1     -18.384  40.529 -10.342  0.00  0.00    +0.000 A 
ATOM     10  C   UNL     1     -19.122  39.765 -11.233  0.00  0.00    +0.000 A 
BRANCH   7  11
ATOM     11  N   UNL     1     -19.492  41.910 -14.090  0.00  0.00    +0.000 N 
ATOM     12  H   UNL     1     -18.770  42.370 -14.632  0.00  0.00    +0.000 HD
ATOM     13  H   UNL     1     -20.448  42.213 -14.231  0.00  0.00    +0.000 HD
ENDBRANCH   7  11
ENDBRANCH   3   6
BRANCH   2  14
ATOM     14  C   UNL     1     -16.109  45.248 -12.497  0.00  0.00    +0.000 C 
ATOM     15  C   UNL     1     -16.144  45.451 -14.016  0.00  0.00    +0.000 C 
ATOM     16  C   UNL     1     -14.664  45.331 -11.994  0.00  0.00    +0.000 C 
BRANCH  14  17
ATOM     17  C   UNL     1     -16.927  46.287 -11.839  0.00  0.00    +0.000 C 
ATOM     18  C   UNL     1     -17.591  47.133 -11.304  0.00  0.00    +0.000 C 
ENDBRANCH  14  17
ENDBRANCH   2  14
TORSDOF 4
ENDMDL
