MODEL 1
REMARK VINA RESULT:    -5.949      0.000      0.000
REMARK INTER + INTRA:          -7.225
REMARK INTER:                  -6.993
REMARK INTRA:                  -0.233
REMARK UNBOUND:                -0.233
REMARK  Name = 152476187
REMARK  3 active torsions:
REMARK  status: ('A' for Active; 'I' for Inactive)
REMARK    1  A    between atoms: N_2  and  C_9
REMARK    2  A    between atoms: N_3  and  C_12
REMARK    3  A    between atoms: C_15  and  C_18
REMARK                            x       y       z     vdW  Elec       q    Type
REMARK                         _______ _______ _______ _____ _____    ______ ____
ROOT
ATOM      1  N   UNL     1     -20.237  42.648 -14.724  0.00  0.00    +0.000 N 
ATOM      2  N   UNL     1     -18.036  42.369 -13.888  0.00  0.00    +0.000 NA
ATOM      3  C   UNL     1     -19.360  42.137 -13.753  0.00  0.00    +0.000 A 
ATOM      4  C   UNL     1     -19.920  41.421 -12.707  0.00  0.00    +0.000 A 
ATOM      5  C   UNL     1     -17.695  41.127 -11.842  0.00  0.00    +0.000 A 
ATOM      6  C   UNL     1     -19.065  40.909 -11.738  0.00  0.00    +0.000 A 
ATOM      7  C   UNL     1     -17.235  41.857 -12.927  0.00  0.00    +0.000 A 
ATOM      8  H   UNL     1     -21.222  42.449 -14.582  0.00  0.00    +0.000 HD
ENDROOT
BRANCH   5  11
ATOM      9  O   UNL     1     -17.151  40.347  -9.688  0.00  0.00    +0.000 OA
ATOM     10  N   UNL     1     -15.449  40.414 -11.223  0.00  0.00    +0.000 N 
ATOM     11  C   UNL     1     -16.777  40.603 -10.847  0.00  0.00    +0.000 C 
ATOM     12  H   UNL     1     -15.066  40.603 -12.141  0.00  0.00    +0.000 HD
ATOM     13  H   UNL     1     -14.784  40.057 -10.546  0.00  0.00    +0.000 HD
ENDBRANCH   5  11
BRANCH   1  15
ATOM     14  C   UNL     1     -20.198  43.062 -17.107  0.00  0.00    +0.000 C 
ATOM     15  C   UNL     1     -19.944  43.375 -15.832  0.00  0.00    +0.000 C 
BRANCH  14  16
ATOM     16  N   UNL     1     -19.902  43.797 -18.226  0.00  0.00    +0.000 N 
ATOM     17  C   UNL     1     -20.934  44.717 -18.764  0.00  0.00    +0.000 C 
ATOM     18  C   UNL     1     -20.479  45.462 -19.996  0.00  0.00    +0.000 C 
ATOM     19  C   UNL     1     -18.668  43.700 -18.861  0.00  0.00    +0.000 C 
ATOM     20  C   UNL     1     -19.264  45.304 -20.541  0.00  0.00    +0.000 C 
ATOM     21  C   UNL     1     -18.319  44.389 -19.955  0.00  0.00    +0.000 C 
ENDBRANCH  14  16
ENDBRANCH   1  15
TORSDOF 3
ENDMDL
MODEL 2
REMARK VINA RESULT:    -5.887      2.276      2.751
REMARK INTER + INTRA:          -7.152
REMARK INTER:                  -7.008
REMARK INTRA:                  -0.143
REMARK UNBOUND:                -0.233
REMARK  Name = 152476187
REMARK  3 active torsions:
REMARK  status: ('A' for Active; 'I' for Inactive)
REMARK    1  A    between atoms: N_2  and  C_9
REMARK    2  A    between atoms: N_3  and  C_12
REMARK    3  A    between atoms: C_15  and  C_18
REMARK                            x       y       z     vdW  Elec       q    Type
REMARK                         _______ _______ _______ _____ _____    ______ ____
ROOT
ATOM      1  N   UNL     1     -17.779  44.346 -14.350  0.00  0.00    +0.000 N 
ATOM      2  N   UNL     1     -19.119  42.829 -13.114  0.00  0.00    +0.000 NA
ATOM      3  C   UNL     1     -17.889  43.301 -13.418  0.00  0.00    +0.000 A 
ATOM      4  C   UNL     1     -16.714  42.818 -12.865  0.00  0.00    +0.000 A 
ATOM      5  C   UNL     1     -18.055  41.271 -11.603  0.00  0.00    +0.000 A 
ATOM      6  C   UNL     1     -16.807  41.784 -11.941  0.00  0.00    +0.000 A 
ATOM      7  C   UNL     1     -19.170  41.823 -12.213  0.00  0.00    +0.000 A 
ATOM      8  H   UNL     1     -16.837  44.669 -14.546  0.00  0.00    +0.000 HD
ENDROOT
BRANCH   5  11
ATOM      9  O   UNL     1     -18.691  39.098 -10.952  0.00  0.00    +0.000 OA
ATOM     10  N   UNL     1     -17.741  40.424  -9.340  0.00  0.00    +0.000 N 
ATOM     11  C   UNL     1     -18.184  40.192 -10.640  0.00  0.00    +0.000 C 
ATOM     12  H   UNL     1     -17.324  41.284  -9.006  0.00  0.00    +0.000 HD
ATOM     13  H   UNL     1     -17.826  39.690  -8.645  0.00  0.00    +0.000 HD
ENDBRANCH   5  11
BRANCH   1  15
ATOM     14  C   UNL     1     -19.557  44.489 -15.983  0.00  0.00    +0.000 C 
ATOM     15  C   UNL     1     -18.767  44.986 -15.027  0.00  0.00    +0.000 C 
BRANCH  14  16
ATOM     16  N   UNL     1     -20.556  45.134 -16.666  0.00  0.00    +0.000 N 
ATOM     17  C   UNL     1     -21.771  44.369 -17.039  0.00  0.00    +0.000 C 
ATOM     18  C   UNL     1     -22.787  45.198 -17.786  0.00  0.00    +0.000 C 
ATOM     19  C   UNL     1     -20.455  46.478 -17.012  0.00  0.00    +0.000 C 
ATOM     20  C   UNL     1     -22.603  46.494 -18.078  0.00  0.00    +0.000 C 
ATOM     21  C   UNL     1     -21.394  47.165 -17.678  0.00  0.00    +0.000 C 
ENDBRANCH  14  16
ENDBRANCH   1  15
TORSDOF 3
ENDMDL
MODEL 3
REMARK VINA RESULT:    -5.882      1.580      2.106
REMARK INTER + INTRA:          -7.146
REMARK INTER:                  -6.918
REMARK INTRA:                  -0.228
REMARK UNBOUND:                -0.233
REMARK  Name = 152476187
REMARK  3 active torsions:
REMARK  status: ('A' for Active; 'I' for Inactive)
REMARK    1  A    between atoms: N_2  and  C_9
REMARK    2  A    between atoms: N_3  and  C_12
REMARK    3  A    between atoms: C_15  and  C_18
REMARK                            x       y       z     vdW  Elec       q    Type
REMARK                         _______ _______ _______ _____ _____    ______ ____
ROOT
ATOM      1  N   UNL     1     -18.611  44.046 -14.380  0.00  0.00    +0.000 N 
ATOM      2  N   UNL     1     -19.303  41.946 -13.522  0.00  0.00    +0.000 NA
ATOM      3  C   UNL     1     -18.641  43.109 -13.334  0.00  0.00    +0.000 A 
ATOM      4  C   UNL     1     -17.982  43.446 -12.162  0.00  0.00    +0.000 A 
ATOM      5  C   UNL     1     -18.673  41.320 -11.274  0.00  0.00    +0.000 A 
ATOM      6  C   UNL     1     -18.003  42.529 -11.117  0.00  0.00    +0.000 A 
ATOM      7  C   UNL     1     -19.301  41.079 -12.485  0.00  0.00    +0.000 A 
ATOM      8  H   UNL     1     -18.104  44.904 -14.193  0.00  0.00    +0.000 HD
ENDROOT
BRANCH   5  11
ATOM      9  O   UNL     1     -19.527  39.401 -10.210  0.00  0.00    +0.000 OA
ATOM     10  N   UNL     1     -17.825  40.504  -9.140  0.00  0.00    +0.000 N 
ATOM     11  C   UNL     1     -18.714  40.344 -10.200  0.00  0.00    +0.000 C 
ATOM     12  H   UNL     1     -17.139  41.244  -9.056  0.00  0.00    +0.000 HD
ATOM     13  H   UNL     1     -17.837  39.840  -8.373  0.00  0.00    +0.000 HD
ENDBRANCH   5  11
BRANCH   1  15
ATOM     14  C   UNL     1     -19.103  44.846 -16.609  0.00  0.00    +0.000 C 
ATOM     15  C   UNL     1     -19.172  43.957 -15.613  0.00  0.00    +0.000 C 
BRANCH  14  16
ATOM     16  N   UNL     1     -19.668  44.756 -17.855  0.00  0.00    +0.000 N 
ATOM     17  C   UNL     1     -18.932  45.322 -19.012  0.00  0.00    +0.000 C 
ATOM     18  C   UNL     1     -19.666  45.156 -20.320  0.00  0.00    +0.000 C 
ATOM     19  C   UNL     1     -20.904  44.150 -18.055  0.00  0.00    +0.000 C 
ATOM     20  C   UNL     1     -20.860  44.555 -20.418  0.00  0.00    +0.000 C 
ATOM     21  C   UNL     1     -21.509  44.030 -19.245  0.00  0.00    +0.000 C 
ENDBRANCH  14  16
ENDBRANCH   1  15
TORSDOF 3
ENDMDL
MODEL 4
REMARK VINA RESULT:    -5.739      3.375      8.044
REMARK INTER + INTRA:          -6.978
REMARK INTER:                  -6.756
REMARK INTRA:                  -0.223
REMARK UNBOUND:                -0.233
REMARK  Name = 152476187
REMARK  3 active torsions:
REMARK  status: ('A' for Active; 'I' for Inactive)
REMARK    1  A    between atoms: N_2  and  C_9
REMARK    2  A    between atoms: N_3  and  C_12
REMARK    3  A    between atoms: C_15  and  C_18
REMARK                            x       y       z     vdW  Elec       q    Type
REMARK                         _______ _______ _______ _____ _____    ______ ____
ROOT
ATOM      1  N   UNL     1     -18.844  44.911 -14.377  0.00  0.00    +0.000 N 
ATOM      2  N   UNL     1     -19.914  43.670 -16.090  0.00  0.00    +0.000 NA
ATOM      3  C   UNL     1     -19.256  44.788 -15.714  0.00  0.00    +0.000 A 
ATOM      4  C   UNL     1     -18.955  45.836 -16.570  0.00  0.00    +0.000 A 
ATOM      5  C   UNL     1     -20.038  44.594 -18.321  0.00  0.00    +0.000 A 
ATOM      6  C   UNL     1     -19.357  45.729 -17.896  0.00  0.00    +0.000 A 
ATOM      7  C   UNL     1     -20.290  43.601 -17.388  0.00  0.00    +0.000 A 
ATOM      8  H   UNL     1     -18.352  45.767 -14.141  0.00  0.00    +0.000 HD
ENDROOT
BRANCH   5  11
ATOM      9  O   UNL     1     -19.892  45.052 -20.627  0.00  0.00    +0.000 OA
ATOM     10  N   UNL     1     -21.566  43.635 -19.958  0.00  0.00    +0.000 N 
ATOM     11  C   UNL     1     -20.468  44.452 -19.700  0.00  0.00    +0.000 C 
ATOM     12  H   UNL     1     -22.091  43.119 -19.263  0.00  0.00    +0.000 HD
ATOM     13  H   UNL     1     -21.893  43.523 -20.913  0.00  0.00    +0.000 HD
ENDBRANCH   5  11
BRANCH   1  15
ATOM     14  C   UNL     1     -18.229  43.009 -13.016  0.00  0.00    +0.000 C 
ATOM     15  C   UNL     1     -19.015  44.036 -13.354  0.00  0.00    +0.000 C 
BRANCH  14  16
ATOM     16  N   UNL     1     -18.401  42.125 -11.982  0.00  0.00    +0.000 N 
ATOM     17  C   UNL     1     -19.091  40.840 -12.253  0.00  0.00    +0.000 C 
ATOM     18  C   UNL     1     -19.214  39.963 -11.030  0.00  0.00    +0.000 C 
ATOM     19  C   UNL     1     -17.946  42.405 -10.697  0.00  0.00    +0.000 C 
ATOM     20  C   UNL     1     -18.743  40.318  -9.826  0.00  0.00    +0.000 C 
ATOM     21  C   UNL     1     -18.084  41.584  -9.647  0.00  0.00    +0.000 C 
ENDBRANCH  14  16
ENDBRANCH   1  15
TORSDOF 3
ENDMDL
MODEL 5
REMARK VINA RESULT:    -5.265      4.613      6.969
REMARK INTER + INTRA:          -6.421
REMARK INTER:                  -6.202
REMARK INTRA:                  -0.220
REMARK UNBOUND:                -0.233
REMARK  Name = 152476187
REMARK  3 active torsions:
REMARK  status: ('A' for Active; 'I' for Inactive)
REMARK    1  A    between atoms: N_2  and  C_9
REMARK    2  A    between atoms: N_3  and  C_12
REMARK    3  A    between atoms: C_15  and  C_18
REMARK                            x       y       z     vdW  Elec       q    Type
REMARK                         _______ _______ _______ _____ _____    ______ ____
ROOT
ATOM      1  N   UNL     1     -16.571  43.995 -13.414  0.00  0.00    +0.000 N 
ATOM      2  N   UNL     1     -16.985  42.614 -11.531  0.00  0.00    +0.000 NA
ATOM      3  C   UNL     1     -17.266  42.932 -12.814  0.00  0.00    +0.000 A 
ATOM      4  C   UNL     1     -18.206  42.270 -13.589  0.00  0.00    +0.000 A 
ATOM      5  C   UNL     1     -18.641  40.861 -11.690  0.00  0.00    +0.000 A 
ATOM      6  C   UNL     1     -18.901  41.216 -13.008  0.00  0.00    +0.000 A 
ATOM      7  C   UNL     1     -17.681  41.584 -11.000  0.00  0.00    +0.000 A 
ATOM      8  H   UNL     1     -16.815  44.196 -14.378  0.00  0.00    +0.000 HD
ENDROOT
BRANCH   5  11
ATOM      9  O   UNL     1     -19.340  38.616 -11.543  0.00  0.00    +0.000 OA
ATOM     10  N   UNL     1     -20.064  40.035  -9.892  0.00  0.00    +0.000 N 
ATOM     11  C   UNL     1     -19.350  39.763 -11.057  0.00  0.00    +0.000 C 
ATOM     12  H   UNL     1     -20.126  40.938  -9.439  0.00  0.00    +0.000 HD
ATOM     13  H   UNL     1     -20.575  39.288  -9.433  0.00  0.00    +0.000 HD
ENDBRANCH   5  11
BRANCH   1  15
ATOM     14  C   UNL     1     -15.785  45.867 -12.100  0.00  0.00    +0.000 C 
ATOM     15  C   UNL     1     -15.613  44.792 -12.876  0.00  0.00    +0.000 C 
BRANCH  14  16
ATOM     16  N   UNL     1     -14.818  46.672 -11.555  0.00  0.00    +0.000 N 
ATOM     17  C   UNL     1     -13.408  46.213 -11.592  0.00  0.00    +0.000 C 
ATOM     18  C   UNL     1     -12.449  47.192 -10.959  0.00  0.00    +0.000 C 
ATOM     19  C   UNL     1     -15.128  47.899 -10.976  0.00  0.00    +0.000 C 
ATOM     20  C   UNL     1     -12.841  48.357 -10.423  0.00  0.00    +0.000 C 
ATOM     21  C   UNL     1     -14.231  48.729 -10.428  0.00  0.00    +0.000 C 
ENDBRANCH  14  16
ENDBRANCH   1  15
TORSDOF 3
ENDMDL
