MODEL 1
REMARK VINA RESULT:    -6.597      0.000      0.000
REMARK INTER + INTRA:          -6.779
REMARK INTER:                  -6.983
REMARK INTRA:                   0.204
REMARK UNBOUND:                 0.204
REMARK  Name = 153682203
REMARK  1 active torsions:
REMARK  status: ('A' for Active; 'I' for Inactive)
REMARK    1  A    between atoms: C_11  and  C_12
REMARK                            x       y       z     vdW  Elec       q    Type
REMARK                         _______ _______ _______ _____ _____    ______ ____
ROOT
ATOM      1  F   UNL     1     -18.889  38.993 -12.923  0.00  0.00    +0.000 F 
ATOM      2  F   UNL     1     -17.297  40.348 -13.549  0.00  0.00    +0.000 F 
ATOM      3  O   UNL     1     -17.736  40.061  -8.358  0.00  0.00    +0.000 OA
ATOM      4  N   UNL     1     -18.754  40.592 -10.376  0.00  0.00    +0.000 N 
ATOM      5  C   UNL     1     -18.251  40.148 -12.622  0.00  0.00    +0.000 C 
ATOM      6  C   UNL     1     -19.240  41.298 -12.576  0.00  0.00    +0.000 C 
ATOM      7  C   UNL     1     -17.684  40.079 -11.221  0.00  0.00    +0.000 C 
ATOM      8  C   UNL     1     -19.833  41.169 -11.180  0.00  0.00    +0.000 C 
ATOM      9  C   UNL     1     -18.663  40.559  -8.993  0.00  0.00    +0.000 C 
ENDROOT
BRANCH   9  12
ATOM     10  N   UNL     1     -22.110  41.261  -7.683  0.00  0.00    +0.000 NA
ATOM     11  N   UNL     1     -22.889  42.854  -6.092  0.00  0.00    +0.000 N 
ATOM     12  C   UNL     1     -19.755  41.176  -8.223  0.00  0.00    +0.000 A 
ATOM     13  C   UNL     1     -19.505  42.215  -7.333  0.00  0.00    +0.000 A 
ATOM     14  C   UNL     1     -21.063  40.739  -8.361  0.00  0.00    +0.000 A 
ATOM     15  C   UNL     1     -20.557  42.778  -6.619  0.00  0.00    +0.000 A 
ATOM     16  C   UNL     1     -21.828  42.270  -6.827  0.00  0.00    +0.000 A 
ATOM     17  H   UNL     1     -22.681  43.267  -5.191  0.00  0.00    +0.000 HD
ATOM     18  H   UNL     1     -23.816  42.475  -6.243  0.00  0.00    +0.000 HD
ENDBRANCH   9  12
TORSDOF 1
ENDMDL
MODEL 2
REMARK VINA RESULT:    -6.290      3.358      5.843
REMARK INTER + INTRA:          -6.454
REMARK INTER:                  -6.596
REMARK INTRA:                   0.142
REMARK UNBOUND:                 0.204
REMARK  Name = 153682203
REMARK  1 active torsions:
REMARK  status: ('A' for Active; 'I' for Inactive)
REMARK    1  A    between atoms: C_11  and  C_12
REMARK                            x       y       z     vdW  Elec       q    Type
REMARK                         _______ _______ _______ _____ _____    ______ ____
ROOT
ATOM      1  F   UNL     1     -22.197  43.098  -6.918  0.00  0.00    +0.000 F 
ATOM      2  F   UNL     1     -21.576  41.893  -5.207  0.00  0.00    +0.000 F 
ATOM      3  O   UNL     1     -17.720  42.584  -8.653  0.00  0.00    +0.000 OA
ATOM      4  N   UNL     1     -19.853  41.759  -8.250  0.00  0.00    +0.000 N 
ATOM      5  C   UNL     1     -21.420  42.059  -6.533  0.00  0.00    +0.000 C 
ATOM      6  C   UNL     1     -21.796  40.808  -7.304  0.00  0.00    +0.000 C 
ATOM      7  C   UNL     1     -19.978  42.319  -6.911  0.00  0.00    +0.000 C 
ATOM      8  C   UNL     1     -21.042  40.987  -8.614  0.00  0.00    +0.000 C 
ATOM      9  C   UNL     1     -18.697  41.925  -8.999  0.00  0.00    +0.000 C 
ENDROOT
BRANCH   9  12
ATOM     10  N   UNL     1     -18.645  39.192 -11.572  0.00  0.00    +0.000 NA
ATOM     11  N   UNL     1     -18.453  39.275 -13.945  0.00  0.00    +0.000 N 
ATOM     12  C   UNL     1     -18.630  41.252 -10.306  0.00  0.00    +0.000 A 
ATOM     13  C   UNL     1     -18.497  41.982 -11.482  0.00  0.00    +0.000 A 
ATOM     14  C   UNL     1     -18.699  39.871 -10.404  0.00  0.00    +0.000 A 
ATOM     15  C   UNL     1     -18.438  41.319 -12.702  0.00  0.00    +0.000 A 
ATOM     16  C   UNL     1     -18.515  39.936 -12.693  0.00  0.00    +0.000 A 
ATOM     17  H   UNL     1     -18.781  39.767 -14.767  0.00  0.00    +0.000 HD
ATOM     18  H   UNL     1     -18.516  38.264 -13.934  0.00  0.00    +0.000 HD
ENDBRANCH   9  12
TORSDOF 1
ENDMDL
MODEL 3
REMARK VINA RESULT:    -6.274      3.769      5.960
REMARK INTER + INTRA:          -6.438
REMARK INTER:                  -6.291
REMARK INTRA:                  -0.146
REMARK UNBOUND:                 0.204
REMARK  Name = 153682203
REMARK  1 active torsions:
REMARK  status: ('A' for Active; 'I' for Inactive)
REMARK    1  A    between atoms: C_11  and  C_12
REMARK                            x       y       z     vdW  Elec       q    Type
REMARK                         _______ _______ _______ _____ _____    ______ ____
ROOT
ATOM      1  F   UNL     1     -19.323  39.703  -7.683  0.00  0.00    +0.000 F 
ATOM      2  F   UNL     1     -21.338  40.522  -7.863  0.00  0.00    +0.000 F 
ATOM      3  O   UNL     1     -18.628  40.922 -12.304  0.00  0.00    +0.000 OA
ATOM      4  N   UNL     1     -18.782  41.477 -10.054  0.00  0.00    +0.000 N 
ATOM      5  C   UNL     1     -20.063  40.678  -8.261  0.00  0.00    +0.000 C 
ATOM      6  C   UNL     1     -19.519  42.043  -7.883  0.00  0.00    +0.000 C 
ATOM      7  C   UNL     1     -19.921  40.616  -9.766  0.00  0.00    +0.000 C 
ATOM      8  C   UNL     1     -18.369  42.224  -8.864  0.00  0.00    +0.000 C 
ATOM      9  C   UNL     1     -18.250  41.571 -11.331  0.00  0.00    +0.000 C 
ENDROOT
BRANCH   9  12
ATOM     10  N   UNL     1     -14.778  42.977 -11.582  0.00  0.00    +0.000 NA
ATOM     11  N   UNL     1     -14.007  45.164 -12.128  0.00  0.00    +0.000 N 
ATOM     12  C   UNL     1     -17.154  42.530 -11.544  0.00  0.00    +0.000 A 
ATOM     13  C   UNL     1     -17.415  43.849 -11.898  0.00  0.00    +0.000 A 
ATOM     14  C   UNL     1     -15.830  42.147 -11.399  0.00  0.00    +0.000 A 
ATOM     15  C   UNL     1     -16.359  44.732 -12.094  0.00  0.00    +0.000 A 
ATOM     16  C   UNL     1     -15.072  44.251 -11.925  0.00  0.00    +0.000 A 
ATOM     17  H   UNL     1     -14.148  45.936 -12.767  0.00  0.00    +0.000 HD
ATOM     18  H   UNL     1     -13.067  44.806 -12.009  0.00  0.00    +0.000 HD
ENDBRANCH   9  12
TORSDOF 1
ENDMDL
MODEL 4
REMARK VINA RESULT:    -5.964      4.120      6.082
REMARK INTER + INTRA:          -6.110
REMARK INTER:                  -5.987
REMARK INTRA:                  -0.123
REMARK UNBOUND:                 0.204
REMARK  Name = 153682203
REMARK  1 active torsions:
REMARK  status: ('A' for Active; 'I' for Inactive)
REMARK    1  A    between atoms: C_11  and  C_12
REMARK                            x       y       z     vdW  Elec       q    Type
REMARK                         _______ _______ _______ _____ _____    ______ ____
ROOT
ATOM      1  F   UNL     1     -18.523  38.945 -11.279  0.00  0.00    +0.000 F 
ATOM      2  F   UNL     1     -20.125  39.392  -9.866  0.00  0.00    +0.000 F 
ATOM      3  O   UNL     1     -19.376  43.245 -13.303  0.00  0.00    +0.000 OA
ATOM      4  N   UNL     1     -18.473  41.936 -11.610  0.00  0.00    +0.000 N 
ATOM      5  C   UNL     1     -19.120  39.935 -10.575  0.00  0.00    +0.000 C 
ATOM      6  C   UNL     1     -18.109  40.626  -9.680  0.00  0.00    +0.000 C 
ATOM      7  C   UNL     1     -19.602  41.021 -11.512  0.00  0.00    +0.000 C 
ATOM      8  C   UNL     1     -17.435  41.602 -10.634  0.00  0.00    +0.000 C 
ATOM      9  C   UNL     1     -18.480  43.002 -12.498  0.00  0.00    +0.000 C 
ENDROOT
BRANCH   9  12
ATOM     10  N   UNL     1     -15.077  44.436 -13.169  0.00  0.00    +0.000 NA
ATOM     11  N   UNL     1     -14.054  46.458 -12.436  0.00  0.00    +0.000 N 
ATOM     12  C   UNL     1     -17.332  43.922 -12.466  0.00  0.00    +0.000 A 
ATOM     13  C   UNL     1     -17.386  45.110 -11.745  0.00  0.00    +0.000 A 
ATOM     14  C   UNL     1     -16.165  43.633 -13.155  0.00  0.00    +0.000 A 
ATOM     15  C   UNL     1     -16.286  45.960 -11.736  0.00  0.00    +0.000 A 
ATOM     16  C   UNL     1     -15.166  45.581 -12.457  0.00  0.00    +0.000 A 
ATOM     17  H   UNL     1     -14.222  47.447 -12.300  0.00  0.00    +0.000 HD
ATOM     18  H   UNL     1     -13.240  46.179 -12.970  0.00  0.00    +0.000 HD
ENDBRANCH   9  12
TORSDOF 1
ENDMDL
MODEL 5
REMARK VINA RESULT:    -5.760      4.670      6.052
REMARK INTER + INTRA:          -5.893
REMARK INTER:                  -5.749
REMARK INTRA:                  -0.145
REMARK UNBOUND:                 0.204
REMARK  Name = 153682203
REMARK  1 active torsions:
REMARK  status: ('A' for Active; 'I' for Inactive)
REMARK    1  A    between atoms: C_11  and  C_12
REMARK                            x       y       z     vdW  Elec       q    Type
REMARK                         _______ _______ _______ _____ _____    ______ ____
ROOT
ATOM      1  F   UNL     1     -16.602  47.155 -13.333  0.00  0.00    +0.000 F 
ATOM      2  F   UNL     1     -16.283  47.939 -11.322  0.00  0.00    +0.000 F 
ATOM      3  O   UNL     1     -15.014  42.894 -11.710  0.00  0.00    +0.000 OA
ATOM      4  N   UNL     1     -16.671  44.509 -11.899  0.00  0.00    +0.000 N 
ATOM      5  C   UNL     1     -16.660  46.851 -12.016  0.00  0.00    +0.000 C 
ATOM      6  C   UNL     1     -18.060  46.401 -11.642  0.00  0.00    +0.000 C 
ATOM      7  C   UNL     1     -15.785  45.652 -11.720  0.00  0.00    +0.000 C 
ATOM      8  C   UNL     1     -18.061  44.938 -12.060  0.00  0.00    +0.000 C 
ATOM      9  C   UNL     1     -16.194  43.208 -11.847  0.00  0.00    +0.000 C 
ENDROOT
BRANCH   9  12
ATOM     10  N   UNL     1     -18.392  40.562 -13.349  0.00  0.00    +0.000 NA
ATOM     11  N   UNL     1     -19.927  39.042 -12.345  0.00  0.00    +0.000 N 
ATOM     12  C   UNL     1     -17.176  42.118 -11.954  0.00  0.00    +0.000 A 
ATOM     13  C   UNL     1     -17.806  41.608 -10.824  0.00  0.00    +0.000 A 
ATOM     14  C   UNL     1     -17.501  41.566 -13.183  0.00  0.00    +0.000 A 
ATOM     15  C   UNL     1     -18.728  40.576 -10.955  0.00  0.00    +0.000 A 
ATOM     16  C   UNL     1     -18.984  40.093 -12.228  0.00  0.00    +0.000 A 
ATOM     17  H   UNL     1     -20.046  38.412 -11.562  0.00  0.00    +0.000 HD
ATOM     18  H   UNL     1     -20.106  38.688 -13.277  0.00  0.00    +0.000 HD
ENDBRANCH   9  12
TORSDOF 1
ENDMDL
