MODEL 1
REMARK VINA RESULT:    -6.211      0.000      0.000
REMARK INTER + INTRA:          -7.093
REMARK INTER:                  -6.937
REMARK INTRA:                  -0.156
REMARK UNBOUND:                -0.156
REMARK  Name = 153625950
REMARK  2 active torsions:
REMARK  status: ('A' for Active; 'I' for Inactive)
REMARK    1  A    between atoms: N_5  and  C_11
REMARK    2  A    between atoms: C_6  and  C_11
REMARK                            x       y       z     vdW  Elec       q    Type
REMARK                         _______ _______ _______ _____ _____    ______ ____
ROOT
ATOM      1  N   UNL     1     -22.214  41.485  -7.369  0.00  0.00    +0.000 NA
ATOM      2  N   UNL     1     -22.257  43.080  -5.600  0.00  0.00    +0.000 N 
ATOM      3  C   UNL     1     -20.108  40.930  -8.419  0.00  0.00    +0.000 A 
ATOM      4  C   UNL     1     -19.447  41.816  -7.576  0.00  0.00    +0.000 A 
ATOM      5  C   UNL     1     -20.167  42.538  -6.630  0.00  0.00    +0.000 A 
ATOM      6  C   UNL     1     -21.537  42.338  -6.567  0.00  0.00    +0.000 A 
ATOM      7  C   UNL     1     -21.480  40.803  -8.276  0.00  0.00    +0.000 A 
ATOM      8  H   UNL     1     -21.777  43.366  -4.756  0.00  0.00    +0.000 HD
ATOM      9  H   UNL     1     -23.257  42.927  -5.554  0.00  0.00    +0.000 HD
ENDROOT
BRANCH   3  11
ATOM     10  O   UNL     1     -19.972  39.293 -10.091  0.00  0.00    +0.000 OA
ATOM     11  C   UNL     1     -19.383  40.161  -9.415  0.00  0.00    +0.000 C 
BRANCH  11  13
ATOM     12  S   UNL     1     -16.744  39.982 -11.972  0.00  0.00    +0.000 S 
ATOM     13  N   UNL     1     -18.022  40.447  -9.561  0.00  0.00    +0.000 NA
ATOM     14  C   UNL     1     -17.495  40.244 -10.591  0.00  0.00    +0.000 C 
ENDBRANCH  11  13
ENDBRANCH   3  11
TORSDOF 2
ENDMDL
MODEL 2
REMARK VINA RESULT:    -6.183      2.147      2.595
REMARK INTER + INTRA:          -7.062
REMARK INTER:                  -6.911
REMARK INTRA:                  -0.151
REMARK UNBOUND:                -0.156
REMARK  Name = 153625950
REMARK  2 active torsions:
REMARK  status: ('A' for Active; 'I' for Inactive)
REMARK    1  A    between atoms: N_5  and  C_11
REMARK    2  A    between atoms: C_6  and  C_11
REMARK                            x       y       z     vdW  Elec       q    Type
REMARK                         _______ _______ _______ _____ _____    ______ ____
ROOT
ATOM      1  N   UNL     1     -18.786  42.239  -7.839  0.00  0.00    +0.000 NA
ATOM      2  N   UNL     1     -20.305  42.487  -6.021  0.00  0.00    +0.000 N 
ATOM      3  C   UNL     1     -19.378  40.808  -9.696  0.00  0.00    +0.000 A 
ATOM      4  C   UNL     1     -20.590  40.507  -9.086  0.00  0.00    +0.000 A 
ATOM      5  C   UNL     1     -20.902  41.070  -7.853  0.00  0.00    +0.000 A 
ATOM      6  C   UNL     1     -19.974  41.922  -7.277  0.00  0.00    +0.000 A 
ATOM      7  C   UNL     1     -18.518  41.672  -9.037  0.00  0.00    +0.000 A 
ATOM      8  H   UNL     1     -21.282  42.622  -5.795  0.00  0.00    +0.000 HD
ATOM      9  H   UNL     1     -19.626  43.114  -5.606  0.00  0.00    +0.000 HD
ENDROOT
BRANCH   3  11
ATOM     10  O   UNL     1     -18.179  39.324 -11.058  0.00  0.00    +0.000 OA
ATOM     11  C   UNL     1     -19.025  40.238 -10.984  0.00  0.00    +0.000 C 
BRANCH  11  13
ATOM     12  S   UNL     1     -18.521  42.813 -13.564  0.00  0.00    +0.000 S 
ATOM     13  N   UNL     1     -19.677  40.765 -12.104  0.00  0.00    +0.000 NA
ATOM     14  C   UNL     1     -19.172  41.634 -12.713  0.00  0.00    +0.000 C 
ENDBRANCH  11  13
ENDBRANCH   3  11
TORSDOF 2
ENDMDL
MODEL 3
REMARK VINA RESULT:    -5.933      2.940      5.547
REMARK INTER + INTRA:          -6.783
REMARK INTER:                  -6.638
REMARK INTRA:                  -0.145
REMARK UNBOUND:                -0.156
REMARK  Name = 153625950
REMARK  2 active torsions:
REMARK  status: ('A' for Active; 'I' for Inactive)
REMARK    1  A    between atoms: N_5  and  C_11
REMARK    2  A    between atoms: C_6  and  C_11
REMARK                            x       y       z     vdW  Elec       q    Type
REMARK                         _______ _______ _______ _____ _____    ______ ____
ROOT
ATOM      1  N   UNL     1     -17.002  40.365 -10.813  0.00  0.00    +0.000 NA
ATOM      2  N   UNL     1     -16.556  39.870 -13.100  0.00  0.00    +0.000 N 
ATOM      3  C   UNL     1     -19.266  40.200  -9.980  0.00  0.00    +0.000 A 
ATOM      4  C   UNL     1     -19.709  39.811 -11.240  0.00  0.00    +0.000 A 
ATOM      5  C   UNL     1     -18.800  39.700 -12.287  0.00  0.00    +0.000 A 
ATOM      6  C   UNL     1     -17.470  39.986 -12.024  0.00  0.00    +0.000 A 
ATOM      7  C   UNL     1     -17.915  40.463  -9.820  0.00  0.00    +0.000 A 
ATOM      8  H   UNL     1     -16.767  39.214 -13.842  0.00  0.00    +0.000 HD
ATOM      9  H   UNL     1     -15.585  40.074 -12.902  0.00  0.00    +0.000 HD
ENDROOT
BRANCH   3  11
ATOM     10  O   UNL     1     -21.102  39.483  -8.710  0.00  0.00    +0.000 OA
ATOM     11  C   UNL     1     -20.190  40.321  -8.866  0.00  0.00    +0.000 C 
BRANCH  11  13
ATOM     12  S   UNL     1     -22.137  42.504  -6.634  0.00  0.00    +0.000 S 
ATOM     13  N   UNL     1     -19.998  41.407  -8.006  0.00  0.00    +0.000 NA
ATOM     14  C   UNL     1     -20.917  41.861  -7.431  0.00  0.00    +0.000 C 
ENDBRANCH  11  13
ENDBRANCH   3  11
TORSDOF 2
ENDMDL
MODEL 4
REMARK VINA RESULT:    -4.987      3.277      4.337
REMARK INTER + INTRA:          -5.726
REMARK INTER:                  -5.577
REMARK INTRA:                  -0.149
REMARK UNBOUND:                -0.156
REMARK  Name = 153625950
REMARK  2 active torsions:
REMARK  status: ('A' for Active; 'I' for Inactive)
REMARK    1  A    between atoms: N_5  and  C_11
REMARK    2  A    between atoms: C_6  and  C_11
REMARK                            x       y       z     vdW  Elec       q    Type
REMARK                         _______ _______ _______ _____ _____    ______ ____
ROOT
ATOM      1  N   UNL     1     -19.197  39.475 -10.783  0.00  0.00    +0.000 NA
ATOM      2  N   UNL     1     -20.717  39.486  -8.949  0.00  0.00    +0.000 N 
ATOM      3  C   UNL     1     -17.621  41.292 -11.033  0.00  0.00    +0.000 A 
ATOM      4  C   UNL     1     -18.123  41.894  -9.884  0.00  0.00    +0.000 A 
ATOM      5  C   UNL     1     -19.161  41.289  -9.185  0.00  0.00    +0.000 A 
ATOM      6  C   UNL     1     -19.659  40.090  -9.671  0.00  0.00    +0.000 A 
ATOM      7  C   UNL     1     -18.187  40.093 -11.436  0.00  0.00    +0.000 A 
ATOM      8  H   UNL     1     -20.785  39.664  -7.955  0.00  0.00    +0.000 HD
ATOM      9  H   UNL     1     -21.074  38.608  -9.305  0.00  0.00    +0.000 HD
ENDROOT
BRANCH   3  11
ATOM     10  O   UNL     1     -15.405  42.021 -11.266  0.00  0.00    +0.000 OA
ATOM     11  C   UNL     1     -16.535  41.898 -11.783  0.00  0.00    +0.000 C 
BRANCH  11  13
ATOM     12  S   UNL     1     -18.503  44.486 -13.505  0.00  0.00    +0.000 S 
ATOM     13  N   UNL     1     -16.829  42.322 -13.082  0.00  0.00    +0.000 NA
ATOM     14  C   UNL     1     -17.541  43.242 -13.244  0.00  0.00    +0.000 C 
ENDBRANCH  11  13
ENDBRANCH   3  11
TORSDOF 2
ENDMDL
MODEL 5
REMARK VINA RESULT:    -4.865      4.534      5.858
REMARK INTER + INTRA:          -5.590
REMARK INTER:                  -5.435
REMARK INTRA:                  -0.155
REMARK UNBOUND:                -0.156
REMARK  Name = 153625950
REMARK  2 active torsions:
REMARK  status: ('A' for Active; 'I' for Inactive)
REMARK    1  A    between atoms: N_5  and  C_11
REMARK    2  A    between atoms: C_6  and  C_11
REMARK                            x       y       z     vdW  Elec       q    Type
REMARK                         _______ _______ _______ _____ _____    ______ ____
ROOT
ATOM      1  N   UNL     1     -17.362  42.371 -10.711  0.00  0.00    +0.000 NA
ATOM      2  N   UNL     1     -17.755  40.574  -9.198  0.00  0.00    +0.000 N 
ATOM      3  C   UNL     1     -18.696  42.549 -12.720  0.00  0.00    +0.000 A 
ATOM      4  C   UNL     1     -19.398  41.403 -12.362  0.00  0.00    +0.000 A 
ATOM      5  C   UNL     1     -19.083  40.740 -11.181  0.00  0.00    +0.000 A 
ATOM      6  C   UNL     1     -18.065  41.260 -10.398  0.00  0.00    +0.000 A 
ATOM      7  C   UNL     1     -17.696  42.988 -11.867  0.00  0.00    +0.000 A 
ATOM      8  H   UNL     1     -18.487  40.046  -8.741  0.00  0.00    +0.000 HD
ATOM      9  H   UNL     1     -17.014  40.961  -8.626  0.00  0.00    +0.000 HD
ENDROOT
BRANCH   3  11
ATOM     10  O   UNL     1     -18.498  44.384 -14.165  0.00  0.00    +0.000 OA
ATOM     11  C   UNL     1     -19.005  43.264 -13.945  0.00  0.00    +0.000 C 
BRANCH  11  13
ATOM     12  S   UNL     1     -19.961  43.400 -17.496  0.00  0.00    +0.000 S 
ATOM     13  N   UNL     1     -19.880  42.636 -14.836  0.00  0.00    +0.000 NA
ATOM     14  C   UNL     1     -19.902  42.972 -15.962  0.00  0.00    +0.000 C 
ENDBRANCH  11  13
ENDBRANCH   3  11
TORSDOF 2
ENDMDL
