MODEL 1
REMARK VINA RESULT:    -6.361      0.000      0.000
REMARK INTER + INTRA:          -6.361
REMARK INTER:                  -6.361
REMARK INTRA:                   0.000
REMARK UNBOUND:                 0.000
REMARK  Name = 154058653
REMARK  0 active torsions:
REMARK  status: ('A' for Active; 'I' for Inactive)
REMARK                            x       y       z     vdW  Elec       q    Type
REMARK                         _______ _______ _______ _____ _____    ______ ____
ROOT
ATOM      1  O   UNL     1     -23.730  40.636  -7.542  0.00  0.00    +0.000 OA
ATOM      2  N   UNL     1     -21.298  42.817  -6.393  0.00  0.00    +0.000 NA
ATOM      3  N   UNL     1     -19.268  42.111  -7.504  0.00  0.00    +0.000 NA
ATOM      4  C   UNL     1     -21.364  40.996  -7.868  0.00  0.00    +0.000 A 
ATOM      5  C   UNL     1     -20.582  41.974  -7.272  0.00  0.00    +0.000 A 
ATOM      6  C   UNL     1     -22.695  41.217  -7.337  0.00  0.00    +0.000 C 
ATOM      7  C   UNL     1     -20.842  40.085  -8.751  0.00  0.00    +0.000 A 
ATOM      8  C   UNL     1     -22.522  42.397  -6.415  0.00  0.00    +0.000 C 
ATOM      9  C   UNL     1     -19.481  40.198  -9.016  0.00  0.00    +0.000 A 
ATOM     10  C   UNL     1     -18.750  41.209  -8.379  0.00  0.00    +0.000 A 
ENDROOT
TORSDOF 0
ENDMDL
MODEL 2
REMARK VINA RESULT:    -5.937      2.357      3.933
REMARK INTER + INTRA:          -5.937
REMARK INTER:                  -5.937
REMARK INTRA:                   0.000
REMARK UNBOUND:                 0.000
REMARK  Name = 154058653
REMARK  0 active torsions:
REMARK  status: ('A' for Active; 'I' for Inactive)
REMARK                            x       y       z     vdW  Elec       q    Type
REMARK                         _______ _______ _______ _____ _____    ______ ____
ROOT
ATOM      1  O   UNL     1     -18.140  42.080  -8.338  0.00  0.00    +0.000 OA
ATOM      2  N   UNL     1     -20.588  39.799  -9.226  0.00  0.00    +0.000 NA
ATOM      3  N   UNL     1     -22.522  40.436  -7.920  0.00  0.00    +0.000 NA
ATOM      4  C   UNL     1     -20.445  41.634  -7.774  0.00  0.00    +0.000 A 
ATOM      5  C   UNL     1     -21.245  40.622  -8.284  0.00  0.00    +0.000 A 
ATOM      6  C   UNL     1     -19.167  41.459  -8.435  0.00  0.00    +0.000 C 
ATOM      7  C   UNL     1     -20.911  42.531  -6.847  0.00  0.00    +0.000 A 
ATOM      8  C   UNL     1     -19.385  40.265  -9.329  0.00  0.00    +0.000 C 
ATOM      9  C   UNL     1     -22.234  42.369  -6.447  0.00  0.00    +0.000 A 
ATOM     10  C   UNL     1     -22.984  41.325  -7.002  0.00  0.00    +0.000 A 
ENDROOT
TORSDOF 0
ENDMDL
MODEL 3
REMARK VINA RESULT:    -5.854      2.701      4.296
REMARK INTER + INTRA:          -5.854
REMARK INTER:                  -5.854
REMARK INTRA:                   0.000
REMARK UNBOUND:                 0.000
REMARK  Name = 154058653
REMARK  0 active torsions:
REMARK  status: ('A' for Active; 'I' for Inactive)
REMARK                            x       y       z     vdW  Elec       q    Type
REMARK                         _______ _______ _______ _____ _____    ______ ____
ROOT
ATOM      1  O   UNL     1     -19.489  38.577 -11.631  0.00  0.00    +0.000 OA
ATOM      2  N   UNL     1     -17.321  41.033 -10.512  0.00  0.00    +0.000 NA
ATOM      3  N   UNL     1     -18.393  41.948  -8.546  0.00  0.00    +0.000 NA
ATOM      4  C   UNL     1     -19.390  40.175  -9.823  0.00  0.00    +0.000 A 
ATOM      5  C   UNL     1     -18.377  41.089  -9.576  0.00  0.00    +0.000 A 
ATOM      6  C   UNL     1     -18.963  39.466 -11.012  0.00  0.00    +0.000 C 
ATOM      7  C   UNL     1     -20.499  40.083  -9.019  0.00  0.00    +0.000 A 
ATOM      8  C   UNL     1     -17.638  40.101 -11.352  0.00  0.00    +0.000 C 
ATOM      9  C   UNL     1     -20.549  40.960  -7.941  0.00  0.00    +0.000 A 
ATOM     10  C   UNL     1     -19.491  41.858  -7.750  0.00  0.00    +0.000 A 
ENDROOT
TORSDOF 0
ENDMDL
MODEL 4
REMARK VINA RESULT:    -5.443      3.426      4.965
REMARK INTER + INTRA:          -5.443
REMARK INTER:                  -5.443
REMARK INTRA:                   0.000
REMARK UNBOUND:                 0.000
REMARK  Name = 154058653
REMARK  0 active torsions:
REMARK  status: ('A' for Active; 'I' for Inactive)
REMARK                            x       y       z     vdW  Elec       q    Type
REMARK                         _______ _______ _______ _____ _____    ______ ____
ROOT
ATOM      1  O   UNL     1     -16.553  41.473 -11.210  0.00  0.00    +0.000 OA
ATOM      2  N   UNL     1     -19.185  39.232 -11.025  0.00  0.00    +0.000 NA
ATOM      3  N   UNL     1     -20.435  39.914  -9.068  0.00  0.00    +0.000 NA
ATOM      4  C   UNL     1     -18.453  41.073  -9.773  0.00  0.00    +0.000 A 
ATOM      5  C   UNL     1     -19.403  40.073  -9.911  0.00  0.00    +0.000 A 
ATOM      6  C   UNL     1     -17.544  40.870 -10.883  0.00  0.00    +0.000 C 
ATOM      7  C   UNL     1     -18.501  41.986  -8.749  0.00  0.00    +0.000 A 
ATOM      8  C   UNL     1     -18.115  39.675 -11.601  0.00  0.00    +0.000 C 
ATOM      9  C   UNL     1     -19.558  41.851  -7.856  0.00  0.00    +0.000 A 
ATOM     10  C   UNL     1     -20.483  40.817  -8.054  0.00  0.00    +0.000 A 
ENDROOT
TORSDOF 0
ENDMDL
MODEL 5
REMARK VINA RESULT:    -5.363      2.882      3.814
REMARK INTER + INTRA:          -5.363
REMARK INTER:                  -5.363
REMARK INTRA:                   0.000
REMARK UNBOUND:                 0.000
REMARK  Name = 154058653
REMARK  0 active torsions:
REMARK  status: ('A' for Active; 'I' for Inactive)
REMARK                            x       y       z     vdW  Elec       q    Type
REMARK                         _______ _______ _______ _____ _____    ______ ____
ROOT
ATOM      1  O   UNL     1     -18.984  42.529  -7.551  0.00  0.00    +0.000 OA
ATOM      2  N   UNL     1     -20.567  39.828  -9.029  0.00  0.00    +0.000 NA
ATOM      3  N   UNL     1     -19.218  39.314 -10.970  0.00  0.00    +0.000 NA
ATOM      4  C   UNL     1     -18.661  41.115  -9.482  0.00  0.00    +0.000 A 
ATOM      5  C   UNL     1     -19.463  40.056  -9.880  0.00  0.00    +0.000 A 
ATOM      6  C   UNL     1     -19.290  41.619  -8.277  0.00  0.00    +0.000 C 
ATOM      7  C   UNL     1     -17.543  41.485 -10.185  0.00  0.00    +0.000 A 
ATOM      8  C   UNL     1     -20.488  40.720  -8.095  0.00  0.00    +0.000 C 
ATOM      9  C   UNL     1     -17.258  40.737 -11.323  0.00  0.00    +0.000 A 
ATOM     10  C   UNL     1     -18.110  39.680 -11.667  0.00  0.00    +0.000 A 
ENDROOT
TORSDOF 0
ENDMDL
