MODEL 1
REMARK VINA RESULT:    -6.926      0.000      0.000
REMARK INTER + INTRA:          -7.462
REMARK INTER:                  -7.330
REMARK INTRA:                  -0.131
REMARK UNBOUND:                -0.131
REMARK  Name = 154191519
REMARK  3 active torsions:
REMARK  status: ('A' for Active; 'I' for Inactive)
REMARK    1  A    between atoms: N_2  and  C_6
REMARK    2  A    between atoms: C_6  and  C_8
REMARK    3  A    between atoms: C_6  and  C_9
REMARK                            x       y       z     vdW  Elec       q    Type
REMARK                         _______ _______ _______ _____ _____    ______ ____
ROOT
ATOM      1  O   UNL     1     -19.225  38.860 -11.341  0.00  0.00    +0.000 OA
ATOM      2  N   UNL     1     -15.968  42.109 -12.005  0.00  0.00    +0.000 N 
ATOM      3  N   UNL     1     -17.618  40.495 -11.634  0.00  0.00    +0.000 N 
ATOM      4  N   UNL     1     -17.338  42.267 -10.109  0.00  0.00    +0.000 NA
ATOM      5  N   UNL     1     -18.705  42.416  -8.227  0.00  0.00    +0.000 NA
ATOM      6  C   UNL     1     -16.983  41.655 -11.204  0.00  0.00    +0.000 A 
ATOM      7  C   UNL     1     -19.067  40.571  -9.727  0.00  0.00    +0.000 A 
ATOM      8  C   UNL     1     -18.392  41.729  -9.351  0.00  0.00    +0.000 A 
ATOM      9  C   UNL     1     -18.665  39.882 -10.965  0.00  0.00    +0.000 A 
ATOM     10  C   UNL     1     -20.102  40.093  -8.928  0.00  0.00    +0.000 A 
ATOM     11  C   UNL     1     -20.436  40.786  -7.771  0.00  0.00    +0.000 A 
ATOM     12  C   UNL     1     -19.716  41.930  -7.469  0.00  0.00    +0.000 A 
ATOM     13  H   UNL     1     -15.700  41.567 -12.820  0.00  0.00    +0.000 HD
ATOM     14  H   UNL     1     -17.294  40.067 -12.497  0.00  0.00    +0.000 HD
ENDROOT
BRANCH   2  15
ATOM     15  C   UNL     1     -15.218  43.287 -11.693  0.00  0.00    +0.000 C 
ATOM     16  C   UNL     1     -13.825  42.894 -11.220  0.00  0.00    +0.000 C 
ATOM     17  C   UNL     1     -15.153  44.181 -12.925  0.00  0.00    +0.000 C 
ENDBRANCH   2  15
TORSDOF 1
ENDMDL
MODEL 2
REMARK VINA RESULT:    -6.592      4.300      5.338
REMARK INTER + INTRA:          -7.108
REMARK INTER:                  -6.976
REMARK INTRA:                  -0.133
REMARK UNBOUND:                -0.131
REMARK  Name = 154191519
REMARK  3 active torsions:
REMARK  status: ('A' for Active; 'I' for Inactive)
REMARK    1  A    between atoms: N_2  and  C_6
REMARK    2  A    between atoms: C_6  and  C_8
REMARK    3  A    between atoms: C_6  and  C_9
REMARK                            x       y       z     vdW  Elec       q    Type
REMARK                         _______ _______ _______ _____ _____    ______ ____
ROOT
ATOM      1  O   UNL     1     -17.487  44.301 -11.476  0.00  0.00    +0.000 OA
ATOM      2  N   UNL     1     -20.073  43.851 -15.312  0.00  0.00    +0.000 N 
ATOM      3  N   UNL     1     -18.779  44.035 -13.374  0.00  0.00    +0.000 N 
ATOM      4  N   UNL     1     -19.730  41.964 -13.964  0.00  0.00    +0.000 NA
ATOM      5  N   UNL     1     -19.385  40.093 -12.617  0.00  0.00    +0.000 NA
ATOM      6  C   UNL     1     -19.541  43.230 -14.213  0.00  0.00    +0.000 A 
ATOM      7  C   UNL     1     -18.372  42.164 -11.933  0.00  0.00    +0.000 A 
ATOM      8  C   UNL     1     -19.144  41.411 -12.812  0.00  0.00    +0.000 A 
ATOM      9  C   UNL     1     -18.159  43.593 -12.217  0.00  0.00    +0.000 A 
ATOM     10  C   UNL     1     -17.822  41.551 -10.810  0.00  0.00    +0.000 A 
ATOM     11  C   UNL     1     -18.058  40.200 -10.595  0.00  0.00    +0.000 A 
ATOM     12  C   UNL     1     -18.837  39.522 -11.519  0.00  0.00    +0.000 A 
ATOM     13  H   UNL     1     -19.934  44.849 -15.432  0.00  0.00    +0.000 HD
ATOM     14  H   UNL     1     -18.669  45.013 -13.625  0.00  0.00    +0.000 HD
ENDROOT
BRANCH   2  15
ATOM     15  C   UNL     1     -20.882  43.157 -16.266  0.00  0.00    +0.000 C 
ATOM     16  C   UNL     1     -22.210  43.882 -16.431  0.00  0.00    +0.000 C 
ATOM     17  C   UNL     1     -20.131  43.064 -17.588  0.00  0.00    +0.000 C 
ENDBRANCH   2  15
TORSDOF 1
ENDMDL
MODEL 3
REMARK VINA RESULT:    -5.554      3.281      4.123
REMARK INTER + INTRA:          -6.010
REMARK INTER:                  -5.890
REMARK INTRA:                  -0.120
REMARK UNBOUND:                -0.131
REMARK  Name = 154191519
REMARK  3 active torsions:
REMARK  status: ('A' for Active; 'I' for Inactive)
REMARK    1  A    between atoms: N_2  and  C_6
REMARK    2  A    between atoms: C_6  and  C_8
REMARK    3  A    between atoms: C_6  and  C_9
REMARK                            x       y       z     vdW  Elec       q    Type
REMARK                         _______ _______ _______ _____ _____    ______ ____
ROOT
ATOM      1  O   UNL     1     -20.073  42.321 -14.623  0.00  0.00    +0.000 OA
ATOM      2  N   UNL     1     -18.400  46.051 -12.411  0.00  0.00    +0.000 N 
ATOM      3  N   UNL     1     -19.221  44.150 -13.494  0.00  0.00    +0.000 N 
ATOM      4  N   UNL     1     -17.873  43.924 -11.578  0.00  0.00    +0.000 NA
ATOM      5  N   UNL     1     -17.354  41.805 -10.756  0.00  0.00    +0.000 NA
ATOM      6  C   UNL     1     -18.469  44.683 -12.454  0.00  0.00    +0.000 A 
ATOM      7  C   UNL     1     -18.738  41.934 -12.719  0.00  0.00    +0.000 A 
ATOM      8  C   UNL     1     -18.001  42.530 -11.699  0.00  0.00    +0.000 A 
ATOM      9  C   UNL     1     -19.411  42.794 -13.707  0.00  0.00    +0.000 A 
ATOM     10  C   UNL     1     -18.821  40.545 -12.780  0.00  0.00    +0.000 A 
ATOM     11  C   UNL     1     -18.164  39.787 -11.820  0.00  0.00    +0.000 A 
ATOM     12  C   UNL     1     -17.452  40.458 -10.839  0.00  0.00    +0.000 A 
ATOM     13  H   UNL     1     -18.843  46.593 -13.146  0.00  0.00    +0.000 HD
ATOM     14  H   UNL     1     -19.661  44.795 -14.143  0.00  0.00    +0.000 HD
ENDROOT
BRANCH   2  15
ATOM     15  C   UNL     1     -17.662  46.747 -11.402  0.00  0.00    +0.000 C 
ATOM     16  C   UNL     1     -16.307  47.163 -11.959  0.00  0.00    +0.000 C 
ATOM     17  C   UNL     1     -18.465  47.955 -10.937  0.00  0.00    +0.000 C 
ENDBRANCH   2  15
TORSDOF 1
ENDMDL
MODEL 4
REMARK VINA RESULT:    -5.507      5.323      7.226
REMARK INTER + INTRA:          -5.961
REMARK INTER:                  -5.829
REMARK INTRA:                  -0.131
REMARK UNBOUND:                -0.131
REMARK  Name = 154191519
REMARK  3 active torsions:
REMARK  status: ('A' for Active; 'I' for Inactive)
REMARK    1  A    between atoms: N_2  and  C_6
REMARK    2  A    between atoms: C_6  and  C_8
REMARK    3  A    between atoms: C_6  and  C_9
REMARK                            x       y       z     vdW  Elec       q    Type
REMARK                         _______ _______ _______ _____ _____    ______ ____
ROOT
ATOM      1  O   UNL     1     -18.539  46.283 -15.167  0.00  0.00    +0.000 OA
ATOM      2  N   UNL     1     -18.440  42.228 -12.898  0.00  0.00    +0.000 N 
ATOM      3  N   UNL     1     -18.512  44.248 -14.071  0.00  0.00    +0.000 N 
ATOM      4  N   UNL     1     -19.552  42.332 -14.959  0.00  0.00    +0.000 NA
ATOM      5  N   UNL     1     -20.655  42.444 -17.009  0.00  0.00    +0.000 NA
ATOM      6  C   UNL     1     -18.863  42.904 -14.012  0.00  0.00    +0.000 A 
ATOM      7  C   UNL     1     -19.625  44.454 -16.184  0.00  0.00    +0.000 A 
ATOM      8  C   UNL     1     -19.945  43.105 -16.065  0.00  0.00    +0.000 A 
ATOM      9  C   UNL     1     -18.847  45.099 -15.113  0.00  0.00    +0.000 A 
ATOM     10  C   UNL     1     -20.045  45.160 -17.308  0.00  0.00    +0.000 A 
ATOM     11  C   UNL     1     -20.776  44.497 -18.286  0.00  0.00    +0.000 A 
ATOM     12  C   UNL     1     -21.053  43.154 -18.091  0.00  0.00    +0.000 A 
ATOM     13  H   UNL     1     -17.865  42.710 -12.214  0.00  0.00    +0.000 HD
ATOM     14  H   UNL     1     -17.975  44.635 -13.300  0.00  0.00    +0.000 HD
ENDROOT
BRANCH   2  15
ATOM     15  C   UNL     1     -18.719  40.840 -12.695  0.00  0.00    +0.000 C 
ATOM     16  C   UNL     1     -17.444  40.030 -12.890  0.00  0.00    +0.000 C 
ATOM     17  C   UNL     1     -19.293  40.643 -11.297  0.00  0.00    +0.000 C 
ENDBRANCH   2  15
TORSDOF 1
ENDMDL
MODEL 5
REMARK VINA RESULT:    -4.970     14.514     16.995
REMARK INTER + INTRA:          -5.392
REMARK INTER:                  -5.261
REMARK INTRA:                  -0.130
REMARK UNBOUND:                -0.131
REMARK  Name = 154191519
REMARK  3 active torsions:
REMARK  status: ('A' for Active; 'I' for Inactive)
REMARK    1  A    between atoms: N_2  and  C_6
REMARK    2  A    between atoms: C_6  and  C_8
REMARK    3  A    between atoms: C_6  and  C_9
REMARK                            x       y       z     vdW  Elec       q    Type
REMARK                         _______ _______ _______ _____ _____    ______ ____
ROOT
ATOM      1  O   UNL     1     -22.341  30.519   4.123  0.00  0.00    +0.000 OA
ATOM      2  N   UNL     1     -25.272  34.110   3.782  0.00  0.00    +0.000 N 
ATOM      3  N   UNL     1     -23.777  32.319   3.919  0.00  0.00    +0.000 N 
ATOM      4  N   UNL     1     -23.521  33.942   2.233  0.00  0.00    +0.000 NA
ATOM      5  N   UNL     1     -21.776  33.768   0.697  0.00  0.00    +0.000 NA
ATOM      6  C   UNL     1     -24.168  33.483   3.267  0.00  0.00    +0.000 A 
ATOM      7  C   UNL     1     -21.955  32.062   2.382  0.00  0.00    +0.000 A 
ATOM      8  C   UNL     1     -22.398  33.233   1.774  0.00  0.00    +0.000 A 
ATOM      9  C   UNL     1     -22.688  31.545   3.550  0.00  0.00    +0.000 A 
ATOM     10  C   UNL     1     -20.835  31.409   1.874  0.00  0.00    +0.000 A 
ATOM     11  C   UNL     1     -20.185  31.944   0.770  0.00  0.00    +0.000 A 
ATOM     12  C   UNL     1     -20.689  33.114   0.224  0.00  0.00    +0.000 A 
ATOM     13  H   UNL     1     -25.767  33.683   4.558  0.00  0.00    +0.000 HD
ATOM     14  H   UNL     1     -24.323  32.014   4.718  0.00  0.00    +0.000 HD
ENDROOT
BRANCH   2  15
ATOM     15  C   UNL     1     -25.799  35.315   3.219  0.00  0.00    +0.000 C 
ATOM     16  C   UNL     1     -27.305  35.177   3.038  0.00  0.00    +0.000 C 
ATOM     17  C   UNL     1     -25.455  36.487   4.129  0.00  0.00    +0.000 C 
ENDBRANCH   2  15
TORSDOF 1
ENDMDL
