MODEL 1
REMARK VINA RESULT:    -6.741      0.000      0.000
REMARK INTER + INTRA:          -6.741
REMARK INTER:                  -6.741
REMARK INTRA:                   0.000
REMARK UNBOUND:                 0.000
REMARK  Name = 154230846
REMARK  1 active torsions:
REMARK  status: ('A' for Active; 'I' for Inactive)
REMARK    1  A    between atoms: N_4  and  C_13
REMARK                            x       y       z     vdW  Elec       q    Type
REMARK                         _______ _______ _______ _____ _____    ______ ____
ROOT
ATOM      1  O   UNL     1     -19.279  38.773 -11.464  0.00  0.00    +0.000 OA
ATOM      2  N   UNL     1     -17.801  40.445 -12.066  0.00  0.00    +0.000 N 
ATOM      3  N   UNL     1     -17.345  42.281 -10.663  0.00  0.00    +0.000 NA
ATOM      4  N   UNL     1     -16.292  42.095 -12.750  0.00  0.00    +0.000 N 
ATOM      5  N   UNL     1     -18.396  42.457  -8.590  0.00  0.00    +0.000 NA
ATOM      6  C   UNL     1     -18.926  40.546  -9.952  0.00  0.00    +0.000 A 
ATOM      7  C   UNL     1     -18.243  41.738  -9.727  0.00  0.00    +0.000 A 
ATOM      8  C   UNL     1     -17.149  41.641 -11.782  0.00  0.00    +0.000 A 
ATOM      9  C   UNL     1     -18.703  39.825 -11.216  0.00  0.00    +0.000 A 
ATOM     10  C   UNL     1     -19.801  40.066  -8.980  0.00  0.00    +0.000 A 
ATOM     11  C   UNL     1     -19.969  40.792  -7.807  0.00  0.00    +0.000 A 
ATOM     12  C   UNL     1     -19.252  41.968  -7.662  0.00  0.00    +0.000 A 
ATOM     13  C   UNL     1     -15.547  43.307 -12.602  0.00  0.00    +0.000 C 
ATOM     14  H   UNL     1     -17.604  39.996 -12.955  0.00  0.00    +0.000 HD
ATOM     15  H   UNL     1     -16.171  41.564 -13.606  0.00  0.00    +0.000 HD
ENDROOT
TORSDOF 0
ENDMDL
MODEL 2
REMARK VINA RESULT:    -6.098      1.462      4.133
REMARK INTER + INTRA:          -6.098
REMARK INTER:                  -6.098
REMARK INTRA:                   0.000
REMARK UNBOUND:                 0.000
REMARK  Name = 154230846
REMARK  1 active torsions:
REMARK  status: ('A' for Active; 'I' for Inactive)
REMARK    1  A    between atoms: N_4  and  C_13
REMARK                            x       y       z     vdW  Elec       q    Type
REMARK                         _______ _______ _______ _____ _____    ______ ____
ROOT
ATOM      1  O   UNL     1     -19.435  39.350 -12.751  0.00  0.00    +0.000 OA
ATOM      2  N   UNL     1     -19.793  39.943 -10.545  0.00  0.00    +0.000 N 
ATOM      3  N   UNL     1     -18.678  41.756  -9.537  0.00  0.00    +0.000 NA
ATOM      4  N   UNL     1     -20.211  40.477  -8.308  0.00  0.00    +0.000 N 
ATOM      5  N   UNL     1     -17.157  43.022 -10.768  0.00  0.00    +0.000 NA
ATOM      6  C   UNL     1     -18.245  41.190 -11.884  0.00  0.00    +0.000 A 
ATOM      7  C   UNL     1     -18.022  41.981 -10.760  0.00  0.00    +0.000 A 
ATOM      8  C   UNL     1     -19.527  40.768  -9.458  0.00  0.00    +0.000 A 
ATOM      9  C   UNL     1     -19.203  40.076 -11.792  0.00  0.00    +0.000 A 
ATOM     10  C   UNL     1     -17.560  41.471 -13.064  0.00  0.00    +0.000 A 
ATOM     11  C   UNL     1     -16.669  42.536 -13.088  0.00  0.00    +0.000 A 
ATOM     12  C   UNL     1     -16.504  43.273 -11.927  0.00  0.00    +0.000 A 
ATOM     13  C   UNL     1     -20.047  41.238  -7.107  0.00  0.00    +0.000 C 
ATOM     14  H   UNL     1     -20.464  39.191 -10.418  0.00  0.00    +0.000 HD
ATOM     15  H   UNL     1     -20.861  39.698  -8.292  0.00  0.00    +0.000 HD
ENDROOT
TORSDOF 0
ENDMDL
MODEL 3
REMARK VINA RESULT:    -6.079      3.155      4.143
REMARK INTER + INTRA:          -6.079
REMARK INTER:                  -6.079
REMARK INTRA:                   0.000
REMARK UNBOUND:                 0.000
REMARK  Name = 154230846
REMARK  1 active torsions:
REMARK  status: ('A' for Active; 'I' for Inactive)
REMARK    1  A    between atoms: N_4  and  C_13
REMARK                            x       y       z     vdW  Elec       q    Type
REMARK                         _______ _______ _______ _____ _____    ______ ____
ROOT
ATOM      1  O   UNL     1     -17.412  44.137 -11.285  0.00  0.00    +0.000 OA
ATOM      2  N   UNL     1     -18.358  43.912 -13.382  0.00  0.00    +0.000 N 
ATOM      3  N   UNL     1     -19.339  41.896 -14.106  0.00  0.00    +0.000 NA
ATOM      4  N   UNL     1     -19.292  43.766 -15.520  0.00  0.00    +0.000 N 
ATOM      5  N   UNL     1     -19.380  40.044 -12.692  0.00  0.00    +0.000 NA
ATOM      6  C   UNL     1     -18.357  42.057 -11.864  0.00  0.00    +0.000 A 
ATOM      7  C   UNL     1     -19.012  41.336 -12.858  0.00  0.00    +0.000 A 
ATOM      8  C   UNL     1     -19.013  43.139 -14.335  0.00  0.00    +0.000 A 
ATOM      9  C   UNL     1     -17.990  43.459 -12.125  0.00  0.00    +0.000 A 
ATOM     10  C   UNL     1     -18.065  41.438 -10.651  0.00  0.00    +0.000 A 
ATOM     11  C   UNL     1     -18.436  40.113 -10.464  0.00  0.00    +0.000 A 
ATOM     12  C   UNL     1     -19.084  39.467 -11.504  0.00  0.00    +0.000 A 
ATOM     13  C   UNL     1     -19.965  43.103 -16.595  0.00  0.00    +0.000 C 
ATOM     14  H   UNL     1     -18.132  44.873 -13.623  0.00  0.00    +0.000 HD
ATOM     15  H   UNL     1     -19.020  44.734 -15.654  0.00  0.00    +0.000 HD
ENDROOT
TORSDOF 0
ENDMDL
MODEL 4
REMARK VINA RESULT:    -5.450      2.644      3.528
REMARK INTER + INTRA:          -5.450
REMARK INTER:                  -5.450
REMARK INTRA:                   0.000
REMARK UNBOUND:                 0.000
REMARK  Name = 154230846
REMARK  1 active torsions:
REMARK  status: ('A' for Active; 'I' for Inactive)
REMARK    1  A    between atoms: N_4  and  C_13
REMARK                            x       y       z     vdW  Elec       q    Type
REMARK                         _______ _______ _______ _____ _____    ______ ____
ROOT
ATOM      1  O   UNL     1     -18.311  39.305 -11.182  0.00  0.00    +0.000 OA
ATOM      2  N   UNL     1     -16.248  40.337 -11.027  0.00  0.00    +0.000 N 
ATOM      3  N   UNL     1     -15.812  42.427 -12.022  0.00  0.00    +0.000 NA
ATOM      4  N   UNL     1     -14.132  41.312 -10.825  0.00  0.00    +0.000 N 
ATOM      5  N   UNL     1     -17.489  43.527 -13.210  0.00  0.00    +0.000 NA
ATOM      6  C   UNL     1     -18.028  41.398 -12.230  0.00  0.00    +0.000 A 
ATOM      7  C   UNL     1     -17.138  42.436 -12.489  0.00  0.00    +0.000 A 
ATOM      8  C   UNL     1     -15.406  41.405 -11.320  0.00  0.00    +0.000 A 
ATOM      9  C   UNL     1     -17.568  40.246 -11.438  0.00  0.00    +0.000 A 
ATOM     10  C   UNL     1     -19.329  41.473 -12.724  0.00  0.00    +0.000 A 
ATOM     11  C   UNL     1     -19.705  42.586 -13.465  0.00  0.00    +0.000 A 
ATOM     12  C   UNL     1     -18.758  43.575 -13.678  0.00  0.00    +0.000 A 
ATOM     13  C   UNL     1     -13.153  42.333 -11.039  0.00  0.00    +0.000 C 
ATOM     14  H   UNL     1     -15.870  39.572 -10.476  0.00  0.00    +0.000 HD
ATOM     15  H   UNL     1     -13.860  40.498 -10.284  0.00  0.00    +0.000 HD
ENDROOT
TORSDOF 0
ENDMDL
MODEL 5
REMARK VINA RESULT:    -5.381      3.171      4.928
REMARK INTER + INTRA:          -5.381
REMARK INTER:                  -5.381
REMARK INTRA:                   0.000
REMARK UNBOUND:                 0.000
REMARK  Name = 154230846
REMARK  1 active torsions:
REMARK  status: ('A' for Active; 'I' for Inactive)
REMARK    1  A    between atoms: N_4  and  C_13
REMARK                            x       y       z     vdW  Elec       q    Type
REMARK                         _______ _______ _______ _____ _____    ______ ____
ROOT
ATOM      1  O   UNL     1     -19.825  43.617 -15.528  0.00  0.00    +0.000 OA
ATOM      2  N   UNL     1     -19.692  41.897 -13.989  0.00  0.00    +0.000 N 
ATOM      3  N   UNL     1     -18.587  42.145 -11.924  0.00  0.00    +0.000 NA
ATOM      4  N   UNL     1     -19.601  40.107 -12.488  0.00  0.00    +0.000 N 
ATOM      5  N   UNL     1     -17.581  44.174 -11.373  0.00  0.00    +0.000 NA
ATOM      6  C   UNL     1     -18.686  44.018 -13.504  0.00  0.00    +0.000 A 
ATOM      7  C   UNL     1     -18.287  43.469 -12.289  0.00  0.00    +0.000 A 
ATOM      8  C   UNL     1     -19.264  41.407 -12.760  0.00  0.00    +0.000 A 
ATOM      9  C   UNL     1     -19.450  43.183 -14.445  0.00  0.00    +0.000 A 
ATOM     10  C   UNL     1     -18.354  45.338 -13.800  0.00  0.00    +0.000 A 
ATOM     11  C   UNL     1     -17.631  46.075 -12.870  0.00  0.00    +0.000 A 
ATOM     12  C   UNL     1     -17.273  45.454 -11.685  0.00  0.00    +0.000 A 
ATOM     13  C   UNL     1     -19.236  39.464 -11.264  0.00  0.00    +0.000 C 
ATOM     14  H   UNL     1     -20.215  41.272 -14.595  0.00  0.00    +0.000 HD
ATOM     15  H   UNL     1     -20.129  39.571 -13.169  0.00  0.00    +0.000 HD
ENDROOT
TORSDOF 0
ENDMDL
