MODEL 1
REMARK VINA RESULT:    -5.892      0.000      0.000
REMARK INTER + INTRA:          -6.722
REMARK INTER:                  -6.581
REMARK INTRA:                  -0.141
REMARK UNBOUND:                -0.141
REMARK  Name = 154410587
REMARK  2 active torsions:
REMARK  status: ('A' for Active; 'I' for Inactive)
REMARK    1  A    between atoms: N_3  and  C_9
REMARK    2  A    between atoms: C_5  and  C_9
REMARK                            x       y       z     vdW  Elec       q    Type
REMARK                         _______ _______ _______ _____ _____    ______ ____
ROOT
ATOM      1  N   UNL     1     -22.731  40.888  -7.645  0.00  0.00    +0.000 NA
ATOM      2  C   UNL     1     -20.353  41.002  -8.062  0.00  0.00    +0.000 A 
ATOM      3  C   UNL     1     -20.214  41.950  -7.054  0.00  0.00    +0.000 A 
ATOM      4  C   UNL     1     -21.622  40.506  -8.317  0.00  0.00    +0.000 A 
ATOM      5  C   UNL     1     -21.332  42.368  -6.342  0.00  0.00    +0.000 A 
ATOM      6  C   UNL     1     -22.557  41.812  -6.673  0.00  0.00    +0.000 A 
ENDROOT
BRANCH   2   8
ATOM      7  O   UNL     1     -18.048  40.848  -8.467  0.00  0.00    +0.000 OA
ATOM      8  C   UNL     1     -19.205  40.546  -8.826  0.00  0.00    +0.000 C 
BRANCH   8   9
ATOM      9  N   UNL     1     -19.470  39.769  -9.959  0.00  0.00    +0.000 NA
ATOM     10  N   UNL     1     -17.883  39.759 -11.796  0.00  0.00    +0.000 NA
ATOM     11  C   UNL     1     -18.700  39.768 -10.845  0.00  0.00    +0.000 C 
ENDBRANCH   8   9
ENDBRANCH   2   8
TORSDOF 2
ENDMDL
MODEL 2
REMARK VINA RESULT:    -5.700      2.092      2.884
REMARK INTER + INTRA:          -6.508
REMARK INTER:                  -6.371
REMARK INTRA:                  -0.138
REMARK UNBOUND:                -0.141
REMARK  Name = 154410587
REMARK  2 active torsions:
REMARK  status: ('A' for Active; 'I' for Inactive)
REMARK    1  A    between atoms: N_3  and  C_9
REMARK    2  A    between atoms: C_5  and  C_9
REMARK                            x       y       z     vdW  Elec       q    Type
REMARK                         _______ _______ _______ _____ _____    ______ ____
ROOT
ATOM      1  N   UNL     1     -18.837  42.290  -7.911  0.00  0.00    +0.000 NA
ATOM      2  C   UNL     1     -19.280  40.729  -9.702  0.00  0.00    +0.000 A 
ATOM      3  C   UNL     1     -20.478  40.363  -9.097  0.00  0.00    +0.000 A 
ATOM      4  C   UNL     1     -18.503  41.689  -9.074  0.00  0.00    +0.000 A 
ATOM      5  C   UNL     1     -20.856  40.958  -7.900  0.00  0.00    +0.000 A 
ATOM      6  C   UNL     1     -20.008  41.908  -7.352  0.00  0.00    +0.000 A 
ENDROOT
BRANCH   2   8
ATOM      7  O   UNL     1     -19.136  38.933 -11.204  0.00  0.00    +0.000 OA
ATOM      8  C   UNL     1     -18.856  40.124 -10.953  0.00  0.00    +0.000 C 
BRANCH   8   9
ATOM      9  N   UNL     1     -18.134  40.937 -11.833  0.00  0.00    +0.000 NA
ATOM     10  N   UNL     1     -19.229  41.819 -13.812  0.00  0.00    +0.000 NA
ATOM     11  C   UNL     1     -18.667  41.361 -12.788  0.00  0.00    +0.000 C 
ENDBRANCH   8   9
ENDBRANCH   2   8
TORSDOF 2
ENDMDL
MODEL 3
REMARK VINA RESULT:    -5.336      1.814      4.714
REMARK INTER + INTRA:          -6.101
REMARK INTER:                  -5.959
REMARK INTRA:                  -0.142
REMARK UNBOUND:                -0.141
REMARK  Name = 154410587
REMARK  2 active torsions:
REMARK  status: ('A' for Active; 'I' for Inactive)
REMARK    1  A    between atoms: N_3  and  C_9
REMARK    2  A    between atoms: C_5  and  C_9
REMARK                            x       y       z     vdW  Elec       q    Type
REMARK                         _______ _______ _______ _____ _____    ______ ____
ROOT
ATOM      1  N   UNL     1     -18.604  40.190 -11.574  0.00  0.00    +0.000 NA
ATOM      2  C   UNL     1     -19.577  40.909  -9.481  0.00  0.00    +0.000 A 
ATOM      3  C   UNL     1     -18.519  41.790  -9.283  0.00  0.00    +0.000 A 
ATOM      4  C   UNL     1     -19.572  40.137 -10.632  0.00  0.00    +0.000 A 
ATOM      5  C   UNL     1     -17.504  41.871 -10.228  0.00  0.00    +0.000 A 
ATOM      6  C   UNL     1     -17.591  41.057 -11.346  0.00  0.00    +0.000 A 
ENDROOT
BRANCH   2   8
ATOM      7  O   UNL     1     -21.466  39.853  -8.577  0.00  0.00    +0.000 OA
ATOM      8  C   UNL     1     -20.653  40.798  -8.512  0.00  0.00    +0.000 C 
BRANCH   8   9
ATOM      9  N   UNL     1     -20.718  41.790  -7.528  0.00  0.00    +0.000 NA
ATOM     10  N   UNL     1     -22.880  42.437  -6.629  0.00  0.00    +0.000 NA
ATOM     11  C   UNL     1     -21.765  42.100  -7.097  0.00  0.00    +0.000 C 
ENDBRANCH   8   9
ENDBRANCH   2   8
TORSDOF 2
ENDMDL
MODEL 4
REMARK VINA RESULT:    -5.188      2.007      5.212
REMARK INTER + INTRA:          -5.937
REMARK INTER:                  -5.799
REMARK INTRA:                  -0.138
REMARK UNBOUND:                -0.141
REMARK  Name = 154410587
REMARK  2 active torsions:
REMARK  status: ('A' for Active; 'I' for Inactive)
REMARK    1  A    between atoms: N_3  and  C_9
REMARK    2  A    between atoms: C_5  and  C_9
REMARK                            x       y       z     vdW  Elec       q    Type
REMARK                         _______ _______ _______ _____ _____    ______ ____
ROOT
ATOM      1  N   UNL     1     -16.587  40.428 -11.299  0.00  0.00    +0.000 NA
ATOM      2  C   UNL     1     -18.735  40.234 -10.209  0.00  0.00    +0.000 A 
ATOM      3  C   UNL     1     -19.306  39.787 -11.396  0.00  0.00    +0.000 A 
ATOM      4  C   UNL     1     -17.384  40.539 -10.213  0.00  0.00    +0.000 A 
ATOM      5  C   UNL     1     -18.518  39.661 -12.535  0.00  0.00    +0.000 A 
ATOM      6  C   UNL     1     -17.176  39.992 -12.435  0.00  0.00    +0.000 A 
ENDROOT
BRANCH   2   8
ATOM      7  O   UNL     1     -20.623  39.783  -8.892  0.00  0.00    +0.000 OA
ATOM      8  C   UNL     1     -19.531  40.379  -9.002  0.00  0.00    +0.000 C 
BRANCH   8   9
ATOM      9  N   UNL     1     -19.012  41.205  -8.000  0.00  0.00    +0.000 NA
ATOM     10  N   UNL     1     -20.496  42.079  -6.289  0.00  0.00    +0.000 NA
ATOM     11  C   UNL     1     -19.733  41.626  -7.175  0.00  0.00    +0.000 C 
ENDBRANCH   8   9
ENDBRANCH   2   8
TORSDOF 2
ENDMDL
MODEL 5
REMARK VINA RESULT:    -4.753      2.148      3.061
REMARK INTER + INTRA:          -5.450
REMARK INTER:                  -5.334
REMARK INTRA:                  -0.116
REMARK UNBOUND:                -0.141
REMARK  Name = 154410587
REMARK  2 active torsions:
REMARK  status: ('A' for Active; 'I' for Inactive)
REMARK    1  A    between atoms: N_3  and  C_9
REMARK    2  A    between atoms: C_5  and  C_9
REMARK                            x       y       z     vdW  Elec       q    Type
REMARK                         _______ _______ _______ _____ _____    ______ ____
ROOT
ATOM      1  N   UNL     1     -20.231  39.864  -9.030  0.00  0.00    +0.000 NA
ATOM      2  C   UNL     1     -18.547  41.157 -10.185  0.00  0.00    +0.000 A 
ATOM      3  C   UNL     1     -18.406  41.981  -9.074  0.00  0.00    +0.000 A 
ATOM      4  C   UNL     1     -19.466  40.122 -10.114  0.00  0.00    +0.000 A 
ATOM      5  C   UNL     1     -19.177  41.748  -7.941  0.00  0.00    +0.000 A 
ATOM      6  C   UNL     1     -20.068  40.687  -7.969  0.00  0.00    +0.000 A 
ENDROOT
BRANCH   2   8
ATOM      7  O   UNL     1     -16.696  42.030 -11.332  0.00  0.00    +0.000 OA
ATOM      8  C   UNL     1     -17.758  41.374 -11.386  0.00  0.00    +0.000 C 
BRANCH   8   9
ATOM      9  N   UNL     1     -18.250  40.820 -12.572  0.00  0.00    +0.000 NA
ATOM     10  N   UNL     1     -19.202  42.278 -14.264  0.00  0.00    +0.000 NA
ATOM     11  C   UNL     1     -18.710  41.529 -13.387  0.00  0.00    +0.000 C 
ENDBRANCH   8   9
ENDBRANCH   2   8
TORSDOF 2
ENDMDL
