MODEL 1
REMARK VINA RESULT:    -4.804      0.000      0.000
REMARK INTER + INTRA:          -5.729
REMARK INTER:                  -5.365
REMARK INTRA:                  -0.363
REMARK UNBOUND:                -0.363
REMARK  Name = 154984916
REMARK  4 active torsions:
REMARK  status: ('A' for Active; 'I' for Inactive)
REMARK    1  A    between atoms: N_2  and  C_12
REMARK    2  A    between atoms: N_4  and  C_7
REMARK    3  A    between atoms: C_5  and  C_9
REMARK    4  A    between atoms: C_6  and  C_10
REMARK                            x       y       z     vdW  Elec       q    Type
REMARK                         _______ _______ _______ _____ _____    ______ ____
ROOT
ATOM      1  N   UNL     1     -19.824  40.780 -12.908  0.00  0.00    +0.000 NA
ATOM      2  C   UNL     1     -17.843  42.029 -12.306  0.00  0.00    +0.000 A 
ATOM      3  C   UNL     1     -17.279  40.883 -11.756  0.00  0.00    +0.000 A 
ATOM      4  C   UNL     1     -19.106  41.925 -12.864  0.00  0.00    +0.000 A 
ATOM      5  C   UNL     1     -17.986  39.685 -11.780  0.00  0.00    +0.000 A 
ATOM      6  C   UNL     1     -15.921  40.909 -11.134  0.00  0.00    +0.000 C 
ATOM      7  C   UNL     1     -19.243  39.687 -12.363  0.00  0.00    +0.000 A 
ENDROOT
BRANCH   2  10
ATOM      8  O   UNL     1     -17.083  43.984 -11.259  0.00  0.00    +0.000 OA
ATOM      9  N   UNL     1     -16.487  43.673 -13.478  0.00  0.00    +0.000 N 
ATOM     10  C   UNL     1     -17.126  43.298 -12.293  0.00  0.00    +0.000 C 
ATOM     11  C   UNL     1     -15.717  44.889 -13.617  0.00  0.00    +0.000 C 
ATOM     12  H   UNL     1     -16.571  43.075 -14.294  0.00  0.00    +0.000 HD
ENDBRANCH   2  10
BRANCH   4  13
ATOM     13  N   UNL     1     -19.734  43.038 -13.436  0.00  0.00    +0.000 NA
ATOM     14  C   UNL     1     -19.877  43.009 -14.720  0.00  0.00    +0.000 C 
ENDBRANCH   4  13
TORSDOF 2
ENDMDL
MODEL 2
REMARK VINA RESULT:    -4.753      1.775      3.756
REMARK INTER + INTRA:          -5.673
REMARK INTER:                  -5.330
REMARK INTRA:                  -0.343
REMARK UNBOUND:                -0.363
REMARK  Name = 154984916
REMARK  4 active torsions:
REMARK  status: ('A' for Active; 'I' for Inactive)
REMARK    1  A    between atoms: N_2  and  C_12
REMARK    2  A    between atoms: N_4  and  C_7
REMARK    3  A    between atoms: C_5  and  C_9
REMARK    4  A    between atoms: C_6  and  C_10
REMARK                            x       y       z     vdW  Elec       q    Type
REMARK                         _______ _______ _______ _____ _____    ______ ____
ROOT
ATOM      1  N   UNL     1     -18.456  44.485 -14.248  0.00  0.00    +0.000 NA
ATOM      2  C   UNL     1     -17.707  42.476 -13.132  0.00  0.00    +0.000 A 
ATOM      3  C   UNL     1     -16.689  43.191 -12.511  0.00  0.00    +0.000 A 
ATOM      4  C   UNL     1     -18.556  43.164 -13.983  0.00  0.00    +0.000 A 
ATOM      5  C   UNL     1     -16.552  44.553 -12.758  0.00  0.00    +0.000 A 
ATOM      6  C   UNL     1     -15.730  42.526 -11.579  0.00  0.00    +0.000 C 
ATOM      7  C   UNL     1     -17.455  45.148 -13.626  0.00  0.00    +0.000 A 
ENDROOT
BRANCH   2  10
ATOM      8  O   UNL     1     -17.138  40.226 -13.466  0.00  0.00    +0.000 OA
ATOM      9  N   UNL     1     -18.865  40.671 -11.985  0.00  0.00    +0.000 N 
ATOM     10  C   UNL     1     -17.872  41.048 -12.893  0.00  0.00    +0.000 C 
ATOM     11  C   UNL     1     -19.136  39.297 -11.625  0.00  0.00    +0.000 C 
ATOM     12  H   UNL     1     -19.443  41.390 -11.559  0.00  0.00    +0.000 HD
ENDBRANCH   2  10
BRANCH   4  13
ATOM     13  N   UNL     1     -19.603  42.506 -14.641  0.00  0.00    +0.000 NA
ATOM     14  C   UNL     1     -20.002  43.043 -15.746  0.00  0.00    +0.000 C 
ENDBRANCH   4  13
TORSDOF 2
ENDMDL
MODEL 3
REMARK VINA RESULT:    -4.744      2.262      3.420
REMARK INTER + INTRA:          -5.662
REMARK INTER:                  -5.506
REMARK INTRA:                  -0.156
REMARK UNBOUND:                -0.363
REMARK  Name = 154984916
REMARK  4 active torsions:
REMARK  status: ('A' for Active; 'I' for Inactive)
REMARK    1  A    between atoms: N_2  and  C_12
REMARK    2  A    between atoms: N_4  and  C_7
REMARK    3  A    between atoms: C_5  and  C_9
REMARK    4  A    between atoms: C_6  and  C_10
REMARK                            x       y       z     vdW  Elec       q    Type
REMARK                         _______ _______ _______ _____ _____    ______ ____
ROOT
ATOM      1  N   UNL     1     -17.990  42.314  -9.203  0.00  0.00    +0.000 NA
ATOM      2  C   UNL     1     -18.404  41.505 -11.444  0.00  0.00    +0.000 A 
ATOM      3  C   UNL     1     -18.889  40.307 -10.930  0.00  0.00    +0.000 A 
ATOM      4  C   UNL     1     -17.971  42.466 -10.546  0.00  0.00    +0.000 A 
ATOM      5  C   UNL     1     -18.926  40.111  -9.553  0.00  0.00    +0.000 A 
ATOM      6  C   UNL     1     -19.376  39.218 -11.829  0.00  0.00    +0.000 C 
ATOM      7  C   UNL     1     -18.469  41.137  -8.741  0.00  0.00    +0.000 A 
ENDROOT
BRANCH   2  10
ATOM      8  O   UNL     1     -17.455  41.223 -13.569  0.00  0.00    +0.000 OA
ATOM      9  N   UNL     1     -19.362  42.533 -13.429  0.00  0.00    +0.000 N 
ATOM     10  C   UNL     1     -18.352  41.737 -12.882  0.00  0.00    +0.000 C 
ATOM     11  C   UNL     1     -19.463  42.836 -14.839  0.00  0.00    +0.000 C 
ATOM     12  H   UNL     1     -20.061  42.936 -12.811  0.00  0.00    +0.000 HD
ENDBRANCH   2  10
BRANCH   4  13
ATOM     13  N   UNL     1     -17.470  43.695 -10.994  0.00  0.00    +0.000 NA
ATOM     14  C   UNL     1     -16.221  43.710 -11.327  0.00  0.00    +0.000 C 
ENDBRANCH   4  13
TORSDOF 2
ENDMDL
MODEL 4
REMARK VINA RESULT:    -4.671      2.646      3.207
REMARK INTER + INTRA:          -5.581
REMARK INTER:                  -5.237
REMARK INTRA:                  -0.344
REMARK UNBOUND:                -0.363
REMARK  Name = 154984916
REMARK  4 active torsions:
REMARK  status: ('A' for Active; 'I' for Inactive)
REMARK    1  A    between atoms: N_2  and  C_12
REMARK    2  A    between atoms: N_4  and  C_7
REMARK    3  A    between atoms: C_5  and  C_9
REMARK    4  A    between atoms: C_6  and  C_10
REMARK                            x       y       z     vdW  Elec       q    Type
REMARK                         _______ _______ _______ _____ _____    ______ ____
ROOT
ATOM      1  N   UNL     1     -19.366  40.422  -9.371  0.00  0.00    +0.000 NA
ATOM      2  C   UNL     1     -17.951  41.718 -10.842  0.00  0.00    +0.000 A 
ATOM      3  C   UNL     1     -18.157  40.798 -11.863  0.00  0.00    +0.000 A 
ATOM      4  C   UNL     1     -18.573  41.486  -9.626  0.00  0.00    +0.000 A 
ATOM      5  C   UNL     1     -18.967  39.689 -11.640  0.00  0.00    +0.000 A 
ATOM      6  C   UNL     1     -17.524  40.973 -13.205  0.00  0.00    +0.000 C 
ATOM      7  C   UNL     1     -19.544  39.549 -10.388  0.00  0.00    +0.000 A 
ENDROOT
BRANCH   2  10
ATOM      8  O   UNL     1     -15.871  42.794 -10.961  0.00  0.00    +0.000 OA
ATOM      9  N   UNL     1     -17.754  44.086 -11.361  0.00  0.00    +0.000 N 
ATOM     10  C   UNL     1     -17.106  42.888 -11.047  0.00  0.00    +0.000 C 
ATOM     11  C   UNL     1     -17.056  45.326 -11.616  0.00  0.00    +0.000 C 
ATOM     12  H   UNL     1     -18.769  44.102 -11.403  0.00  0.00    +0.000 HD
ENDBRANCH   2  10
BRANCH   4  13
ATOM     13  N   UNL     1     -18.409  42.372  -8.554  0.00  0.00    +0.000 NA
ATOM     14  C   UNL     1     -19.242  42.236  -7.575  0.00  0.00    +0.000 C 
ENDBRANCH   4  13
TORSDOF 2
ENDMDL
MODEL 5
REMARK VINA RESULT:    -4.375      1.582      3.241
REMARK INTER + INTRA:          -5.250
REMARK INTER:                  -4.885
REMARK INTRA:                  -0.366
REMARK UNBOUND:                -0.363
REMARK  Name = 154984916
REMARK  4 active torsions:
REMARK  status: ('A' for Active; 'I' for Inactive)
REMARK    1  A    between atoms: N_2  and  C_12
REMARK    2  A    between atoms: N_4  and  C_7
REMARK    3  A    between atoms: C_5  and  C_9
REMARK    4  A    between atoms: C_6  and  C_10
REMARK                            x       y       z     vdW  Elec       q    Type
REMARK                         _______ _______ _______ _____ _____    ______ ____
ROOT
ATOM      1  N   UNL     1     -19.150  41.924 -14.199  0.00  0.00    +0.000 NA
ATOM      2  C   UNL     1     -17.675  42.957 -12.586  0.00  0.00    +0.000 A 
ATOM      3  C   UNL     1     -18.181  44.209 -12.913  0.00  0.00    +0.000 A 
ATOM      4  C   UNL     1     -18.188  41.856 -13.252  0.00  0.00    +0.000 A 
ATOM      5  C   UNL     1     -19.172  44.321 -13.883  0.00  0.00    +0.000 A 
ATOM      6  C   UNL     1     -17.682  45.447 -12.242  0.00  0.00    +0.000 C 
ATOM      7  C   UNL     1     -19.619  43.159 -14.490  0.00  0.00    +0.000 A 
ENDROOT
BRANCH   2  10
ATOM      8  O   UNL     1     -16.936  42.701 -10.375  0.00  0.00    +0.000 OA
ATOM      9  N   UNL     1     -15.314  42.775 -12.030  0.00  0.00    +0.000 N 
ATOM     10  C   UNL     1     -16.635  42.809 -11.575  0.00  0.00    +0.000 C 
ATOM     11  C   UNL     1     -14.174  42.611 -11.155  0.00  0.00    +0.000 C 
ATOM     12  H   UNL     1     -15.131  42.882 -13.023  0.00  0.00    +0.000 HD
ENDBRANCH   2  10
BRANCH   4  13
ATOM     13  N   UNL     1     -17.724  40.565 -12.972  0.00  0.00    +0.000 NA
ATOM     14  C   UNL     1     -18.597  39.742 -12.492  0.00  0.00    +0.000 C 
ENDBRANCH   4  13
TORSDOF 2
ENDMDL
