MODEL 1
REMARK VINA RESULT:    -5.278      0.000      0.000
REMARK INTER + INTRA:          -6.107
REMARK INTER:                  -5.895
REMARK INTRA:                  -0.213
REMARK UNBOUND:                -0.213
REMARK  Name = 155230717
REMARK  4 active torsions:
REMARK  status: ('A' for Active; 'I' for Inactive)
REMARK    1  A    between atoms: N_3  and  C_8
REMARK    2  A    between atoms: N_3  and  C_9
REMARK    3  A    between atoms: N_5  and  C_11
REMARK    4  A    between atoms: C_6  and  C_7
REMARK                            x       y       z     vdW  Elec       q    Type
REMARK                         _______ _______ _______ _____ _____    ______ ____
ROOT
ATOM      1  N   UNL     1     -18.040  40.607 -13.216  0.00  0.00    +0.000 NA
ATOM      2  C   UNL     1     -17.914  41.091 -10.851  0.00  0.00    +0.000 A 
ATOM      3  C   UNL     1     -16.829  40.230 -10.724  0.00  0.00    +0.000 A 
ATOM      4  C   UNL     1     -18.478  41.243 -12.107  0.00  0.00    +0.000 A 
ATOM      5  C   UNL     1     -16.350  39.556 -11.842  0.00  0.00    +0.000 A 
ATOM      6  C   UNL     1     -16.984  39.778 -13.055  0.00  0.00    +0.000 A 
ENDROOT
BRANCH   2   9
ATOM      7  O   UNL     1     -17.918  42.901  -9.434  0.00  0.00    +0.000 OA
ATOM      8  N   UNL     1     -19.419  41.190  -8.901  0.00  0.00    +0.000 N 
ATOM      9  C   UNL     1     -18.424  41.804  -9.668  0.00  0.00    +0.000 C 
ATOM     10  C   UNL     1     -19.928  41.869  -7.716  0.00  0.00    +0.000 C 
ATOM     11  C   UNL     1     -20.017  39.889  -9.191  0.00  0.00    +0.000 C 
ENDBRANCH   2   9
BRANCH   4  13
ATOM     12  S   UNL     1     -19.504  43.466 -14.714  0.00  0.00    +0.000 S 
ATOM     13  N   UNL     1     -19.572  42.095 -12.304  0.00  0.00    +0.000 NA
ATOM     14  C   UNL     1     -19.532  42.672 -13.331  0.00  0.00    +0.000 C 
ENDBRANCH   4  13
TORSDOF 2
ENDMDL
MODEL 2
REMARK VINA RESULT:    -4.978      2.922      4.128
REMARK INTER + INTRA:          -5.772
REMARK INTER:                  -5.678
REMARK INTRA:                  -0.095
REMARK UNBOUND:                -0.213
REMARK  Name = 155230717
REMARK  4 active torsions:
REMARK  status: ('A' for Active; 'I' for Inactive)
REMARK    1  A    between atoms: N_3  and  C_8
REMARK    2  A    between atoms: N_3  and  C_9
REMARK    3  A    between atoms: N_5  and  C_11
REMARK    4  A    between atoms: C_6  and  C_7
REMARK                            x       y       z     vdW  Elec       q    Type
REMARK                         _______ _______ _______ _____ _____    ______ ____
ROOT
ATOM      1  N   UNL     1     -18.967  40.003 -10.429  0.00  0.00    +0.000 NA
ATOM      2  C   UNL     1     -17.471  41.464 -11.643  0.00  0.00    +0.000 A 
ATOM      3  C   UNL     1     -17.718  40.756 -12.814  0.00  0.00    +0.000 A 
ATOM      4  C   UNL     1     -18.115  41.051 -10.488  0.00  0.00    +0.000 A 
ATOM      5  C   UNL     1     -18.587  39.671 -12.794  0.00  0.00    +0.000 A 
ATOM      6  C   UNL     1     -19.182  39.338 -11.587  0.00  0.00    +0.000 A 
ENDROOT
BRANCH   2   9
ATOM      7  O   UNL     1     -15.399  42.392 -11.289  0.00  0.00    +0.000 OA
ATOM      8  N   UNL     1     -17.046  43.852 -12.079  0.00  0.00    +0.000 N 
ATOM      9  C   UNL     1     -16.551  42.612 -11.662  0.00  0.00    +0.000 C 
ATOM     10  C   UNL     1     -16.158  45.008 -12.090  0.00  0.00    +0.000 C 
ATOM     11  C   UNL     1     -18.414  44.102 -12.524  0.00  0.00    +0.000 C 
ENDBRANCH   2   9
BRANCH   4  13
ATOM     12  S   UNL     1     -20.077  41.585  -7.545  0.00  0.00    +0.000 S 
ATOM     13  N   UNL     1     -17.913  41.720  -9.275  0.00  0.00    +0.000 NA
ATOM     14  C   UNL     1     -18.840  41.656  -8.548  0.00  0.00    +0.000 C 
ENDBRANCH   4  13
TORSDOF 2
ENDMDL
MODEL 3
REMARK VINA RESULT:    -4.754      1.811      1.929
REMARK INTER + INTRA:          -5.523
REMARK INTER:                  -6.375
REMARK INTRA:                   0.852
REMARK UNBOUND:                -0.213
REMARK  Name = 155230717
REMARK  4 active torsions:
REMARK  status: ('A' for Active; 'I' for Inactive)
REMARK    1  A    between atoms: N_3  and  C_8
REMARK    2  A    between atoms: N_3  and  C_9
REMARK    3  A    between atoms: N_5  and  C_11
REMARK    4  A    between atoms: C_6  and  C_7
REMARK                            x       y       z     vdW  Elec       q    Type
REMARK                         _______ _______ _______ _____ _____    ______ ____
ROOT
ATOM      1  N   UNL     1     -18.258  41.366 -12.743  0.00  0.00    +0.000 NA
ATOM      2  C   UNL     1     -18.692  41.170 -10.373  0.00  0.00    +0.000 A 
ATOM      3  C   UNL     1     -18.979  39.818 -10.530  0.00  0.00    +0.000 A 
ATOM      4  C   UNL     1     -18.340  41.893 -11.501  0.00  0.00    +0.000 A 
ATOM      5  C   UNL     1     -18.906  39.240 -11.792  0.00  0.00    +0.000 A 
ATOM      6  C   UNL     1     -18.544  40.050 -12.857  0.00  0.00    +0.000 A 
ENDROOT
BRANCH   2   9
ATOM      7  O   UNL     1     -17.843  42.534  -8.730  0.00  0.00    +0.000 OA
ATOM      8  N   UNL     1     -19.862  41.468  -8.224  0.00  0.00    +0.000 N 
ATOM      9  C   UNL     1     -18.769  41.785  -9.038  0.00  0.00    +0.000 C 
ATOM     10  C   UNL     1     -19.951  42.051  -6.892  0.00  0.00    +0.000 C 
ATOM     11  C   UNL     1     -20.959  40.582  -8.602  0.00  0.00    +0.000 C 
ENDBRANCH   2   9
BRANCH   4  13
ATOM     12  S   UNL     1     -15.744  43.989 -12.790  0.00  0.00    +0.000 S 
ATOM     13  N   UNL     1     -18.039  43.258 -11.414  0.00  0.00    +0.000 NA
ATOM     14  C   UNL     1     -17.061  43.556 -12.003  0.00  0.00    +0.000 C 
ENDBRANCH   4  13
TORSDOF 2
ENDMDL
MODEL 4
REMARK VINA RESULT:    -4.494      2.805      3.913
REMARK INTER + INTRA:          -5.232
REMARK INTER:                  -5.071
REMARK INTRA:                  -0.161
REMARK UNBOUND:                -0.213
REMARK  Name = 155230717
REMARK  4 active torsions:
REMARK  status: ('A' for Active; 'I' for Inactive)
REMARK    1  A    between atoms: N_3  and  C_8
REMARK    2  A    between atoms: N_3  and  C_9
REMARK    3  A    between atoms: N_5  and  C_11
REMARK    4  A    between atoms: C_6  and  C_7
REMARK                            x       y       z     vdW  Elec       q    Type
REMARK                         _______ _______ _______ _____ _____    ______ ____
ROOT
ATOM      1  N   UNL     1     -19.299  41.634 -13.459  0.00  0.00    +0.000 NA
ATOM      2  C   UNL     1     -18.074  43.222 -12.109  0.00  0.00    +0.000 A 
ATOM      3  C   UNL     1     -18.108  42.343 -11.031  0.00  0.00    +0.000 A 
ATOM      4  C   UNL     1     -18.678  42.823 -13.290  0.00  0.00    +0.000 A 
ATOM      5  C   UNL     1     -18.737  41.111 -11.166  0.00  0.00    +0.000 A 
ATOM      6  C   UNL     1     -19.312  40.806 -12.390  0.00  0.00    +0.000 A 
ENDROOT
BRANCH   2   9
ATOM      7  O   UNL     1     -18.119  45.464 -11.606  0.00  0.00    +0.000 OA
ATOM      8  N   UNL     1     -16.045  44.612 -12.267  0.00  0.00    +0.000 N 
ATOM      9  C   UNL     1     -17.409  44.527 -11.969  0.00  0.00    +0.000 C 
ATOM     10  C   UNL     1     -15.368  45.897 -12.152  0.00  0.00    +0.000 C 
ATOM     11  C   UNL     1     -15.209  43.493 -12.692  0.00  0.00    +0.000 C 
ENDBRANCH   2   9
BRANCH   4  13
ATOM     12  S   UNL     1     -20.856  43.278 -16.091  0.00  0.00    +0.000 S 
ATOM     13  N   UNL     1     -18.680  43.659 -14.413  0.00  0.00    +0.000 NA
ATOM     14  C   UNL     1     -19.610  43.487 -15.119  0.00  0.00    +0.000 C 
ENDBRANCH   4  13
TORSDOF 2
ENDMDL
MODEL 5
REMARK VINA RESULT:    -4.476      3.349      5.299
REMARK INTER + INTRA:          -5.212
REMARK INTER:                  -4.895
REMARK INTRA:                  -0.317
REMARK UNBOUND:                -0.213
REMARK  Name = 155230717
REMARK  4 active torsions:
REMARK  status: ('A' for Active; 'I' for Inactive)
REMARK    1  A    between atoms: N_3  and  C_8
REMARK    2  A    between atoms: N_3  and  C_9
REMARK    3  A    between atoms: N_5  and  C_11
REMARK    4  A    between atoms: C_6  and  C_7
REMARK                            x       y       z     vdW  Elec       q    Type
REMARK                         _______ _______ _______ _____ _____    ______ ____
ROOT
ATOM      1  N   UNL     1     -19.675  42.601 -14.997  0.00  0.00    +0.000 NA
ATOM      2  C   UNL     1     -18.754  44.663 -14.134  0.00  0.00    +0.000 A 
ATOM      3  C   UNL     1     -18.919  45.266 -15.377  0.00  0.00    +0.000 A 
ATOM      4  C   UNL     1     -19.145  43.341 -13.998  0.00  0.00    +0.000 A 
ATOM      5  C   UNL     1     -19.460  44.537 -16.430  0.00  0.00    +0.000 A 
ATOM      6  C   UNL     1     -19.819  43.220 -16.191  0.00  0.00    +0.000 A 
ENDROOT
BRANCH   2   9
ATOM      7  O   UNL     1     -18.980  46.051 -12.316  0.00  0.00    +0.000 OA
ATOM      8  N   UNL     1     -16.793  45.418 -12.846  0.00  0.00    +0.000 N 
ATOM      9  C   UNL     1     -18.181  45.433 -13.018  0.00  0.00    +0.000 C 
ATOM     10  C   UNL     1     -16.201  46.186 -11.758  0.00  0.00    +0.000 C 
ATOM     11  C   UNL     1     -15.853  44.676 -13.682  0.00  0.00    +0.000 C 
ENDBRANCH   2   9
BRANCH   4  13
ATOM     12  S   UNL     1     -17.356  40.449 -12.889  0.00  0.00    +0.000 S 
ATOM     13  N   UNL     1     -19.007  42.675 -12.774  0.00  0.00    +0.000 NA
ATOM     14  C   UNL     1     -18.303  41.731 -12.835  0.00  0.00    +0.000 C 
ENDBRANCH   4  13
TORSDOF 2
ENDMDL
