MODEL 1
REMARK VINA RESULT:    -6.487      0.000      0.000
REMARK INTER + INTRA:          -7.075
REMARK INTER:                  -6.867
REMARK INTRA:                  -0.209
REMARK UNBOUND:                -0.209
REMARK  Name = 15532801
REMARK  4 active torsions:
REMARK  status: ('A' for Active; 'I' for Inactive)
REMARK    1  A    between atoms: N_2  and  C_10
REMARK    2  A    between atoms: N_5  and  C_9
REMARK    3  A    between atoms: N_6  and  C_16
REMARK    4  A    between atoms: N_6  and  C_17
REMARK                            x       y       z     vdW  Elec       q    Type
REMARK                         _______ _______ _______ _____ _____    ______ ____
ROOT
ATOM      1  O   UNL     1     -19.602  39.338 -12.788  0.00  0.00    +0.000 OA
ATOM      2  N   UNL     1     -18.343  43.103 -12.218  0.00  0.00    +0.000 N 
ATOM      3  N   UNL     1     -19.279  41.433 -13.645  0.00  0.00    +0.000 NA
ATOM      4  N   UNL     1     -18.030  42.688  -9.849  0.00  0.00    +0.000 NA
ATOM      5  C   UNL     1     -18.407  42.258 -11.083  0.00  0.00    +0.000 A 
ATOM      6  C   UNL     1     -18.871  40.954 -11.269  0.00  0.00    +0.000 A 
ATOM      7  C   UNL     1     -18.844  42.642 -13.431  0.00  0.00    +0.000 A 
ATOM      8  C   UNL     1     -17.816  44.443 -11.987  0.00  0.00    +0.000 C 
ATOM      9  C   UNL     1     -19.275  40.510 -12.624  0.00  0.00    +0.000 A 
ATOM     10  C   UNL     1     -18.945  40.079 -10.183  0.00  0.00    +0.000 A 
ATOM     11  C   UNL     1     -18.559  40.520  -8.926  0.00  0.00    +0.000 A 
ATOM     12  C   UNL     1     -18.113  41.822  -8.813  0.00  0.00    +0.000 A 
ENDROOT
BRANCH   7  13
ATOM     13  N   UNL     1     -18.934  43.453 -14.540  0.00  0.00    +0.000 NA
ATOM     14  N   UNL     1     -20.085  43.719 -16.628  0.00  0.00    +0.000 N 
ATOM     15  C   UNL     1     -19.794  43.091 -15.429  0.00  0.00    +0.000 C 
ATOM     16  C   UNL     1     -21.092  43.185 -17.535  0.00  0.00    +0.000 C 
ATOM     17  C   UNL     1     -19.231  44.776 -17.150  0.00  0.00    +0.000 C 
ENDBRANCH   7  13
TORSDOF 1
ENDMDL
MODEL 2
REMARK VINA RESULT:    -5.944      1.985      6.150
REMARK INTER + INTRA:          -6.501
REMARK INTER:                  -6.293
REMARK INTRA:                  -0.208
REMARK UNBOUND:                -0.209
REMARK  Name = 15532801
REMARK  4 active torsions:
REMARK  status: ('A' for Active; 'I' for Inactive)
REMARK    1  A    between atoms: N_2  and  C_10
REMARK    2  A    between atoms: N_5  and  C_9
REMARK    3  A    between atoms: N_6  and  C_16
REMARK    4  A    between atoms: N_6  and  C_17
REMARK                            x       y       z     vdW  Elec       q    Type
REMARK                         _______ _______ _______ _____ _____    ______ ____
ROOT
ATOM      1  O   UNL     1     -20.432  42.221 -17.038  0.00  0.00    +0.000 OA
ATOM      2  N   UNL     1     -18.895  44.734 -14.316  0.00  0.00    +0.000 N 
ATOM      3  N   UNL     1     -19.604  42.538 -14.930  0.00  0.00    +0.000 NA
ATOM      4  N   UNL     1     -18.762  46.509 -15.964  0.00  0.00    +0.000 NA
ATOM      5  C   UNL     1     -19.071  45.227 -15.632  0.00  0.00    +0.000 A 
ATOM      6  C   UNL     1     -19.580  44.349 -16.592  0.00  0.00    +0.000 A 
ATOM      7  C   UNL     1     -19.124  43.385 -14.064  0.00  0.00    +0.000 A 
ATOM      8  C   UNL     1     -18.399  45.694 -13.336  0.00  0.00    +0.000 C 
ATOM      9  C   UNL     1     -19.909  42.956 -16.206  0.00  0.00    +0.000 A 
ATOM     10  C   UNL     1     -19.780  44.789 -17.903  0.00  0.00    +0.000 A 
ATOM     11  C   UNL     1     -19.465  46.097 -18.237  0.00  0.00    +0.000 A 
ATOM     12  C   UNL     1     -18.963  46.910 -17.240  0.00  0.00    +0.000 A 
ENDROOT
BRANCH   7  13
ATOM     13  N   UNL     1     -18.849  42.812 -12.844  0.00  0.00    +0.000 NA
ATOM     14  N   UNL     1     -18.872  40.726 -11.660  0.00  0.00    +0.000 N 
ATOM     15  C   UNL     1     -19.063  41.544 -12.759  0.00  0.00    +0.000 C 
ATOM     16  C   UNL     1     -19.161  39.300 -11.721  0.00  0.00    +0.000 C 
ATOM     17  C   UNL     1     -18.625  41.286 -10.339  0.00  0.00    +0.000 C 
ENDBRANCH   7  13
TORSDOF 1
ENDMDL
MODEL 3
REMARK VINA RESULT:    -5.687      2.507      3.991
REMARK INTER + INTRA:          -6.229
REMARK INTER:                  -6.020
REMARK INTRA:                  -0.209
REMARK UNBOUND:                -0.209
REMARK  Name = 15532801
REMARK  4 active torsions:
REMARK  status: ('A' for Active; 'I' for Inactive)
REMARK    1  A    between atoms: N_2  and  C_10
REMARK    2  A    between atoms: N_5  and  C_9
REMARK    3  A    between atoms: N_6  and  C_16
REMARK    4  A    between atoms: N_6  and  C_17
REMARK                            x       y       z     vdW  Elec       q    Type
REMARK                         _______ _______ _______ _____ _____    ______ ____
ROOT
ATOM      1  O   UNL     1     -17.514  42.874  -9.408  0.00  0.00    +0.000 OA
ATOM      2  N   UNL     1     -18.769  42.953 -13.216  0.00  0.00    +0.000 N 
ATOM      3  N   UNL     1     -17.736  44.044 -11.360  0.00  0.00    +0.000 NA
ATOM      4  N   UNL     1     -19.286  40.585 -13.143  0.00  0.00    +0.000 NA
ATOM      5  C   UNL     1     -18.812  41.708 -12.541  0.00  0.00    +0.000 A 
ATOM      6  C   UNL     1     -18.350  41.668 -11.224  0.00  0.00    +0.000 A 
ATOM      7  C   UNL     1     -18.172  44.041 -12.588  0.00  0.00    +0.000 A 
ATOM      8  C   UNL     1     -19.296  42.961 -14.576  0.00  0.00    +0.000 C 
ATOM      9  C   UNL     1     -17.838  42.906 -10.591  0.00  0.00    +0.000 A 
ATOM     10  C   UNL     1     -18.380  40.466 -10.512  0.00  0.00    +0.000 A 
ATOM     11  C   UNL     1     -18.866  39.322 -11.127  0.00  0.00    +0.000 A 
ATOM     12  C   UNL     1     -19.303  39.434 -12.433  0.00  0.00    +0.000 A 
ENDROOT
BRANCH   7  13
ATOM     13  N   UNL     1     -17.978  45.242 -13.232  0.00  0.00    +0.000 NA
ATOM     14  N   UNL     1     -17.909  47.614 -12.879  0.00  0.00    +0.000 N 
ATOM     15  C   UNL     1     -18.060  46.294 -12.492  0.00  0.00    +0.000 C 
ATOM     16  C   UNL     1     -18.031  48.701 -11.918  0.00  0.00    +0.000 C 
ATOM     17  C   UNL     1     -17.880  47.986 -14.286  0.00  0.00    +0.000 C 
ENDBRANCH   7  13
TORSDOF 1
ENDMDL
MODEL 4
REMARK VINA RESULT:    -5.461      2.525      3.256
REMARK INTER + INTRA:          -5.989
REMARK INTER:                  -5.780
REMARK INTRA:                  -0.209
REMARK UNBOUND:                -0.209
REMARK  Name = 15532801
REMARK  4 active torsions:
REMARK  status: ('A' for Active; 'I' for Inactive)
REMARK    1  A    between atoms: N_2  and  C_10
REMARK    2  A    between atoms: N_5  and  C_9
REMARK    3  A    between atoms: N_6  and  C_16
REMARK    4  A    between atoms: N_6  and  C_17
REMARK                            x       y       z     vdW  Elec       q    Type
REMARK                         _______ _______ _______ _____ _____    ______ ____
ROOT
ATOM      1  O   UNL     1     -20.229  42.296 -14.286  0.00  0.00    +0.000 OA
ATOM      2  N   UNL     1     -16.790  43.021 -12.355  0.00  0.00    +0.000 N 
ATOM      3  N   UNL     1     -18.449  43.687 -13.938  0.00  0.00    +0.000 NA
ATOM      4  N   UNL     1     -17.129  41.087 -10.930  0.00  0.00    +0.000 NA
ATOM      5  C   UNL     1     -17.552  41.904 -11.931  0.00  0.00    +0.000 A 
ATOM      6  C   UNL     1     -18.765  41.662 -12.581  0.00  0.00    +0.000 A 
ATOM      7  C   UNL     1     -17.325  43.882 -13.306  0.00  0.00    +0.000 A 
ATOM      8  C   UNL     1     -15.513  43.215 -11.677  0.00  0.00    +0.000 C 
ATOM      9  C   UNL     1     -19.204  42.568 -13.669  0.00  0.00    +0.000 A 
ATOM     10  C   UNL     1     -19.550  40.569 -12.206  0.00  0.00    +0.000 A 
ATOM     11  C   UNL     1     -19.115  39.737 -11.186  0.00  0.00    +0.000 A 
ATOM     12  C   UNL     1     -17.908  40.036 -10.585  0.00  0.00    +0.000 A 
ENDROOT
BRANCH   7  13
ATOM     13  N   UNL     1     -16.699  45.054 -13.667  0.00  0.00    +0.000 NA
ATOM     14  N   UNL     1     -17.116  47.291 -14.428  0.00  0.00    +0.000 N 
ATOM     15  C   UNL     1     -17.478  46.018 -14.021  0.00  0.00    +0.000 C 
ATOM     16  C   UNL     1     -18.119  48.278 -14.799  0.00  0.00    +0.000 C 
ATOM     17  C   UNL     1     -15.732  47.613 -14.746  0.00  0.00    +0.000 C 
ENDBRANCH   7  13
TORSDOF 1
ENDMDL
MODEL 5
REMARK VINA RESULT:    -5.004      3.050      5.795
REMARK INTER + INTRA:          -5.505
REMARK INTER:                  -5.327
REMARK INTRA:                  -0.178
REMARK UNBOUND:                -0.209
REMARK  Name = 15532801
REMARK  4 active torsions:
REMARK  status: ('A' for Active; 'I' for Inactive)
REMARK    1  A    between atoms: N_2  and  C_10
REMARK    2  A    between atoms: N_5  and  C_9
REMARK    3  A    between atoms: N_6  and  C_16
REMARK    4  A    between atoms: N_6  and  C_17
REMARK                            x       y       z     vdW  Elec       q    Type
REMARK                         _______ _______ _______ _____ _____    ______ ____
ROOT
ATOM      1  O   UNL     1     -13.709  43.279 -11.277  0.00  0.00    +0.000 OA
ATOM      2  N   UNL     1     -17.413  43.874 -12.695  0.00  0.00    +0.000 N 
ATOM      3  N   UNL     1     -15.784  42.427 -11.716  0.00  0.00    +0.000 NA
ATOM      4  N   UNL     1     -16.990  46.251 -12.931  0.00  0.00    +0.000 NA
ATOM      5  C   UNL     1     -16.575  45.008 -12.565  0.00  0.00    +0.000 A 
ATOM      6  C   UNL     1     -15.293  44.813 -12.046  0.00  0.00    +0.000 A 
ATOM      7  C   UNL     1     -16.973  42.650 -12.202  0.00  0.00    +0.000 A 
ATOM      8  C   UNL     1     -18.728  44.115 -13.277  0.00  0.00    +0.000 C 
ATOM      9  C   UNL     1     -14.865  43.449 -11.654  0.00  0.00    +0.000 A 
ATOM     10  C   UNL     1     -14.425  45.899 -11.906  0.00  0.00    +0.000 A 
ATOM     11  C   UNL     1     -14.851  47.163 -12.281  0.00  0.00    +0.000 A 
ATOM     12  C   UNL     1     -16.131  47.285 -12.784  0.00  0.00    +0.000 A 
ENDROOT
BRANCH   7  13
ATOM     13  N   UNL     1     -17.784  41.538 -12.176  0.00  0.00    +0.000 NA
ATOM     14  N   UNL     1     -19.200  40.234 -10.743  0.00  0.00    +0.000 N 
ATOM     15  C   UNL     1     -18.345  41.281 -11.044  0.00  0.00    +0.000 C 
ATOM     16  C   UNL     1     -19.758  40.077  -9.407  0.00  0.00    +0.000 C 
ATOM     17  C   UNL     1     -19.372  39.117 -11.659  0.00  0.00    +0.000 C 
ENDBRANCH   7  13
TORSDOF 1
ENDMDL
