MODEL 1
REMARK VINA RESULT:    -6.273      0.000      0.000
REMARK INTER + INTRA:          -6.669
REMARK INTER:                  -6.640
REMARK INTRA:                  -0.029
REMARK UNBOUND:                -0.029
REMARK  Name = 15554909
REMARK  1 active torsions:
REMARK  status: ('A' for Active; 'I' for Inactive)
REMARK    1  A    between atoms: C_4  and  C_8
REMARK                            x       y       z     vdW  Elec       q    Type
REMARK                         _______ _______ _______ _____ _____    ______ ____
ROOT
ATOM      1  N   UNL     1     -18.692  41.843  -7.858  0.00  0.00    +0.000 NA
ATOM      2  C   UNL     1     -21.078  41.637  -7.528  0.00  0.00    +0.000 A 
ATOM      3  C   UNL     1     -21.114  40.562  -8.407  0.00  0.00    +0.000 A 
ATOM      4  C   UNL     1     -19.852  42.238  -7.289  0.00  0.00    +0.000 A 
ATOM      5  C   UNL     1     -19.941  40.125  -9.013  0.00  0.00    +0.000 A 
ATOM      6  C   UNL     1     -18.767  40.793  -8.708  0.00  0.00    +0.000 A 
ATOM      7  H   UNL     1     -22.045  40.048  -8.635  0.00  0.00    +0.000 HD
ATOM      8  H   UNL     1     -19.709  43.081  -6.624  0.00  0.00    +0.000 HD
ATOM      9  H   UNL     1     -19.946  39.288  -9.702  0.00  0.00    +0.000 HD
ATOM     10  H   UNL     1     -17.824  40.493  -9.154  0.00  0.00    +0.000 HD
ENDROOT
BRANCH   2  13
ATOM     11  O   UNL     1     -23.292  41.392  -6.763  0.00  0.00    +0.000 OA
ATOM     12  N   UNL     1     -22.281  43.413  -6.373  0.00  0.00    +0.000 N 
ATOM     13  C   UNL     1     -22.286  42.116  -6.879  0.00  0.00    +0.000 C 
ATOM     14  H   UNL     1     -21.505  44.061  -6.422  0.00  0.00    +0.000 HD
ATOM     15  H   UNL     1     -23.110  43.771  -5.909  0.00  0.00    +0.000 HD
ENDBRANCH   2  13
TORSDOF 1
ENDMDL
MODEL 2
REMARK VINA RESULT:    -5.667      2.350      3.953
REMARK INTER + INTRA:          -6.027
REMARK INTER:                  -6.005
REMARK INTRA:                  -0.022
REMARK UNBOUND:                -0.029
REMARK  Name = 15554909
REMARK  1 active torsions:
REMARK  status: ('A' for Active; 'I' for Inactive)
REMARK    1  A    between atoms: C_4  and  C_8
REMARK                            x       y       z     vdW  Elec       q    Type
REMARK                         _______ _______ _______ _____ _____    ______ ____
ROOT
ATOM      1  N   UNL     1     -22.314  40.788  -7.905  0.00  0.00    +0.000 NA
ATOM      2  C   UNL     1     -20.025  41.561  -7.820  0.00  0.00    +0.000 A 
ATOM      3  C   UNL     1     -20.306  42.288  -6.670  0.00  0.00    +0.000 A 
ATOM      4  C   UNL     1     -21.055  40.834  -8.395  0.00  0.00    +0.000 A 
ATOM      5  C   UNL     1     -21.589  42.266  -6.135  0.00  0.00    +0.000 A 
ATOM      6  C   UNL     1     -22.549  41.507  -6.785  0.00  0.00    +0.000 A 
ATOM      7  H   UNL     1     -19.540  42.878  -6.172  0.00  0.00    +0.000 HD
ATOM      8  H   UNL     1     -20.948  40.233  -9.290  0.00  0.00    +0.000 HD
ATOM      9  H   UNL     1     -21.831  42.825  -5.238  0.00  0.00    +0.000 HD
ATOM     10  H   UNL     1     -23.566  41.457  -6.409  0.00  0.00    +0.000 HD
ENDROOT
BRANCH   2  13
ATOM     11  O   UNL     1     -18.102  42.627  -8.665  0.00  0.00    +0.000 OA
ATOM     12  N   UNL     1     -18.090  40.334  -8.646  0.00  0.00    +0.000 N 
ATOM     13  C   UNL     1     -18.695  41.564  -8.403  0.00  0.00    +0.000 C 
ATOM     14  H   UNL     1     -18.500  39.428  -8.459  0.00  0.00    +0.000 HD
ATOM     15  H   UNL     1     -17.157  40.307  -9.047  0.00  0.00    +0.000 HD
ENDBRANCH   2  13
TORSDOF 1
ENDMDL
MODEL 3
REMARK VINA RESULT:    -5.295      3.021      4.145
REMARK INTER + INTRA:          -5.633
REMARK INTER:                  -5.615
REMARK INTRA:                  -0.018
REMARK UNBOUND:                -0.029
REMARK  Name = 15554909
REMARK  1 active torsions:
REMARK  status: ('A' for Active; 'I' for Inactive)
REMARK    1  A    between atoms: C_4  and  C_8
REMARK                            x       y       z     vdW  Elec       q    Type
REMARK                         _______ _______ _______ _____ _____    ______ ____
ROOT
ATOM      1  N   UNL     1     -18.498  42.215  -8.265  0.00  0.00    +0.000 NA
ATOM      2  C   UNL     1     -19.362  40.656  -9.898  0.00  0.00    +0.000 A 
ATOM      3  C   UNL     1     -20.445  40.379  -9.072  0.00  0.00    +0.000 A 
ATOM      4  C   UNL     1     -18.424  41.573  -9.452  0.00  0.00    +0.000 A 
ATOM      5  C   UNL     1     -20.557  41.019  -7.842  0.00  0.00    +0.000 A 
ATOM      6  C   UNL     1     -19.566  41.921  -7.489  0.00  0.00    +0.000 A 
ATOM      7  H   UNL     1     -21.214  39.670  -9.365  0.00  0.00    +0.000 HD
ATOM      8  H   UNL     1     -17.544  41.862 -10.014  0.00  0.00    +0.000 HD
ATOM      9  H   UNL     1     -21.392  40.820  -7.182  0.00  0.00    +0.000 HD
ATOM     10  H   UNL     1     -19.605  42.447  -6.541  0.00  0.00    +0.000 HD
ENDROOT
BRANCH   2  13
ATOM     11  O   UNL     1     -18.468  39.021 -11.339  0.00  0.00    +0.000 OA
ATOM     12  N   UNL     1     -19.960  40.502 -12.255  0.00  0.00    +0.000 N 
ATOM     13  C   UNL     1     -19.218  40.004 -11.187  0.00  0.00    +0.000 C 
ATOM     14  H   UNL     1     -20.593  41.290 -12.214  0.00  0.00    +0.000 HD
ATOM     15  H   UNL     1     -19.883  40.060 -13.166  0.00  0.00    +0.000 HD
ENDBRANCH   2  13
TORSDOF 1
ENDMDL
MODEL 4
REMARK VINA RESULT:    -5.263      2.713      4.286
REMARK INTER + INTRA:          -5.600
REMARK INTER:                  -5.569
REMARK INTRA:                  -0.031
REMARK UNBOUND:                -0.029
REMARK  Name = 15554909
REMARK  1 active torsions:
REMARK  status: ('A' for Active; 'I' for Inactive)
REMARK    1  A    between atoms: C_4  and  C_8
REMARK                            x       y       z     vdW  Elec       q    Type
REMARK                         _______ _______ _______ _____ _____    ______ ____
ROOT
ATOM      1  N   UNL     1     -21.561  40.659  -8.144  0.00  0.00    +0.000 NA
ATOM      2  C   UNL     1     -19.356  40.650  -9.135  0.00  0.00    +0.000 A 
ATOM      3  C   UNL     1     -18.945  41.636  -8.245  0.00  0.00    +0.000 A 
ATOM      4  C   UNL     1     -20.664  40.200  -9.044  0.00  0.00    +0.000 A 
ATOM      5  C   UNL     1     -19.840  42.135  -7.305  0.00  0.00    +0.000 A 
ATOM      6  C   UNL     1     -21.125  41.617  -7.296  0.00  0.00    +0.000 A 
ATOM      7  H   UNL     1     -17.932  42.030  -8.266  0.00  0.00    +0.000 HD
ATOM      8  H   UNL     1     -21.088  39.436  -9.685  0.00  0.00    +0.000 HD
ATOM      9  H   UNL     1     -19.541  42.903  -6.601  0.00  0.00    +0.000 HD
ATOM     10  H   UNL     1     -21.862  41.972  -6.582  0.00  0.00    +0.000 HD
ENDROOT
BRANCH   2  13
ATOM     11  O   UNL     1     -18.816  39.256 -10.954  0.00  0.00    +0.000 OA
ATOM     12  N   UNL     1     -17.138  40.590 -10.141  0.00  0.00    +0.000 N 
ATOM     13  C   UNL     1     -18.445  40.110 -10.128  0.00  0.00    +0.000 C 
ATOM     14  H   UNL     1     -16.760  41.284  -9.509  0.00  0.00    +0.000 HD
ATOM     15  H   UNL     1     -16.482  40.234 -10.829  0.00  0.00    +0.000 HD
ENDBRANCH   2  13
TORSDOF 1
ENDMDL
MODEL 5
REMARK VINA RESULT:    -4.678      3.312      4.361
REMARK INTER + INTRA:          -4.981
REMARK INTER:                  -4.963
REMARK INTRA:                  -0.018
REMARK UNBOUND:                -0.029
REMARK  Name = 15554909
REMARK  1 active torsions:
REMARK  status: ('A' for Active; 'I' for Inactive)
REMARK    1  A    between atoms: C_4  and  C_8
REMARK                            x       y       z     vdW  Elec       q    Type
REMARK                         _______ _______ _______ _____ _____    ______ ____
ROOT
ATOM      1  N   UNL     1     -17.099  39.769 -11.945  0.00  0.00    +0.000 NA
ATOM      2  C   UNL     1     -18.429  40.786 -10.201  0.00  0.00    +0.000 A 
ATOM      3  C   UNL     1     -19.485  40.945 -11.091  0.00  0.00    +0.000 A 
ATOM      4  C   UNL     1     -17.267  40.198 -10.674  0.00  0.00    +0.000 A 
ATOM      5  C   UNL     1     -19.351  40.517 -12.407  0.00  0.00    +0.000 A 
ATOM      6  C   UNL     1     -18.148  39.940 -12.780  0.00  0.00    +0.000 A 
ATOM      7  H   UNL     1     -20.423  41.399 -10.780  0.00  0.00    +0.000 HD
ATOM      8  H   UNL     1     -16.385  40.025 -10.070  0.00  0.00    +0.000 HD
ATOM      9  H   UNL     1     -20.161  40.631 -13.117  0.00  0.00    +0.000 HD
ATOM     10  H   UNL     1     -17.991  39.590 -13.796  0.00  0.00    +0.000 HD
ENDROOT
BRANCH   2  13
ATOM     11  O   UNL     1     -18.291  42.397  -8.489  0.00  0.00    +0.000 OA
ATOM     12  N   UNL     1     -18.949  40.288  -7.874  0.00  0.00    +0.000 N 
ATOM     13  C   UNL     1     -18.539  41.223  -8.821  0.00  0.00    +0.000 C 
ATOM     14  H   UNL     1     -19.172  39.319  -8.062  0.00  0.00    +0.000 HD
ATOM     15  H   UNL     1     -19.040  40.569  -6.903  0.00  0.00    +0.000 HD
ENDBRANCH   2  13
TORSDOF 1
ENDMDL
