MODEL 1
REMARK VINA RESULT:    -4.855      0.000      0.000
REMARK INTER + INTRA:          -7.219
REMARK INTER:                  -6.559
REMARK INTRA:                  -0.661
REMARK UNBOUND:                -0.661
REMARK  Name = 155733030
REMARK  10 active torsions:
REMARK  status: ('A' for Active; 'I' for Inactive)
REMARK    1  A    between atoms: N_2  and  C_5
REMARK    2  A    between atoms: N_2  and  C_7
REMARK    3  A    between atoms: N_2  and  C_8
REMARK    4  A    between atoms: N_4  and  C_18
REMARK    5  A    between atoms: C_5  and  C_6
REMARK    6  A    between atoms: C_6  and  C_10
REMARK    7  A    between atoms: C_6  and  C_11
REMARK    8  A    between atoms: C_7  and  C_9
REMARK    9  A    between atoms: C_9  and  C_13
REMARK   10  A    between atoms: C_12  and  C_15
REMARK                            x       y       z     vdW  Elec       q    Type
REMARK                         _______ _______ _______ _____ _____    ______ ____
ROOT
ATOM      1  N   UNL     1     -17.856  42.173  -9.279  0.00  0.00    +0.000 NA
ATOM      2  C   UNL     1     -17.978  42.279 -10.621  0.00  0.00    +0.000 A 
ATOM      3  C   UNL     1     -18.836  41.506 -11.385  0.00  0.00    +0.000 A 
ATOM      4  C   UNL     1     -19.620  40.562 -10.731  0.00  0.00    +0.000 A 
ATOM      5  C   UNL     1     -18.635  41.246  -8.678  0.00  0.00    +0.000 A 
ATOM      6  C   UNL     1     -19.524  40.423  -9.350  0.00  0.00    +0.000 A 
ENDROOT
BRANCH   3   9
ATOM      7  O   UNL     1     -18.421  40.796 -13.581  0.00  0.00    +0.000 OA
ATOM      8  N   UNL     1     -19.664  42.735 -13.314  0.00  0.00    +0.000 N 
ATOM      9  C   UNL     1     -18.941  41.640 -12.832  0.00  0.00    +0.000 C 
ATOM     10  C   UNL     1     -19.877  42.993 -14.721  0.00  0.00    +0.000 C 
ATOM     11  H   UNL     1     -20.041  43.407 -12.652  0.00  0.00    +0.000 HD
ENDBRANCH   3   9
BRANCH   2  12
ATOM     12  N   UNL     1     -17.182  43.230 -11.274  0.00  0.00    +0.000 N 
BRANCH  12  13
ATOM     13  C   UNL     1     -15.982  42.850 -11.981  0.00  0.00    +0.000 C 
BRANCH  13  14
ATOM     14  C   UNL     1     -14.716  43.149 -11.164  0.00  0.00    +0.000 C 
ATOM     15  C   UNL     1     -13.854  41.901 -10.963  0.00  0.00    +0.000 C 
ATOM     16  C   UNL     1     -13.889  44.280 -11.780  0.00  0.00    +0.000 C 
ENDBRANCH  13  14
ENDBRANCH  12  13
BRANCH  12  17
ATOM     17  C   UNL     1     -17.548  44.646 -11.227  0.00  0.00    +0.000 C 
BRANCH  17  18
ATOM     18  C   UNL     1     -17.370  45.297 -12.595  0.00  0.00    +0.000 C 
ATOM     19  C   UNL     1     -16.780  46.699 -12.510  0.00  0.00    +0.000 C 
ENDBRANCH  17  18
ENDBRANCH  12  17
ENDBRANCH   2  12
TORSDOF 6
ENDMDL
MODEL 2
REMARK VINA RESULT:    -3.999     14.051     16.551
REMARK INTER + INTRA:          -6.062
REMARK INTER:                  -5.221
REMARK INTRA:                  -0.841
REMARK UNBOUND:                -0.661
REMARK  Name = 155733030
REMARK  10 active torsions:
REMARK  status: ('A' for Active; 'I' for Inactive)
REMARK    1  A    between atoms: N_2  and  C_5
REMARK    2  A    between atoms: N_2  and  C_7
REMARK    3  A    between atoms: N_2  and  C_8
REMARK    4  A    between atoms: N_4  and  C_18
REMARK    5  A    between atoms: C_5  and  C_6
REMARK    6  A    between atoms: C_6  and  C_10
REMARK    7  A    between atoms: C_6  and  C_11
REMARK    8  A    between atoms: C_7  and  C_9
REMARK    9  A    between atoms: C_9  and  C_13
REMARK   10  A    between atoms: C_12  and  C_15
REMARK                            x       y       z     vdW  Elec       q    Type
REMARK                         _______ _______ _______ _____ _____    ______ ____
ROOT
ATOM      1  N   UNL     1     -31.023  41.922 -16.484  0.00  0.00    +0.000 NA
ATOM      2  C   UNL     1     -32.287  42.379 -16.628  0.00  0.00    +0.000 A 
ATOM      3  C   UNL     1     -33.036  42.236 -17.784  0.00  0.00    +0.000 A 
ATOM      4  C   UNL     1     -32.450  41.582 -18.862  0.00  0.00    +0.000 A 
ATOM      5  C   UNL     1     -30.488  41.291 -17.552  0.00  0.00    +0.000 A 
ATOM      6  C   UNL     1     -31.152  41.096 -18.752  0.00  0.00    +0.000 A 
ENDROOT
BRANCH   3   9
ATOM      7  O   UNL     1     -34.597  43.936 -18.200  0.00  0.00    +0.000 OA
ATOM      8  N   UNL     1     -35.433  41.827 -17.717  0.00  0.00    +0.000 N 
ATOM      9  C   UNL     1     -34.395  42.744 -17.912  0.00  0.00    +0.000 C 
ATOM     10  C   UNL     1     -36.833  42.172 -17.832  0.00  0.00    +0.000 C 
ATOM     11  H   UNL     1     -35.205  40.873 -17.455  0.00  0.00    +0.000 HD
ENDBRANCH   3   9
BRANCH   2  12
ATOM     12  N   UNL     1     -32.870  43.041 -15.538  0.00  0.00    +0.000 N 
BRANCH  12  13
ATOM     13  C   UNL     1     -32.601  44.434 -15.271  0.00  0.00    +0.000 C 
BRANCH  13  14
ATOM     14  C   UNL     1     -31.546  44.614 -14.170  0.00  0.00    +0.000 C 
ATOM     15  C   UNL     1     -30.259  45.245 -14.705  0.00  0.00    +0.000 C 
ATOM     16  C   UNL     1     -32.085  45.417 -12.984  0.00  0.00    +0.000 C 
ENDBRANCH  13  14
ENDBRANCH  12  13
BRANCH  12  17
ATOM     17  C   UNL     1     -33.751  42.310 -14.626  0.00  0.00    +0.000 C 
BRANCH  17  18
ATOM     18  C   UNL     1     -34.937  43.176 -14.211  0.00  0.00    +0.000 C 
ATOM     19  C   UNL     1     -35.146  43.207 -12.702  0.00  0.00    +0.000 C 
ENDBRANCH  17  18
ENDBRANCH  12  17
ENDBRANCH   2  12
TORSDOF 6
ENDMDL
MODEL 3
REMARK VINA RESULT:    -3.961     21.396     23.551
REMARK INTER + INTRA:          -6.011
REMARK INTER:                  -5.249
REMARK INTRA:                  -0.762
REMARK UNBOUND:                -0.661
REMARK  Name = 155733030
REMARK  10 active torsions:
REMARK  status: ('A' for Active; 'I' for Inactive)
REMARK    1  A    between atoms: N_2  and  C_5
REMARK    2  A    between atoms: N_2  and  C_7
REMARK    3  A    between atoms: N_2  and  C_8
REMARK    4  A    between atoms: N_4  and  C_18
REMARK    5  A    between atoms: C_5  and  C_6
REMARK    6  A    between atoms: C_6  and  C_10
REMARK    7  A    between atoms: C_6  and  C_11
REMARK    8  A    between atoms: C_7  and  C_9
REMARK    9  A    between atoms: C_9  and  C_13
REMARK   10  A    between atoms: C_12  and  C_15
REMARK                            x       y       z     vdW  Elec       q    Type
REMARK                         _______ _______ _______ _____ _____    ______ ____
ROOT
ATOM      1  N   UNL     1     -32.091  44.145   7.042  0.00  0.00    +0.000 NA
ATOM      2  C   UNL     1     -33.180  44.510   6.330  0.00  0.00    +0.000 A 
ATOM      3  C   UNL     1     -34.465  44.549   6.845  0.00  0.00    +0.000 A 
ATOM      4  C   UNL     1     -34.644  44.190   8.177  0.00  0.00    +0.000 A 
ATOM      5  C   UNL     1     -32.303  43.803   8.332  0.00  0.00    +0.000 A 
ATOM      6  C   UNL     1     -33.548  43.808   8.942  0.00  0.00    +0.000 A 
ENDROOT
BRANCH   3   9
ATOM      7  O   UNL     1     -36.186  44.120   5.311  0.00  0.00    +0.000 OA
ATOM      8  N   UNL     1     -36.061  46.263   6.188  0.00  0.00    +0.000 N 
ATOM      9  C   UNL     1     -35.621  44.943   6.052  0.00  0.00    +0.000 C 
ATOM     10  C   UNL     1     -37.207  46.799   5.486  0.00  0.00    +0.000 C 
ATOM     11  H   UNL     1     -35.540  46.897   6.787  0.00  0.00    +0.000 HD
ENDBRANCH   3   9
BRANCH   2  12
ATOM     12  N   UNL     1     -32.992  44.868   4.988  0.00  0.00    +0.000 N 
BRANCH  12  13
ATOM     13  C   UNL     1     -32.960  43.875   3.941  0.00  0.00    +0.000 C 
BRANCH  13  14
ATOM     14  C   UNL     1     -31.567  43.247   3.787  0.00  0.00    +0.000 C 
ATOM     15  C   UNL     1     -31.632  41.722   3.688  0.00  0.00    +0.000 C 
ATOM     16  C   UNL     1     -30.802  43.832   2.598  0.00  0.00    +0.000 C 
ENDBRANCH  13  14
ENDBRANCH  12  13
BRANCH  12  17
ATOM     17  C   UNL     1     -32.797  46.273   4.627  0.00  0.00    +0.000 C 
BRANCH  17  18
ATOM     18  C   UNL     1     -33.540  46.608   3.337  0.00  0.00    +0.000 C 
ATOM     19  C   UNL     1     -32.640  47.245   2.286  0.00  0.00    +0.000 C 
ENDBRANCH  17  18
ENDBRANCH  12  17
ENDBRANCH   2  12
TORSDOF 6
ENDMDL
MODEL 4
REMARK VINA RESULT:    -3.926     21.566     23.806
REMARK INTER + INTRA:          -5.964
REMARK INTER:                  -5.241
REMARK INTRA:                  -0.723
REMARK UNBOUND:                -0.661
REMARK  Name = 155733030
REMARK  10 active torsions:
REMARK  status: ('A' for Active; 'I' for Inactive)
REMARK    1  A    between atoms: N_2  and  C_5
REMARK    2  A    between atoms: N_2  and  C_7
REMARK    3  A    between atoms: N_2  and  C_8
REMARK    4  A    between atoms: N_4  and  C_18
REMARK    5  A    between atoms: C_5  and  C_6
REMARK    6  A    between atoms: C_6  and  C_10
REMARK    7  A    between atoms: C_6  and  C_11
REMARK    8  A    between atoms: C_7  and  C_9
REMARK    9  A    between atoms: C_9  and  C_13
REMARK   10  A    between atoms: C_12  and  C_15
REMARK                            x       y       z     vdW  Elec       q    Type
REMARK                         _______ _______ _______ _____ _____    ______ ____
ROOT
ATOM      1  N   UNL     1     -32.141  44.157   6.921  0.00  0.00    +0.000 NA
ATOM      2  C   UNL     1     -33.262  44.544   6.273  0.00  0.00    +0.000 A 
ATOM      3  C   UNL     1     -34.512  44.621   6.865  0.00  0.00    +0.000 A 
ATOM      4  C   UNL     1     -34.618  44.278   8.208  0.00  0.00    +0.000 A 
ATOM      5  C   UNL     1     -32.283  43.833   8.225  0.00  0.00    +0.000 A 
ATOM      6  C   UNL     1     -33.487  43.876   8.909  0.00  0.00    +0.000 A 
ENDROOT
BRANCH   3   9
ATOM      7  O   UNL     1     -36.371  44.208   5.496  0.00  0.00    +0.000 OA
ATOM      8  N   UNL     1     -36.058  46.387   6.226  0.00  0.00    +0.000 N 
ATOM      9  C   UNL     1     -35.704  45.037   6.140  0.00  0.00    +0.000 C 
ATOM     10  C   UNL     1     -37.225  46.949   5.583  0.00  0.00    +0.000 C 
ATOM     11  H   UNL     1     -35.457  47.021   6.744  0.00  0.00    +0.000 HD
ENDBRANCH   3   9
BRANCH   2  12
ATOM     12  N   UNL     1     -33.148  44.885   4.918  0.00  0.00    +0.000 N 
BRANCH  12  13
ATOM     13  C   UNL     1     -32.913  46.247   4.501  0.00  0.00    +0.000 C 
BRANCH  13  14
ATOM     14  C   UNL     1     -33.268  46.465   3.024  0.00  0.00    +0.000 C 
ATOM     15  C   UNL     1     -34.660  47.077   2.851  0.00  0.00    +0.000 C 
ATOM     16  C   UNL     1     -32.217  47.307   2.299  0.00  0.00    +0.000 C 
ENDBRANCH  13  14
ENDBRANCH  12  13
BRANCH  12  17
ATOM     17  C   UNL     1     -33.293  43.854   3.890  0.00  0.00    +0.000 C 
BRANCH  17  18
ATOM     18  C   UNL     1     -32.056  42.963   3.840  0.00  0.00    +0.000 C 
ATOM     19  C   UNL     1     -30.955  43.530   2.952  0.00  0.00    +0.000 C 
ENDBRANCH  17  18
ENDBRANCH  12  17
ENDBRANCH   2  12
TORSDOF 6
ENDMDL
MODEL 5
REMARK VINA RESULT:    -3.835     20.263     22.636
REMARK INTER + INTRA:          -5.841
REMARK INTER:                  -5.027
REMARK INTRA:                  -0.814
REMARK UNBOUND:                -0.661
REMARK  Name = 155733030
REMARK  10 active torsions:
REMARK  status: ('A' for Active; 'I' for Inactive)
REMARK    1  A    between atoms: N_2  and  C_5
REMARK    2  A    between atoms: N_2  and  C_7
REMARK    3  A    between atoms: N_2  and  C_8
REMARK    4  A    between atoms: N_4  and  C_18
REMARK    5  A    between atoms: C_5  and  C_6
REMARK    6  A    between atoms: C_6  and  C_10
REMARK    7  A    between atoms: C_6  and  C_11
REMARK    8  A    between atoms: C_7  and  C_9
REMARK    9  A    between atoms: C_9  and  C_13
REMARK   10  A    between atoms: C_12  and  C_15
REMARK                            x       y       z     vdW  Elec       q    Type
REMARK                         _______ _______ _______ _____ _____    ______ ____
ROOT
ATOM      1  N   UNL     1     -32.399  42.741   4.015  0.00  0.00    +0.000 NA
ATOM      2  C   UNL     1     -32.505  44.088   3.982  0.00  0.00    +0.000 A 
ATOM      3  C   UNL     1     -31.677  44.913   3.240  0.00  0.00    +0.000 A 
ATOM      4  C   UNL     1     -30.673  44.318   2.483  0.00  0.00    +0.000 A 
ATOM      5  C   UNL     1     -31.413  42.198   3.266  0.00  0.00    +0.000 A 
ATOM      6  C   UNL     1     -30.532  42.935   2.490  0.00  0.00    +0.000 A 
ENDROOT
BRANCH   3   9
ATOM      7  O   UNL     1     -31.122  47.066   3.986  0.00  0.00    +0.000 OA
ATOM      8  N   UNL     1     -32.727  46.905   2.320  0.00  0.00    +0.000 N 
ATOM      9  C   UNL     1     -31.812  46.363   3.228  0.00  0.00    +0.000 C 
ATOM     10  C   UNL     1     -32.959  48.325   2.172  0.00  0.00    +0.000 C 
ATOM     11  H   UNL     1     -33.283  46.277   1.748  0.00  0.00    +0.000 HD
ENDBRANCH   3   9
BRANCH   2  12
ATOM     12  N   UNL     1     -33.517  44.681   4.750  0.00  0.00    +0.000 N 
BRANCH  12  13
ATOM     13  C   UNL     1     -33.238  45.265   6.040  0.00  0.00    +0.000 C 
BRANCH  13  14
ATOM     14  C   UNL     1     -33.628  44.327   7.191  0.00  0.00    +0.000 C 
ATOM     15  C   UNL     1     -32.406  43.686   7.851  0.00  0.00    +0.000 C 
ATOM     16  C   UNL     1     -34.496  45.031   8.237  0.00  0.00    +0.000 C 
ENDBRANCH  13  14
ENDBRANCH  12  13
BRANCH  12  17
ATOM     17  C   UNL     1     -34.895  44.694   4.259  0.00  0.00    +0.000 C 
BRANCH  17  18
ATOM     18  C   UNL     1     -35.528  46.067   4.459  0.00  0.00    +0.000 C 
ATOM     19  C   UNL     1     -36.741  46.030   5.380  0.00  0.00    +0.000 C 
ENDBRANCH  17  18
ENDBRANCH  12  17
ENDBRANCH   2  12
TORSDOF 6
ENDMDL
