MODEL 1
REMARK VINA RESULT:    -4.922      0.000      0.000
REMARK INTER + INTRA:          -7.169
REMARK INTER:                  -6.649
REMARK INTRA:                  -0.520
REMARK UNBOUND:                -0.520
REMARK  Name = 155733072
REMARK  9 active torsions:
REMARK  status: ('A' for Active; 'I' for Inactive)
REMARK    1  A    between atoms: N_2  and  C_5
REMARK    2  A    between atoms: N_2  and  C_6
REMARK    3  A    between atoms: N_2  and  C_9
REMARK    4  A    between atoms: N_4  and  C_17
REMARK    5  A    between atoms: C_5  and  C_7
REMARK    6  A    between atoms: C_6  and  C_8
REMARK    7  A    between atoms: C_7  and  C_11
REMARK    8  A    between atoms: C_8  and  C_12
REMARK    9  A    between atoms: C_10  and  C_14
REMARK                            x       y       z     vdW  Elec       q    Type
REMARK                         _______ _______ _______ _____ _____    ______ ____
ROOT
ATOM      1  N   UNL     1     -17.864  42.216  -9.320  0.00  0.00    +0.000 NA
ATOM      2  C   UNL     1     -18.001  42.298 -10.662  0.00  0.00    +0.000 A 
ATOM      3  C   UNL     1     -18.853  41.497 -11.405  0.00  0.00    +0.000 A 
ATOM      4  C   UNL     1     -19.616  40.552 -10.727  0.00  0.00    +0.000 A 
ATOM      5  C   UNL     1     -18.621  41.287  -8.694  0.00  0.00    +0.000 A 
ATOM      6  C   UNL     1     -19.503  40.439  -9.345  0.00  0.00    +0.000 A 
ENDROOT
BRANCH   3   9
ATOM      7  O   UNL     1     -18.526  40.714 -13.591  0.00  0.00    +0.000 OA
ATOM      8  N   UNL     1     -19.635  42.736 -13.348  0.00  0.00    +0.000 N 
ATOM      9  C   UNL     1     -18.975  41.606 -12.852  0.00  0.00    +0.000 C 
ATOM     10  C   UNL     1     -19.857  42.976 -14.755  0.00  0.00    +0.000 C 
ATOM     11  H   UNL     1     -19.956  43.445 -12.694  0.00  0.00    +0.000 HD
ENDBRANCH   3   9
BRANCH   2  12
ATOM     12  N   UNL     1     -17.227  43.251 -11.340  0.00  0.00    +0.000 N 
BRANCH  12  13
ATOM     13  C   UNL     1     -16.045  42.830 -12.094  0.00  0.00    +0.000 C 
BRANCH  13  14
ATOM     14  C   UNL     1     -14.794  42.904 -11.224  0.00  0.00    +0.000 C 
ATOM     15  C   UNL     1     -13.778  43.919 -11.734  0.00  0.00    +0.000 C 
ENDBRANCH  13  14
ENDBRANCH  12  13
BRANCH  12  16
ATOM     16  C   UNL     1     -17.552  44.655 -11.294  0.00  0.00    +0.000 C 
BRANCH  16  17
ATOM     17  C   UNL     1     -17.169  45.341 -12.600  0.00  0.00    +0.000 C 
ATOM     18  C   UNL     1     -16.379  46.625 -12.384  0.00  0.00    +0.000 C 
ENDBRANCH  16  17
ENDBRANCH  12  16
ENDBRANCH   2  12
TORSDOF 6
ENDMDL
MODEL 2
REMARK VINA RESULT:    -4.904      0.113      2.002
REMARK INTER + INTRA:          -7.145
REMARK INTER:                  -6.675
REMARK INTRA:                  -0.470
REMARK UNBOUND:                -0.520
REMARK  Name = 155733072
REMARK  9 active torsions:
REMARK  status: ('A' for Active; 'I' for Inactive)
REMARK    1  A    between atoms: N_2  and  C_5
REMARK    2  A    between atoms: N_2  and  C_6
REMARK    3  A    between atoms: N_2  and  C_9
REMARK    4  A    between atoms: N_4  and  C_17
REMARK    5  A    between atoms: C_5  and  C_7
REMARK    6  A    between atoms: C_6  and  C_8
REMARK    7  A    between atoms: C_7  and  C_11
REMARK    8  A    between atoms: C_8  and  C_12
REMARK    9  A    between atoms: C_10  and  C_14
REMARK                            x       y       z     vdW  Elec       q    Type
REMARK                         _______ _______ _______ _____ _____    ______ ____
ROOT
ATOM      1  N   UNL     1     -17.888  42.218  -9.261  0.00  0.00    +0.000 NA
ATOM      2  C   UNL     1     -18.027  42.262 -10.605  0.00  0.00    +0.000 A 
ATOM      3  C   UNL     1     -18.904  41.464 -11.321  0.00  0.00    +0.000 A 
ATOM      4  C   UNL     1     -19.691  40.563 -10.613  0.00  0.00    +0.000 A 
ATOM      5  C   UNL     1     -18.671  41.330  -8.606  0.00  0.00    +0.000 A 
ATOM      6  C   UNL     1     -19.578  40.488  -9.229  0.00  0.00    +0.000 A 
ENDROOT
BRANCH   3   9
ATOM      7  O   UNL     1     -18.620  40.598 -13.482  0.00  0.00    +0.000 OA
ATOM      8  N   UNL     1     -19.638  42.674 -13.301  0.00  0.00    +0.000 N 
ATOM      9  C   UNL     1     -19.027  41.532 -12.771  0.00  0.00    +0.000 C 
ATOM     10  C   UNL     1     -19.855  42.878 -14.715  0.00  0.00    +0.000 C 
ATOM     11  H   UNL     1     -19.925  43.416 -12.670  0.00  0.00    +0.000 HD
ENDBRANCH   3   9
BRANCH   2  12
ATOM     12  N   UNL     1     -17.228  43.171 -11.313  0.00  0.00    +0.000 N 
BRANCH  12  13
ATOM     13  C   UNL     1     -17.555  44.598 -11.298  0.00  0.00    +0.000 C 
BRANCH  13  14
ATOM     14  C   UNL     1     -17.154  45.258 -12.614  0.00  0.00    +0.000 C 
ATOM     15  C   UNL     1     -16.319  46.516 -12.413  0.00  0.00    +0.000 C 
ENDBRANCH  13  14
ENDBRANCH  12  13
BRANCH  12  16
ATOM     16  C   UNL     1     -16.092  42.731 -12.086  0.00  0.00    +0.000 C 
BRANCH  16  17
ATOM     17  C   UNL     1     -14.819  42.774 -11.249  0.00  0.00    +0.000 C 
ATOM     18  C   UNL     1     -13.821  43.813 -11.743  0.00  0.00    +0.000 C 
ENDBRANCH  16  17
ENDBRANCH  12  16
ENDBRANCH   2  12
TORSDOF 6
ENDMDL
MODEL 3
REMARK VINA RESULT:    -4.422      2.169      2.881
REMARK INTER + INTRA:          -6.493
REMARK INTER:                  -5.872
REMARK INTRA:                  -0.621
REMARK UNBOUND:                -0.520
REMARK  Name = 155733072
REMARK  9 active torsions:
REMARK  status: ('A' for Active; 'I' for Inactive)
REMARK    1  A    between atoms: N_2  and  C_5
REMARK    2  A    between atoms: N_2  and  C_6
REMARK    3  A    between atoms: N_2  and  C_9
REMARK    4  A    between atoms: N_4  and  C_17
REMARK    5  A    between atoms: C_5  and  C_7
REMARK    6  A    between atoms: C_6  and  C_8
REMARK    7  A    between atoms: C_7  and  C_11
REMARK    8  A    between atoms: C_8  and  C_12
REMARK    9  A    between atoms: C_10  and  C_14
REMARK                            x       y       z     vdW  Elec       q    Type
REMARK                         _______ _______ _______ _____ _____    ______ ____
ROOT
ATOM      1  N   UNL     1     -16.174  41.676 -11.587  0.00  0.00    +0.000 NA
ATOM      2  C   UNL     1     -17.072  42.420 -12.272  0.00  0.00    +0.000 A 
ATOM      3  C   UNL     1     -18.134  41.891 -12.986  0.00  0.00    +0.000 A 
ATOM      4  C   UNL     1     -18.287  40.509 -12.998  0.00  0.00    +0.000 A 
ATOM      5  C   UNL     1     -16.355  40.336 -11.621  0.00  0.00    +0.000 A 
ATOM      6  C   UNL     1     -17.384  39.709 -12.305  0.00  0.00    +0.000 A 
ENDROOT
BRANCH   3   9
ATOM      7  O   UNL     1     -20.152  43.069 -13.189  0.00  0.00    +0.000 OA
ATOM      8  N   UNL     1     -18.716  43.110 -15.010  0.00  0.00    +0.000 N 
ATOM      9  C   UNL     1     -19.083  42.719 -13.718  0.00  0.00    +0.000 C 
ATOM     10  C   UNL     1     -19.537  43.950 -15.852  0.00  0.00    +0.000 C 
ATOM     11  H   UNL     1     -17.841  42.769 -15.398  0.00  0.00    +0.000 HD
ENDBRANCH   3   9
BRANCH   2  12
ATOM     12  N   UNL     1     -16.910  43.813 -12.258  0.00  0.00    +0.000 N 
BRANCH  12  13
ATOM     13  C   UNL     1     -17.729  44.635 -11.366  0.00  0.00    +0.000 C 
BRANCH  13  14
ATOM     14  C   UNL     1     -18.264  45.861 -12.100  0.00  0.00    +0.000 C 
ATOM     15  C   UNL     1     -18.111  47.145 -11.295  0.00  0.00    +0.000 C 
ENDBRANCH  13  14
ENDBRANCH  12  13
BRANCH  12  16
ATOM     16  C   UNL     1     -15.964  44.469 -13.127  0.00  0.00    +0.000 C 
BRANCH  16  17
ATOM     17  C   UNL     1     -14.716  44.882 -12.354  0.00  0.00    +0.000 C 
ATOM     18  C   UNL     1     -14.537  46.392 -12.284  0.00  0.00    +0.000 C 
ENDBRANCH  16  17
ENDBRANCH  12  16
ENDBRANCH   2  12
TORSDOF 6
ENDMDL
MODEL 4
REMARK VINA RESULT:    -3.865     12.747     15.131
REMARK INTER + INTRA:          -5.741
REMARK INTER:                  -5.050
REMARK INTRA:                  -0.692
REMARK UNBOUND:                -0.520
REMARK  Name = 155733072
REMARK  9 active torsions:
REMARK  status: ('A' for Active; 'I' for Inactive)
REMARK    1  A    between atoms: N_2  and  C_5
REMARK    2  A    between atoms: N_2  and  C_6
REMARK    3  A    between atoms: N_2  and  C_9
REMARK    4  A    between atoms: N_4  and  C_17
REMARK    5  A    between atoms: C_5  and  C_7
REMARK    6  A    between atoms: C_6  and  C_8
REMARK    7  A    between atoms: C_7  and  C_11
REMARK    8  A    between atoms: C_8  and  C_12
REMARK    9  A    between atoms: C_10  and  C_14
REMARK                            x       y       z     vdW  Elec       q    Type
REMARK                         _______ _______ _______ _____ _____    ______ ____
ROOT
ATOM      1  N   UNL     1     -32.867  42.773 -14.799  0.00  0.00    +0.000 NA
ATOM      2  C   UNL     1     -32.099  43.698 -15.417  0.00  0.00    +0.000 A 
ATOM      3  C   UNL     1     -31.645  44.860 -14.814  0.00  0.00    +0.000 A 
ATOM      4  C   UNL     1     -32.002  45.087 -13.489  0.00  0.00    +0.000 A 
ATOM      5  C   UNL     1     -33.193  43.028 -13.512  0.00  0.00    +0.000 A 
ATOM      6  C   UNL     1     -32.791  44.158 -12.818  0.00  0.00    +0.000 A 
ENDROOT
BRANCH   3   9
ATOM      7  O   UNL     1     -31.349  46.742 -16.181  0.00  0.00    +0.000 OA
ATOM      8  N   UNL     1     -29.436  45.722 -15.357  0.00  0.00    +0.000 N 
ATOM      9  C   UNL     1     -30.822  45.839 -15.508  0.00  0.00    +0.000 C 
ATOM     10  C   UNL     1     -28.488  46.630 -15.963  0.00  0.00    +0.000 C 
ATOM     11  H   UNL     1     -29.064  44.947 -14.817  0.00  0.00    +0.000 HD
ENDBRANCH   3   9
BRANCH   2  12
ATOM     12  N   UNL     1     -31.745  43.463 -16.754  0.00  0.00    +0.000 N 
BRANCH  12  13
ATOM     13  C   UNL     1     -32.592  43.971 -17.834  0.00  0.00    +0.000 C 
BRANCH  13  14
ATOM     14  C   UNL     1     -31.743  44.566 -18.953  0.00  0.00    +0.000 C 
ATOM     15  C   UNL     1     -32.160  44.078 -20.335  0.00  0.00    +0.000 C 
ENDBRANCH  13  14
ENDBRANCH  12  13
BRANCH  12  16
ATOM     16  C   UNL     1     -30.567  42.705 -17.099  0.00  0.00    +0.000 C 
BRANCH  16  17
ATOM     17  C   UNL     1     -30.913  41.235 -17.305  0.00  0.00    +0.000 C 
ATOM     18  C   UNL     1     -31.003  40.850 -18.776  0.00  0.00    +0.000 C 
ENDBRANCH  16  17
ENDBRANCH  12  16
ENDBRANCH   2  12
TORSDOF 6
ENDMDL
MODEL 5
REMARK VINA RESULT:    -3.830     14.328     16.440
REMARK INTER + INTRA:          -5.694
REMARK INTER:                  -5.006
REMARK INTRA:                  -0.688
REMARK UNBOUND:                -0.520
REMARK  Name = 155733072
REMARK  9 active torsions:
REMARK  status: ('A' for Active; 'I' for Inactive)
REMARK    1  A    between atoms: N_2  and  C_5
REMARK    2  A    between atoms: N_2  and  C_6
REMARK    3  A    between atoms: N_2  and  C_9
REMARK    4  A    between atoms: N_4  and  C_17
REMARK    5  A    between atoms: C_5  and  C_7
REMARK    6  A    between atoms: C_6  and  C_8
REMARK    7  A    between atoms: C_7  and  C_11
REMARK    8  A    between atoms: C_8  and  C_12
REMARK    9  A    between atoms: C_10  and  C_14
REMARK                            x       y       z     vdW  Elec       q    Type
REMARK                         _______ _______ _______ _____ _____    ______ ____
ROOT
ATOM      1  N   UNL     1     -32.289  41.934 -16.376  0.00  0.00    +0.000 NA
ATOM      2  C   UNL     1     -32.564  43.002 -15.594  0.00  0.00    +0.000 A 
ATOM      3  C   UNL     1     -31.835  44.181 -15.607  0.00  0.00    +0.000 A 
ATOM      4  C   UNL     1     -30.755  44.270 -16.480  0.00  0.00    +0.000 A 
ATOM      5  C   UNL     1     -31.233  42.057 -17.211  0.00  0.00    +0.000 A 
ATOM      6  C   UNL     1     -30.442  43.191 -17.301  0.00  0.00    +0.000 A 
ENDROOT
BRANCH   3   9
ATOM      7  O   UNL     1     -32.947  46.190 -15.132  0.00  0.00    +0.000 OA
ATOM      8  N   UNL     1     -31.546  45.343 -13.489  0.00  0.00    +0.000 N 
ATOM      9  C   UNL     1     -32.153  45.314 -14.749  0.00  0.00    +0.000 C 
ATOM     10  C   UNL     1     -31.779  46.386 -12.516  0.00  0.00    +0.000 C 
ATOM     11  H   UNL     1     -30.885  44.612 -13.244  0.00  0.00    +0.000 HD
ENDBRANCH   3   9
BRANCH   2  12
ATOM     12  N   UNL     1     -33.652  42.905 -14.715  0.00  0.00    +0.000 N 
BRANCH  12  13
ATOM     13  C   UNL     1     -33.456  42.367 -13.368  0.00  0.00    +0.000 C 
BRANCH  13  14
ATOM     14  C   UNL     1     -34.448  42.988 -12.389  0.00  0.00    +0.000 C 
ATOM     15  C   UNL     1     -35.220  41.947 -11.589  0.00  0.00    +0.000 C 
ENDBRANCH  13  14
ENDBRANCH  12  13
BRANCH  12  16
ATOM     16  C   UNL     1     -34.980  43.302 -15.114  0.00  0.00    +0.000 C 
BRANCH  16  17
ATOM     17  C   UNL     1     -35.721  42.137 -15.760  0.00  0.00    +0.000 C 
ATOM     18  C   UNL     1     -36.886  41.638 -14.916  0.00  0.00    +0.000 C 
ENDBRANCH  16  17
ENDBRANCH  12  16
ENDBRANCH   2  12
TORSDOF 6
ENDMDL
