MODEL 1
REMARK VINA RESULT:    -6.182      0.000      0.000
REMARK INTER + INTRA:          -6.677
REMARK INTER:                  -6.905
REMARK INTRA:                   0.228
REMARK UNBOUND:                 0.228
REMARK  Name = 156111910
REMARK  2 active torsions:
REMARK  status: ('A' for Active; 'I' for Inactive)
REMARK    1  A    between atoms: C_10  and  C_11
REMARK    2  A    between atoms: C_16  and  C_17
REMARK                            x       y       z     vdW  Elec       q    Type
REMARK                         _______ _______ _______ _____ _____    ______ ____
ROOT
ATOM      1  O   UNL     1     -19.210  45.754 -15.982  0.00  0.00    +0.000 OA
ATOM      2  N   UNL     1     -19.196  41.802 -14.202  0.00  0.00    +0.000 NA
ATOM      3  N   UNL     1     -19.584  43.434 -15.867  0.00  0.00    +0.000 N 
ATOM      4  C   UNL     1     -18.208  42.466 -12.097  0.00  0.00    +0.000 A 
ATOM      5  C   UNL     1     -18.149  43.784 -12.533  0.00  0.00    +0.000 A 
ATOM      6  C   UNL     1     -18.736  41.520 -12.962  0.00  0.00    +0.000 A 
ATOM      7  C   UNL     1     -18.612  44.113 -13.803  0.00  0.00    +0.000 A 
ATOM      8  C   UNL     1     -19.121  43.093 -14.591  0.00  0.00    +0.000 A 
ATOM      9  C   UNL     1     -19.601  44.699 -16.465  0.00  0.00    +0.000 C 
ATOM     10  H   UNL     1     -19.946  42.645 -16.398  0.00  0.00    +0.000 HD
ENDROOT
BRANCH   4  17
ATOM     11  O   UNL     1     -16.574  42.391 -10.465  0.00  0.00    +0.000 OA
ATOM     12  N   UNL     1     -18.607  41.400  -9.934  0.00  0.00    +0.000 N 
ATOM     13  C   UNL     1     -19.474  40.405  -7.980  0.00  0.00    +0.000 C 
ATOM     14  C   UNL     1     -20.329  39.981  -9.170  0.00  0.00    +0.000 C 
ATOM     15  C   UNL     1     -18.194  40.899  -8.632  0.00  0.00    +0.000 C 
ATOM     16  C   UNL     1     -19.983  41.013 -10.233  0.00  0.00    +0.000 C 
ATOM     17  C   UNL     1     -17.728  42.086 -10.760  0.00  0.00    +0.000 C 
ENDBRANCH   4  17
BRANCH   9  18
ATOM     18  C   UNL     1     -20.176  44.644 -17.841  0.00  0.00    +0.000 C 
ATOM     19  C   UNL     1     -21.270  43.918 -18.092  0.00  0.00    +0.000 C 
ENDBRANCH   9  18
TORSDOF 2
ENDMDL
MODEL 2
REMARK VINA RESULT:    -5.892      1.955      7.620
REMARK INTER + INTRA:          -6.353
REMARK INTER:                  -6.304
REMARK INTRA:                  -0.049
REMARK UNBOUND:                 0.228
REMARK  Name = 156111910
REMARK  2 active torsions:
REMARK  status: ('A' for Active; 'I' for Inactive)
REMARK    1  A    between atoms: C_10  and  C_11
REMARK    2  A    between atoms: C_16  and  C_17
REMARK                            x       y       z     vdW  Elec       q    Type
REMARK                         _______ _______ _______ _____ _____    ______ ____
ROOT
ATOM      1  O   UNL     1     -17.973  42.583 -11.765  0.00  0.00    +0.000 OA
ATOM      2  N   UNL     1     -20.530  42.694 -15.264  0.00  0.00    +0.000 NA
ATOM      3  N   UNL     1     -19.647  41.841 -13.243  0.00  0.00    +0.000 N 
ATOM      4  C   UNL     1     -19.653  44.761 -16.163  0.00  0.00    +0.000 A 
ATOM      5  C   UNL     1     -18.771  44.860 -15.094  0.00  0.00    +0.000 A 
ATOM      6  C   UNL     1     -20.505  43.668 -16.202  0.00  0.00    +0.000 A 
ATOM      7  C   UNL     1     -18.767  43.877 -14.109  0.00  0.00    +0.000 A 
ATOM      8  C   UNL     1     -19.658  42.825 -14.240  0.00  0.00    +0.000 A 
ATOM      9  C   UNL     1     -18.834  41.781 -12.106  0.00  0.00    +0.000 C 
ATOM     10  H   UNL     1     -20.322  41.095 -13.394  0.00  0.00    +0.000 HD
ENDROOT
BRANCH   4  17
ATOM     11  O   UNL     1     -20.185  46.869 -16.945  0.00  0.00    +0.000 OA
ATOM     12  N   UNL     1     -19.152  45.440 -18.457  0.00  0.00    +0.000 N 
ATOM     13  C   UNL     1     -18.365  45.694 -20.665  0.00  0.00    +0.000 C 
ATOM     14  C   UNL     1     -18.498  44.206 -20.358  0.00  0.00    +0.000 C 
ATOM     15  C   UNL     1     -19.220  46.347 -19.592  0.00  0.00    +0.000 C 
ATOM     16  C   UNL     1     -18.545  44.167 -18.838  0.00  0.00    +0.000 C 
ATOM     17  C   UNL     1     -19.682  45.782 -17.222  0.00  0.00    +0.000 C 
ENDBRANCH   4  17
BRANCH   9  18
ATOM     18  C   UNL     1     -19.130  40.569 -11.288  0.00  0.00    +0.000 C 
ATOM     19  C   UNL     1     -18.926  39.345 -11.787  0.00  0.00    +0.000 C 
ENDBRANCH   9  18
TORSDOF 2
ENDMDL
MODEL 3
REMARK VINA RESULT:    -5.689      1.552      7.012
REMARK INTER + INTRA:          -6.126
REMARK INTER:                  -6.508
REMARK INTRA:                   0.382
REMARK UNBOUND:                 0.228
REMARK  Name = 156111910
REMARK  2 active torsions:
REMARK  status: ('A' for Active; 'I' for Inactive)
REMARK    1  A    between atoms: C_10  and  C_11
REMARK    2  A    between atoms: C_16  and  C_17
REMARK                            x       y       z     vdW  Elec       q    Type
REMARK                         _______ _______ _______ _____ _____    ______ ____
ROOT
ATOM      1  O   UNL     1     -18.972  39.935 -11.453  0.00  0.00    +0.000 OA
ATOM      2  N   UNL     1     -18.182  44.111 -12.306  0.00  0.00    +0.000 NA
ATOM      3  N   UNL     1     -18.260  42.133 -11.011  0.00  0.00    +0.000 N 
ATOM      4  C   UNL     1     -18.955  44.060 -14.597  0.00  0.00    +0.000 A 
ATOM      5  C   UNL     1     -19.261  42.710 -14.471  0.00  0.00    +0.000 A 
ATOM      6  C   UNL     1     -18.422  44.710 -13.494  0.00  0.00    +0.000 A 
ATOM      7  C   UNL     1     -19.028  42.059 -13.264  0.00  0.00    +0.000 A 
ATOM      8  C   UNL     1     -18.492  42.798 -12.222  0.00  0.00    +0.000 A 
ATOM      9  C   UNL     1     -18.506  40.790 -10.710  0.00  0.00    +0.000 C 
ATOM     10  H   UNL     1     -17.867  42.727 -10.285  0.00  0.00    +0.000 HD
ENDROOT
BRANCH   4  17
ATOM     11  O   UNL     1     -18.306  45.536 -16.252  0.00  0.00    +0.000 OA
ATOM     12  N   UNL     1     -20.397  44.557 -16.506  0.00  0.00    +0.000 N 
ATOM     13  C   UNL     1     -22.031  44.622 -18.205  0.00  0.00    +0.000 C 
ATOM     14  C   UNL     1     -22.673  44.102 -16.923  0.00  0.00    +0.000 C 
ATOM     15  C   UNL     1     -20.761  45.291 -17.708  0.00  0.00    +0.000 C 
ATOM     16  C   UNL     1     -21.479  43.671 -16.085  0.00  0.00    +0.000 C 
ATOM     17  C   UNL     1     -19.190  44.778 -15.859  0.00  0.00    +0.000 C 
ENDBRANCH   4  17
BRANCH   9  18
ATOM     18  C   UNL     1     -18.122  40.467  -9.305  0.00  0.00    +0.000 C 
ATOM     19  C   UNL     1     -18.904  40.835  -8.284  0.00  0.00    +0.000 C 
ENDBRANCH   9  18
TORSDOF 2
ENDMDL
MODEL 4
REMARK VINA RESULT:    -5.497      3.853      5.320
REMARK INTER + INTRA:          -5.911
REMARK INTER:                  -5.780
REMARK INTRA:                  -0.132
REMARK UNBOUND:                 0.228
REMARK  Name = 156111910
REMARK  2 active torsions:
REMARK  status: ('A' for Active; 'I' for Inactive)
REMARK    1  A    between atoms: C_10  and  C_11
REMARK    2  A    between atoms: C_16  and  C_17
REMARK                            x       y       z     vdW  Elec       q    Type
REMARK                         _______ _______ _______ _____ _____    ______ ____
ROOT
ATOM      1  O   UNL     1     -17.215  48.499 -11.125  0.00  0.00    +0.000 OA
ATOM      2  N   UNL     1     -15.565  44.696 -12.390  0.00  0.00    +0.000 NA
ATOM      3  N   UNL     1     -15.532  46.938 -11.642  0.00  0.00    +0.000 N 
ATOM      4  C   UNL     1     -17.689  43.599 -12.758  0.00  0.00    +0.000 A 
ATOM      5  C   UNL     1     -18.360  44.754 -12.375  0.00  0.00    +0.000 A 
ATOM      6  C   UNL     1     -16.303  43.620 -12.748  0.00  0.00    +0.000 A 
ATOM      7  C   UNL     1     -17.635  45.881 -11.999  0.00  0.00    +0.000 A 
ATOM      8  C   UNL     1     -16.252  45.799 -12.023  0.00  0.00    +0.000 A 
ATOM      9  C   UNL     1     -16.038  48.176 -11.231  0.00  0.00    +0.000 C 
ATOM     10  H   UNL     1     -14.523  46.818 -11.680  0.00  0.00    +0.000 HD
ENDROOT
BRANCH   4  17
ATOM     11  O   UNL     1     -18.857  42.350 -14.313  0.00  0.00    +0.000 OA
ATOM     12  N   UNL     1     -18.589  41.393 -12.214  0.00  0.00    +0.000 N 
ATOM     13  C   UNL     1     -19.143  39.292 -11.297  0.00  0.00    +0.000 C 
ATOM     14  C   UNL     1     -18.873  40.270 -10.159  0.00  0.00    +0.000 C 
ATOM     15  C   UNL     1     -19.381  40.205 -12.488  0.00  0.00    +0.000 C 
ATOM     16  C   UNL     1     -18.098  41.390 -10.837  0.00  0.00    +0.000 C 
ATOM     17  C   UNL     1     -18.425  42.391 -13.162  0.00  0.00    +0.000 C 
ENDBRANCH   4  17
BRANCH   9  18
ATOM     18  C   UNL     1     -14.941  49.134 -10.909  0.00  0.00    +0.000 C 
ATOM     19  C   UNL     1     -14.227  48.999  -9.787  0.00  0.00    +0.000 C 
ENDBRANCH   9  18
TORSDOF 2
ENDMDL
MODEL 5
REMARK VINA RESULT:    -5.496      2.599      7.999
REMARK INTER + INTRA:          -5.910
REMARK INTER:                  -5.751
REMARK INTRA:                  -0.160
REMARK UNBOUND:                 0.228
REMARK  Name = 156111910
REMARK  2 active torsions:
REMARK  status: ('A' for Active; 'I' for Inactive)
REMARK    1  A    between atoms: C_10  and  C_11
REMARK    2  A    between atoms: C_16  and  C_17
REMARK                            x       y       z     vdW  Elec       q    Type
REMARK                         _______ _______ _______ _____ _____    ______ ____
ROOT
ATOM      1  O   UNL     1     -18.141  43.501 -13.031  0.00  0.00    +0.000 OA
ATOM      2  N   UNL     1     -20.599  42.672 -16.503  0.00  0.00    +0.000 NA
ATOM      3  N   UNL     1     -19.564  42.245 -14.421  0.00  0.00    +0.000 N 
ATOM      4  C   UNL     1     -20.237  44.800 -17.594  0.00  0.00    +0.000 A 
ATOM      5  C   UNL     1     -19.420  45.206 -16.545  0.00  0.00    +0.000 A 
ATOM      6  C   UNL     1     -20.798  43.534 -17.526  0.00  0.00    +0.000 A 
ATOM      7  C   UNL     1     -19.191  44.347 -15.475  0.00  0.00    +0.000 A 
ATOM      8  C   UNL     1     -19.799  43.102 -15.503  0.00  0.00    +0.000 A 
ATOM      9  C   UNL     1     -18.776  42.486 -13.290  0.00  0.00    +0.000 C 
ATOM     10  H   UNL     1     -20.036  41.347 -14.497  0.00  0.00    +0.000 HD
ENDROOT
BRANCH   4  17
ATOM     11  O   UNL     1     -19.668  45.694 -19.647  0.00  0.00    +0.000 OA
ATOM     12  N   UNL     1     -21.654  46.449 -18.709  0.00  0.00    +0.000 N 
ATOM     13  C   UNL     1     -23.369  47.884 -19.459  0.00  0.00    +0.000 C 
ATOM     14  C   UNL     1     -23.480  47.732 -17.945  0.00  0.00    +0.000 C 
ATOM     15  C   UNL     1     -21.951  47.422 -19.749  0.00  0.00    +0.000 C 
ATOM     16  C   UNL     1     -22.670  46.476 -17.660  0.00  0.00    +0.000 C 
ATOM     17  C   UNL     1     -20.498  45.684 -18.740  0.00  0.00    +0.000 C 
ENDBRANCH   4  17
BRANCH   9  18
ATOM     18  C   UNL     1     -18.781  41.318 -12.363  0.00  0.00    +0.000 C 
ATOM     19  C   UNL     1     -18.490  40.092 -12.812  0.00  0.00    +0.000 C 
ENDBRANCH   9  18
TORSDOF 2
ENDMDL
