MODEL 1
REMARK VINA RESULT:    -6.871      0.000      0.000
REMARK INTER + INTRA:          -7.760
REMARK INTER:                  -7.675
REMARK INTRA:                  -0.085
REMARK UNBOUND:                -0.085
REMARK  Name = 156213722
REMARK  3 active torsions:
REMARK  status: ('A' for Active; 'I' for Inactive)
REMARK    1  A    between atoms: O_3  and  N_6
REMARK    2  A    between atoms: N_5  and  C_10
REMARK    3  A    between atoms: C_7  and  C_12
REMARK                            x       y       z     vdW  Elec       q    Type
REMARK                         _______ _______ _______ _____ _____    ______ ____
ROOT
ATOM      1  F   UNL     1     -23.064  41.327  -7.240  0.00  0.00    +0.000 F 
ATOM      2  N   UNL     1     -19.614  42.413  -6.898  0.00  0.00    +0.000 NA
ATOM      3  C   UNL     1     -19.793  40.868  -8.748  0.00  0.00    +0.000 A 
ATOM      4  C   UNL     1     -21.158  40.736  -8.515  0.00  0.00    +0.000 A 
ATOM      5  C   UNL     1     -21.752  41.443  -7.475  0.00  0.00    +0.000 A 
ATOM      6  C   UNL     1     -20.943  42.261  -6.702  0.00  0.00    +0.000 A 
ATOM      7  C   UNL     1     -19.073  41.711  -7.919  0.00  0.00    +0.000 A 
ENDROOT
BRANCH   3  10
ATOM      8  O   UNL     1     -17.912  40.211  -9.993  0.00  0.00    +0.000 OA
ATOM      9  N   UNL     1     -19.956  39.362 -10.640  0.00  0.00    +0.000 N 
ATOM     10  C   UNL     1     -19.145  40.143  -9.826  0.00  0.00    +0.000 C 
ATOM     11  H   UNL     1     -20.944  39.181 -10.508  0.00  0.00    +0.000 HD
BRANCH   9  12
ATOM     12  O   UNL     1     -19.322  38.648 -11.666  0.00  0.00    +0.000 OA
ATOM     13  H   UNL     1     -18.784  38.029 -11.143  0.00  0.00    +0.000 HD
ENDBRANCH   9  12
ENDBRANCH   3  10
BRANCH   6  14
ATOM     14  N   UNL     1     -21.559  42.976  -5.646  0.00  0.00    +0.000 N 
ATOM     15  H   UNL     1     -21.138  43.846  -5.345  0.00  0.00    +0.000 HD
ATOM     16  H   UNL     1     -22.087  42.436  -4.971  0.00  0.00    +0.000 HD
ENDBRANCH   6  14
TORSDOF 3
ENDMDL
MODEL 2
REMARK VINA RESULT:    -6.547      1.532      1.809
REMARK INTER + INTRA:          -7.397
REMARK INTER:                  -7.313
REMARK INTRA:                  -0.084
REMARK UNBOUND:                -0.085
REMARK  Name = 156213722
REMARK  3 active torsions:
REMARK  status: ('A' for Active; 'I' for Inactive)
REMARK    1  A    between atoms: O_3  and  N_6
REMARK    2  A    between atoms: N_5  and  C_10
REMARK    3  A    between atoms: C_7  and  C_12
REMARK                            x       y       z     vdW  Elec       q    Type
REMARK                         _______ _______ _______ _____ _____    ______ ____
ROOT
ATOM      1  F   UNL     1     -22.161  40.536  -7.915  0.00  0.00    +0.000 F 
ATOM      2  N   UNL     1     -18.870  42.076  -7.915  0.00  0.00    +0.000 NA
ATOM      3  C   UNL     1     -18.997  40.446  -9.695  0.00  0.00    +0.000 A 
ATOM      4  C   UNL     1     -20.307  40.147  -9.338  0.00  0.00    +0.000 A 
ATOM      5  C   UNL     1     -20.901  40.812  -8.270  0.00  0.00    +0.000 A 
ATOM      6  C   UNL     1     -20.146  41.760  -7.596  0.00  0.00    +0.000 A 
ATOM      7  C   UNL     1     -18.328  41.409  -8.959  0.00  0.00    +0.000 A 
ENDROOT
BRANCH   3  10
ATOM      8  O   UNL     1     -18.968  38.928 -11.488  0.00  0.00    +0.000 OA
ATOM      9  N   UNL     1     -17.035  40.116 -11.077  0.00  0.00    +0.000 N 
ATOM     10  C   UNL     1     -18.351  39.768 -10.805  0.00  0.00    +0.000 C 
ATOM     11  H   UNL     1     -16.502  40.854 -10.632  0.00  0.00    +0.000 HD
BRANCH   9  12
ATOM     12  O   UNL     1     -16.422  39.474 -12.163  0.00  0.00    +0.000 OA
ATOM     13  H   UNL     1     -16.661  40.082 -12.883  0.00  0.00    +0.000 HD
ENDBRANCH   9  12
ENDBRANCH   3  10
BRANCH   6  14
ATOM     14  N   UNL     1     -20.760  42.430  -6.511  0.00  0.00    +0.000 N 
ATOM     15  H   UNL     1     -20.208  42.609  -5.682  0.00  0.00    +0.000 HD
ATOM     16  H   UNL     1     -21.762  42.321  -6.409  0.00  0.00    +0.000 HD
ENDBRANCH   6  14
TORSDOF 3
ENDMDL
MODEL 3
REMARK VINA RESULT:    -6.371      3.346      4.948
REMARK INTER + INTRA:          -7.201
REMARK INTER:                  -7.116
REMARK INTRA:                  -0.085
REMARK UNBOUND:                -0.085
REMARK  Name = 156213722
REMARK  3 active torsions:
REMARK  status: ('A' for Active; 'I' for Inactive)
REMARK    1  A    between atoms: O_3  and  N_6
REMARK    2  A    between atoms: N_5  and  C_10
REMARK    3  A    between atoms: C_7  and  C_12
REMARK                            x       y       z     vdW  Elec       q    Type
REMARK                         _______ _______ _______ _____ _____    ______ ____
ROOT
ATOM      1  F   UNL     1     -17.670  42.400  -9.010  0.00  0.00    +0.000 F 
ATOM      2  N   UNL     1     -20.013  39.659  -9.464  0.00  0.00    +0.000 NA
ATOM      3  C   UNL     1     -20.935  41.258  -7.903  0.00  0.00    +0.000 A 
ATOM      4  C   UNL     1     -19.799  42.050  -8.031  0.00  0.00    +0.000 A 
ATOM      5  C   UNL     1     -18.769  41.648  -8.876  0.00  0.00    +0.000 A 
ATOM      6  C   UNL     1     -18.924  40.455  -9.564  0.00  0.00    +0.000 A 
ATOM      7  C   UNL     1     -20.992  40.084  -8.634  0.00  0.00    +0.000 A 
ENDROOT
BRANCH   3  10
ATOM      8  O   UNL     1     -23.113  41.045  -7.050  0.00  0.00    +0.000 OA
ATOM      9  N   UNL     1     -21.790  42.712  -6.163  0.00  0.00    +0.000 N 
ATOM     10  C   UNL     1     -22.026  41.652  -7.028  0.00  0.00    +0.000 C 
ATOM     11  H   UNL     1     -20.907  43.189  -6.020  0.00  0.00    +0.000 HD
BRANCH   9  12
ATOM     12  O   UNL     1     -22.840  43.074  -5.307  0.00  0.00    +0.000 OA
ATOM     13  H   UNL     1     -22.385  43.037  -4.448  0.00  0.00    +0.000 HD
ENDBRANCH   9  12
ENDBRANCH   3  10
BRANCH   6  14
ATOM     14  N   UNL     1     -17.869  40.056 -10.421  0.00  0.00    +0.000 N 
ATOM     15  H   UNL     1     -18.106  39.647 -11.316  0.00  0.00    +0.000 HD
ATOM     16  H   UNL     1     -16.996  39.786  -9.983  0.00  0.00    +0.000 HD
ENDBRANCH   6  14
TORSDOF 3
ENDMDL
MODEL 4
REMARK VINA RESULT:    -6.052      2.013      2.533
REMARK INTER + INTRA:          -6.845
REMARK INTER:                  -6.759
REMARK INTRA:                  -0.085
REMARK UNBOUND:                -0.085
REMARK  Name = 156213722
REMARK  3 active torsions:
REMARK  status: ('A' for Active; 'I' for Inactive)
REMARK    1  A    between atoms: O_3  and  N_6
REMARK    2  A    between atoms: N_5  and  C_10
REMARK    3  A    between atoms: C_7  and  C_12
REMARK                            x       y       z     vdW  Elec       q    Type
REMARK                         _______ _______ _______ _____ _____    ______ ____
ROOT
ATOM      1  F   UNL     1     -19.601  42.691  -6.403  0.00  0.00    +0.000 F 
ATOM      2  N   UNL     1     -21.427  40.387  -8.538  0.00  0.00    +0.000 NA
ATOM      3  C   UNL     1     -19.139  40.550  -9.300  0.00  0.00    +0.000 A 
ATOM      4  C   UNL     1     -18.856  41.453  -8.280  0.00  0.00    +0.000 A 
ATOM      5  C   UNL     1     -19.858  41.823  -7.389  0.00  0.00    +0.000 A 
ATOM      6  C   UNL     1     -21.116  41.267  -7.560  0.00  0.00    +0.000 A 
ATOM      7  C   UNL     1     -20.427  40.051  -9.384  0.00  0.00    +0.000 A 
ENDROOT
BRANCH   3  10
ATOM      8  O   UNL     1     -18.346  39.275 -11.107  0.00  0.00    +0.000 OA
ATOM      9  N   UNL     1     -16.883  40.782 -10.154  0.00  0.00    +0.000 N 
ATOM     10  C   UNL     1     -18.114  40.144 -10.245  0.00  0.00    +0.000 C 
ATOM     11  H   UNL     1     -16.651  41.560  -9.548  0.00  0.00    +0.000 HD
BRANCH   9  12
ATOM     12  O   UNL     1     -15.904  40.401 -11.083  0.00  0.00    +0.000 OA
ATOM     13  H   UNL     1     -16.232  39.521 -11.333  0.00  0.00    +0.000 HD
ENDBRANCH   9  12
ENDBRANCH   3  10
BRANCH   6  14
ATOM     14  N   UNL     1     -22.127  41.651  -6.646  0.00  0.00    +0.000 N 
ATOM     15  H   UNL     1     -23.040  41.222  -6.731  0.00  0.00    +0.000 HD
ATOM     16  H   UNL     1     -22.068  42.586  -6.259  0.00  0.00    +0.000 HD
ENDBRANCH   6  14
TORSDOF 3
ENDMDL
MODEL 5
REMARK VINA RESULT:    -5.491      3.414      5.317
REMARK INTER + INTRA:          -6.218
REMARK INTER:                  -6.136
REMARK INTRA:                  -0.082
REMARK UNBOUND:                -0.085
REMARK  Name = 156213722
REMARK  3 active torsions:
REMARK  status: ('A' for Active; 'I' for Inactive)
REMARK    1  A    between atoms: O_3  and  N_6
REMARK    2  A    between atoms: N_5  and  C_10
REMARK    3  A    between atoms: C_7  and  C_12
REMARK                            x       y       z     vdW  Elec       q    Type
REMARK                         _______ _______ _______ _____ _____    ______ ____
ROOT
ATOM      1  F   UNL     1     -16.345  42.801 -10.985  0.00  0.00    +0.000 F 
ATOM      2  N   UNL     1     -18.420  39.825 -11.190  0.00  0.00    +0.000 NA
ATOM      3  C   UNL     1     -19.144  41.185  -9.328  0.00  0.00    +0.000 A 
ATOM      4  C   UNL     1     -18.156  42.120  -9.617  0.00  0.00    +0.000 A 
ATOM      5  C   UNL     1     -17.300  41.909 -10.693  0.00  0.00    +0.000 A 
ATOM      6  C   UNL     1     -17.472  40.756 -11.442  0.00  0.00    +0.000 A 
ATOM      7  C   UNL     1     -19.233  40.065 -10.137  0.00  0.00    +0.000 A 
ENDROOT
BRANCH   3  10
ATOM      8  O   UNL     1     -21.160  40.810  -8.182  0.00  0.00    +0.000 OA
ATOM      9  N   UNL     1     -19.618  42.201  -7.180  0.00  0.00    +0.000 N 
ATOM     10  C   UNL     1     -20.052  41.378  -8.211  0.00  0.00    +0.000 C 
ATOM     11  H   UNL     1     -18.699  42.617  -7.087  0.00  0.00    +0.000 HD
BRANCH   9  12
ATOM     12  O   UNL     1     -20.490  42.367  -6.094  0.00  0.00    +0.000 OA
ATOM     13  H   UNL     1     -21.314  42.586  -6.563  0.00  0.00    +0.000 HD
ENDBRANCH   9  12
ENDBRANCH   3  10
BRANCH   6  14
ATOM     14  N   UNL     1     -16.595  40.552 -12.535  0.00  0.00    +0.000 N 
ATOM     15  H   UNL     1     -16.989  40.249 -13.417  0.00  0.00    +0.000 HD
ATOM     16  H   UNL     1     -15.641  40.291 -12.318  0.00  0.00    +0.000 HD
ENDBRANCH   6  14
TORSDOF 3
ENDMDL
