MODEL 1
REMARK VINA RESULT:    -6.075      0.000      0.000
REMARK INTER + INTRA:         -11.543
REMARK INTER:                  -9.982
REMARK INTRA:                  -1.561
REMARK UNBOUND:                -1.561
REMARK  Name = 156301266
REMARK  14 active torsions:
REMARK  status: ('A' for Active; 'I' for Inactive)
REMARK    1  A    between atoms: N_2  and  C_12
REMARK    2  A    between atoms: N_2  and  C_18
REMARK    3  A    between atoms: N_3  and  C_14
REMARK    4  A    between atoms: C_6  and  C_7
REMARK    5  A    between atoms: C_6  and  C_9
REMARK    6  A    between atoms: C_7  and  C_10
REMARK    7  A    between atoms: C_8  and  C_11
REMARK    8  A    between atoms: C_8  and  C_12
REMARK    9  A    between atoms: C_9  and  C_15
REMARK   10  A    between atoms: C_10  and  C_14
REMARK   11  A    between atoms: C_11  and  C_13
REMARK   12  A    between atoms: C_13  and  C_16
REMARK   13  A    between atoms: C_17  and  C_20
REMARK   14  A    between atoms: C_19  and  C_21
REMARK                            x       y       z     vdW  Elec       q    Type
REMARK                         _______ _______ _______ _____ _____    ______ ____
ROOT
ATOM      1  C   UNL     1     -18.358  42.300 -13.705  0.00  0.00    +0.000 C 
ENDROOT
BRANCH   1   2
ATOM      2  C   UNL     1     -18.565  43.610 -12.939  0.00  0.00    +0.000 C 
BRANCH   2   3
ATOM      3  C   UNL     1     -18.266  44.867 -13.774  0.00  0.00    +0.000 C 
BRANCH   3   5
ATOM      4  C   UNL     1     -16.828  46.799 -12.985  0.00  0.00    +0.000 C 
ATOM      5  C   UNL     1     -16.923  45.530 -13.477  0.00  0.00    +0.000 C 
BRANCH   5   6
ATOM      6  C   UNL     1     -15.723  44.718 -13.737  0.00  0.00    +0.000 C 
ATOM      7  C   UNL     1     -15.066  43.921 -12.878  0.00  0.00    +0.000 C 
ATOM      8  C   UNL     1     -15.477  43.728 -11.453  0.00  0.00    +0.000 C 
ENDBRANCH   5   6
BRANCH   4   9
ATOM      9  C   UNL     1     -15.505  47.490 -12.660  0.00  0.00    +0.000 C 
BRANCH   9  10
ATOM     10  C   UNL     1     -15.158  47.398 -11.171  0.00  0.00    +0.000 C 
ATOM     11  C   UNL     1     -13.692  47.054 -10.965  0.00  0.00    +0.000 C 
ENDBRANCH   9  10
ENDBRANCH   4   9
BRANCH   4  12
ATOM     12  C   UNL     1     -18.030  47.685 -12.696  0.00  0.00    +0.000 C 
BRANCH  12  13
ATOM     13  N   UNL     1     -18.644  47.384 -11.405  0.00  0.00    +0.000 NA
ATOM     14  C   UNL     1     -18.871  48.604 -10.644  0.00  0.00    +0.000 C 
ATOM     15  H   UNL     1     -18.027  46.774 -10.870  0.00  0.00    +0.000 HD
ENDBRANCH  12  13
ENDBRANCH   4  12
ENDBRANCH   3   5
ENDBRANCH   2   3
ENDBRANCH   1   2
BRANCH   1  16
ATOM     16  C   UNL     1     -18.583  41.071 -12.829  0.00  0.00    +0.000 C 
BRANCH  16  18
ATOM     17  O   UNL     1     -19.307  39.251 -10.729  0.00  0.00    +0.000 OA
ATOM     18  N   UNL     1     -18.974  41.417 -11.490  0.00  0.00    +0.000 N 
ATOM     19  C   UNL     1     -19.309  40.464 -10.535  0.00  0.00    +0.000 C 
ATOM     20  H   UNL     1     -19.047  42.405 -11.277  0.00  0.00    +0.000 HD
BRANCH  19  23
ATOM     21  N   UNL     1     -19.170  42.283  -7.239  0.00  0.00    +0.000 NA
ATOM     22  N   UNL     1     -20.773  42.488  -5.489  0.00  0.00    +0.000 N 
ATOM     23  C   UNL     1     -19.717  40.985  -9.206  0.00  0.00    +0.000 A 
ATOM     24  C   UNL     1     -20.971  40.699  -8.678  0.00  0.00    +0.000 A 
ATOM     25  C   UNL     1     -18.861  41.775  -8.454  0.00  0.00    +0.000 A 
ATOM     26  C   UNL     1     -21.325  41.204  -7.431  0.00  0.00    +0.000 A 
ATOM     27  C   UNL     1     -20.397  41.983  -6.759  0.00  0.00    +0.000 A 
ATOM     28  H   UNL     1     -20.094  43.062  -5.004  0.00  0.00    +0.000 HD
ATOM     29  H   UNL     1     -21.756  42.650  -5.307  0.00  0.00    +0.000 HD
ENDBRANCH  19  23
ENDBRANCH  16  18
ENDBRANCH   1  16
TORSDOF 11
ENDMDL
MODEL 2
REMARK VINA RESULT:    -5.908      1.870      2.869
REMARK INTER + INTRA:         -11.268
REMARK INTER:                  -9.992
REMARK INTRA:                  -1.276
REMARK UNBOUND:                -1.561
REMARK  Name = 156301266
REMARK  14 active torsions:
REMARK  status: ('A' for Active; 'I' for Inactive)
REMARK    1  A    between atoms: N_2  and  C_12
REMARK    2  A    between atoms: N_2  and  C_18
REMARK    3  A    between atoms: N_3  and  C_14
REMARK    4  A    between atoms: C_6  and  C_7
REMARK    5  A    between atoms: C_6  and  C_9
REMARK    6  A    between atoms: C_7  and  C_10
REMARK    7  A    between atoms: C_8  and  C_11
REMARK    8  A    between atoms: C_8  and  C_12
REMARK    9  A    between atoms: C_9  and  C_15
REMARK   10  A    between atoms: C_10  and  C_14
REMARK   11  A    between atoms: C_11  and  C_13
REMARK   12  A    between atoms: C_13  and  C_16
REMARK   13  A    between atoms: C_17  and  C_20
REMARK   14  A    between atoms: C_19  and  C_21
REMARK                            x       y       z     vdW  Elec       q    Type
REMARK                         _______ _______ _______ _____ _____    ______ ____
ROOT
ATOM      1  C   UNL     1     -18.020  42.222 -13.485  0.00  0.00    +0.000 C 
ENDROOT
BRANCH   1   2
ATOM      2  C   UNL     1     -17.719  43.384 -12.533  0.00  0.00    +0.000 C 
BRANCH   2   3
ATOM      3  C   UNL     1     -18.488  44.673 -12.870  0.00  0.00    +0.000 C 
BRANCH   3   5
ATOM      4  C   UNL     1     -17.767  46.383 -14.596  0.00  0.00    +0.000 C 
ATOM      5  C   UNL     1     -17.618  45.830 -13.358  0.00  0.00    +0.000 C 
BRANCH   5   6
ATOM      6  C   UNL     1     -16.612  46.334 -12.410  0.00  0.00    +0.000 C 
ATOM      7  C   UNL     1     -16.776  47.258 -11.448  0.00  0.00    +0.000 C 
ATOM      8  C   UNL     1     -18.074  47.950 -11.183  0.00  0.00    +0.000 C 
ENDBRANCH   5   6
BRANCH   4   9
ATOM      9  C   UNL     1     -16.929  47.550 -15.114  0.00  0.00    +0.000 C 
BRANCH   9  10
ATOM     10  C   UNL     1     -15.536  47.102 -15.567  0.00  0.00    +0.000 C 
ATOM     11  C   UNL     1     -14.452  48.008 -15.003  0.00  0.00    +0.000 C 
ENDBRANCH   9  10
ENDBRANCH   4   9
BRANCH   4  12
ATOM     12  C   UNL     1     -18.788  45.906 -15.618  0.00  0.00    +0.000 C 
BRANCH  12  13
ATOM     13  N   UNL     1     -18.168  45.198 -16.735  0.00  0.00    +0.000 NA
ATOM     14  C   UNL     1     -18.592  45.766 -18.006  0.00  0.00    +0.000 C 
ATOM     15  H   UNL     1     -18.440  44.215 -16.707  0.00  0.00    +0.000 HD
ENDBRANCH  12  13
ENDBRANCH   4  12
ENDBRANCH   3   5
ENDBRANCH   2   3
ENDBRANCH   1   2
BRANCH   1  16
ATOM     16  C   UNL     1     -18.814  41.107 -12.812  0.00  0.00    +0.000 C 
BRANCH  16  18
ATOM     17  O   UNL     1     -19.147  39.285 -10.618  0.00  0.00    +0.000 OA
ATOM     18  N   UNL     1     -19.198  41.442 -11.468  0.00  0.00    +0.000 N 
ATOM     19  C   UNL     1     -19.335  40.489 -10.465  0.00  0.00    +0.000 C 
ATOM     20  H   UNL     1     -19.420  42.415 -11.286  0.00  0.00    +0.000 HD
BRANCH  19  23
ATOM     21  N   UNL     1     -19.237  42.238  -7.131  0.00  0.00    +0.000 NA
ATOM     22  N   UNL     1     -20.881  42.451  -5.419  0.00  0.00    +0.000 N 
ATOM     23  C   UNL     1     -19.765  40.995  -9.137  0.00  0.00    +0.000 A 
ATOM     24  C   UNL     1     -21.039  40.731  -8.648  0.00  0.00    +0.000 A 
ATOM     25  C   UNL     1     -18.909  41.746  -8.347  0.00  0.00    +0.000 A 
ATOM     26  C   UNL     1     -21.414  41.220  -7.401  0.00  0.00    +0.000 A 
ATOM     27  C   UNL     1     -20.484  41.961  -6.688  0.00  0.00    +0.000 A 
ATOM     28  H   UNL     1     -20.200  42.997  -4.905  0.00  0.00    +0.000 HD
ATOM     29  H   UNL     1     -21.863  42.635  -5.260  0.00  0.00    +0.000 HD
ENDBRANCH  19  23
ENDBRANCH  16  18
ENDBRANCH   1  16
TORSDOF 11
ENDMDL
MODEL 3
REMARK VINA RESULT:    -5.551      4.019      8.093
REMARK INTER + INTRA:         -10.681
REMARK INTER:                  -9.241
REMARK INTRA:                  -1.440
REMARK UNBOUND:                -1.561
REMARK  Name = 156301266
REMARK  14 active torsions:
REMARK  status: ('A' for Active; 'I' for Inactive)
REMARK    1  A    between atoms: N_2  and  C_12
REMARK    2  A    between atoms: N_2  and  C_18
REMARK    3  A    between atoms: N_3  and  C_14
REMARK    4  A    between atoms: C_6  and  C_7
REMARK    5  A    between atoms: C_6  and  C_9
REMARK    6  A    between atoms: C_7  and  C_10
REMARK    7  A    between atoms: C_8  and  C_11
REMARK    8  A    between atoms: C_8  and  C_12
REMARK    9  A    between atoms: C_9  and  C_15
REMARK   10  A    between atoms: C_10  and  C_14
REMARK   11  A    between atoms: C_11  and  C_13
REMARK   12  A    between atoms: C_13  and  C_16
REMARK   13  A    between atoms: C_17  and  C_20
REMARK   14  A    between atoms: C_19  and  C_21
REMARK                            x       y       z     vdW  Elec       q    Type
REMARK                         _______ _______ _______ _____ _____    ______ ____
ROOT
ATOM      1  C   UNL     1     -17.960  46.090 -12.626  0.00  0.00    +0.000 C 
ENDROOT
BRANCH   1   2
ATOM      2  C   UNL     1     -16.981  45.230 -11.821  0.00  0.00    +0.000 C 
BRANCH   2   3
ATOM      3  C   UNL     1     -17.666  44.303 -10.802  0.00  0.00    +0.000 C 
BRANCH   3   5
ATOM      4  C   UNL     1     -17.905  41.844 -10.238  0.00  0.00    +0.000 C 
ATOM      5  C   UNL     1     -17.610  42.816 -11.148  0.00  0.00    +0.000 C 
BRANCH   5   6
ATOM      6  C   UNL     1     -17.233  42.482 -12.531  0.00  0.00    +0.000 C 
ATOM      7  C   UNL     1     -18.016  42.493 -13.623  0.00  0.00    +0.000 C 
ATOM      8  C   UNL     1     -19.463  42.867 -13.597  0.00  0.00    +0.000 C 
ENDBRANCH   5   6
BRANCH   4   9
ATOM      9  C   UNL     1     -17.876  40.349 -10.548  0.00  0.00    +0.000 C 
BRANCH   9  10
ATOM     10  C   UNL     1     -19.255  39.818 -10.952  0.00  0.00    +0.000 C 
ATOM     11  C   UNL     1     -19.249  39.286 -12.376  0.00  0.00    +0.000 C 
ENDBRANCH   9  10
ENDBRANCH   4   9
BRANCH   4  12
ATOM     12  C   UNL     1     -18.300  42.128  -8.796  0.00  0.00    +0.000 C 
BRANCH  12  13
ATOM     13  N   UNL     1     -18.817  40.941  -8.119  0.00  0.00    +0.000 NA
ATOM     14  C   UNL     1     -20.031  41.255  -7.379  0.00  0.00    +0.000 C 
ATOM     15  H   UNL     1     -18.117  40.591  -7.465  0.00  0.00    +0.000 HD
ENDBRANCH  12  13
ENDBRANCH   4  12
ENDBRANCH   3   5
ENDBRANCH   2   3
ENDBRANCH   1   2
BRANCH   1  16
ATOM     16  C   UNL     1     -17.397  46.498 -13.984  0.00  0.00    +0.000 C 
BRANCH  16  18
ATOM     17  O   UNL     1     -19.567  47.713 -15.420  0.00  0.00    +0.000 OA
ATOM     18  N   UNL     1     -18.133  45.923 -15.077  0.00  0.00    +0.000 N 
ATOM     19  C   UNL     1     -19.173  46.588 -15.716  0.00  0.00    +0.000 C 
ATOM     20  H   UNL     1     -17.894  44.973 -15.339  0.00  0.00    +0.000 HD
BRANCH  19  23
ATOM     21  N   UNL     1     -19.924  43.907 -18.252  0.00  0.00    +0.000 NA
ATOM     22  N   UNL     1     -21.676  43.705 -19.854  0.00  0.00    +0.000 N 
ATOM     23  C   UNL     1     -19.850  45.846 -16.810  0.00  0.00    +0.000 A 
ATOM     24  C   UNL     1     -21.000  46.346 -17.410  0.00  0.00    +0.000 A 
ATOM     25  C   UNL     1     -19.356  44.633 -17.263  0.00  0.00    +0.000 A 
ATOM     26  C   UNL     1     -21.613  45.627 -18.430  0.00  0.00    +0.000 A 
ATOM     27  C   UNL     1     -21.041  44.424 -18.812  0.00  0.00    +0.000 A 
ATOM     28  H   UNL     1     -21.257  42.824 -20.125  0.00  0.00    +0.000 HD
ATOM     29  H   UNL     1     -22.674  43.821 -19.980  0.00  0.00    +0.000 HD
ENDBRANCH  19  23
ENDBRANCH  16  18
ENDBRANCH   1  16
TORSDOF 11
ENDMDL
MODEL 4
REMARK VINA RESULT:    -5.482      2.880      4.366
REMARK INTER + INTRA:         -10.568
REMARK INTER:                  -9.399
REMARK INTRA:                  -1.169
REMARK UNBOUND:                -1.561
REMARK  Name = 156301266
REMARK  14 active torsions:
REMARK  status: ('A' for Active; 'I' for Inactive)
REMARK    1  A    between atoms: N_2  and  C_12
REMARK    2  A    between atoms: N_2  and  C_18
REMARK    3  A    between atoms: N_3  and  C_14
REMARK    4  A    between atoms: C_6  and  C_7
REMARK    5  A    between atoms: C_6  and  C_9
REMARK    6  A    between atoms: C_7  and  C_10
REMARK    7  A    between atoms: C_8  and  C_11
REMARK    8  A    between atoms: C_8  and  C_12
REMARK    9  A    between atoms: C_9  and  C_15
REMARK   10  A    between atoms: C_10  and  C_14
REMARK   11  A    between atoms: C_11  and  C_13
REMARK   12  A    between atoms: C_13  and  C_16
REMARK   13  A    between atoms: C_17  and  C_20
REMARK   14  A    between atoms: C_19  and  C_21
REMARK                            x       y       z     vdW  Elec       q    Type
REMARK                         _______ _______ _______ _____ _____    ______ ____
ROOT
ATOM      1  C   UNL     1     -16.491  43.519 -13.039  0.00  0.00    +0.000 C 
ENDROOT
BRANCH   1   2
ATOM      2  C   UNL     1     -17.617  44.550 -13.158  0.00  0.00    +0.000 C 
BRANCH   2   3
ATOM      3  C   UNL     1     -18.508  44.351 -14.396  0.00  0.00    +0.000 C 
BRANCH   3   5
ATOM      4  C   UNL     1     -19.442  45.590 -16.400  0.00  0.00    +0.000 C 
ATOM      5  C   UNL     1     -18.653  45.583 -15.287  0.00  0.00    +0.000 C 
BRANCH   5   6
ATOM      6  C   UNL     1     -17.905  46.780 -14.871  0.00  0.00    +0.000 C 
ATOM      7  C   UNL     1     -16.657  47.135 -15.222  0.00  0.00    +0.000 C 
ATOM      8  C   UNL     1     -15.796  46.323 -16.136  0.00  0.00    +0.000 C 
ENDBRANCH   5   6
BRANCH   4   9
ATOM      9  C   UNL     1     -19.626  46.805 -17.307  0.00  0.00    +0.000 C 
BRANCH   9  10
ATOM     10  C   UNL     1     -20.864  47.622 -16.929  0.00  0.00    +0.000 C 
ATOM     11  C   UNL     1     -21.895  47.615 -18.046  0.00  0.00    +0.000 C 
ENDBRANCH   9  10
ENDBRANCH   4   9
BRANCH   4  12
ATOM     12  C   UNL     1     -20.238  44.385 -16.879  0.00  0.00    +0.000 C 
BRANCH  12  13
ATOM     13  N   UNL     1     -21.451  44.174 -16.093  0.00  0.00    +0.000 NA
ATOM     14  C   UNL     1     -22.638  44.318 -16.924  0.00  0.00    +0.000 C 
ATOM     15  H   UNL     1     -21.492  44.861 -15.340  0.00  0.00    +0.000 HD
ENDBRANCH  12  13
ENDBRANCH   4  12
ENDBRANCH   3   5
ENDBRANCH   2   3
ENDBRANCH   1   2
BRANCH   1  16
ATOM     16  C   UNL     1     -17.006  42.135 -12.653  0.00  0.00    +0.000 C 
BRANCH  16  18
ATOM     17  O   UNL     1     -17.401  39.988 -10.788  0.00  0.00    +0.000 OA
ATOM     18  N   UNL     1     -17.821  42.165 -11.470  0.00  0.00    +0.000 N 
ATOM     19  C   UNL     1     -17.954  41.072 -10.621  0.00  0.00    +0.000 C 
ATOM     20  H   UNL     1     -18.348  43.014 -11.300  0.00  0.00    +0.000 HD
BRANCH  19  23
ATOM     21  N   UNL     1     -19.288  42.319  -7.326  0.00  0.00    +0.000 NA
ATOM     22  N   UNL     1     -21.311  41.833  -6.164  0.00  0.00    +0.000 N 
ATOM     23  C   UNL     1     -18.855  41.256  -9.455  0.00  0.00    +0.000 A 
ATOM     24  C   UNL     1     -20.069  40.583  -9.374  0.00  0.00    +0.000 A 
ATOM     25  C   UNL     1     -18.514  42.105  -8.414  0.00  0.00    +0.000 A 
ATOM     26  C   UNL     1     -20.893  40.777  -8.271  0.00  0.00    +0.000 A 
ATOM     27  C   UNL     1     -20.460  41.647  -7.283  0.00  0.00    +0.000 A 
ATOM     28  H   UNL     1     -20.993  42.474  -5.448  0.00  0.00    +0.000 HD
ATOM     29  H   UNL     1     -22.308  41.711  -6.292  0.00  0.00    +0.000 HD
ENDBRANCH  19  23
ENDBRANCH  16  18
ENDBRANCH   1  16
TORSDOF 11
ENDMDL
MODEL 5
REMARK VINA RESULT:    -5.303      1.521      2.888
REMARK INTER + INTRA:         -10.274
REMARK INTER:                  -8.578
REMARK INTRA:                  -1.696
REMARK UNBOUND:                -1.561
REMARK  Name = 156301266
REMARK  14 active torsions:
REMARK  status: ('A' for Active; 'I' for Inactive)
REMARK    1  A    between atoms: N_2  and  C_12
REMARK    2  A    between atoms: N_2  and  C_18
REMARK    3  A    between atoms: N_3  and  C_14
REMARK    4  A    between atoms: C_6  and  C_7
REMARK    5  A    between atoms: C_6  and  C_9
REMARK    6  A    between atoms: C_7  and  C_10
REMARK    7  A    between atoms: C_8  and  C_11
REMARK    8  A    between atoms: C_8  and  C_12
REMARK    9  A    between atoms: C_9  and  C_15
REMARK   10  A    between atoms: C_10  and  C_14
REMARK   11  A    between atoms: C_11  and  C_13
REMARK   12  A    between atoms: C_13  and  C_16
REMARK   13  A    between atoms: C_17  and  C_20
REMARK   14  A    between atoms: C_19  and  C_21
REMARK                            x       y       z     vdW  Elec       q    Type
REMARK                         _______ _______ _______ _____ _____    ______ ____
ROOT
ATOM      1  C   UNL     1     -15.557  42.744 -12.354  0.00  0.00    +0.000 C 
ENDROOT
BRANCH   1   2
ATOM      2  C   UNL     1     -15.638  43.963 -11.429  0.00  0.00    +0.000 C 
BRANCH   2   3
ATOM      3  C   UNL     1     -15.452  45.304 -12.158  0.00  0.00    +0.000 C 
BRANCH   3   5
ATOM      4  C   UNL     1     -16.512  47.607 -12.161  0.00  0.00    +0.000 C 
ATOM      5  C   UNL     1     -16.647  46.252 -12.073  0.00  0.00    +0.000 C 
BRANCH   5   6
ATOM      6  C   UNL     1     -17.967  45.623 -11.906  0.00  0.00    +0.000 C 
ATOM      7  C   UNL     1     -18.771  45.129 -12.863  0.00  0.00    +0.000 C 
ATOM      8  C   UNL     1     -18.427  45.144 -14.318  0.00  0.00    +0.000 C 
ENDBRANCH   5   6
BRANCH   4   9
ATOM      9  C   UNL     1     -17.682  48.585 -12.097  0.00  0.00    +0.000 C 
BRANCH   9  10
ATOM     10  C   UNL     1     -17.872  49.164 -10.692  0.00  0.00    +0.000 C 
ATOM     11  C   UNL     1     -19.282  48.919 -10.177  0.00  0.00    +0.000 C 
ENDBRANCH   9  10
ENDBRANCH   4   9
BRANCH   4  12
ATOM     12  C   UNL     1     -15.176  48.313 -12.334  0.00  0.00    +0.000 C 
BRANCH  12  13
ATOM     13  N   UNL     1     -15.214  49.321 -13.390  0.00  0.00    +0.000 NA
ATOM     14  C   UNL     1     -14.365  48.933 -14.507  0.00  0.00    +0.000 C 
ATOM     15  H   UNL     1     -14.882  50.213 -13.021  0.00  0.00    +0.000 HD
ENDBRANCH  12  13
ENDBRANCH   4  12
ENDBRANCH   3   5
ENDBRANCH   2   3
ENDBRANCH   1   2
BRANCH   1  16
ATOM     16  C   UNL     1     -16.906  42.051 -12.523  0.00  0.00    +0.000 C 
BRANCH  16  18
ATOM     17  O   UNL     1     -17.935  39.823 -11.031  0.00  0.00    +0.000 OA
ATOM     18  N   UNL     1     -17.706  42.112 -11.330  0.00  0.00    +0.000 N 
ATOM     19  C   UNL     1     -18.162  40.976 -10.672  0.00  0.00    +0.000 C 
ATOM     20  H   UNL     1     -17.975  43.035 -11.008  0.00  0.00    +0.000 HD
BRANCH  19  23
ATOM     21  N   UNL     1     -19.325  42.366  -7.370  0.00  0.00    +0.000 NA
ATOM     22  N   UNL     1     -21.280  41.927  -6.081  0.00  0.00    +0.000 N 
ATOM     23  C   UNL     1     -19.001  41.209  -9.469  0.00  0.00    +0.000 A 
ATOM     24  C   UNL     1     -20.205  40.537  -9.293  0.00  0.00    +0.000 A 
ATOM     25  C   UNL     1     -18.609  42.106  -8.487  0.00  0.00    +0.000 A 
ATOM     26  C   UNL     1     -20.970  40.779  -8.157  0.00  0.00    +0.000 A 
ATOM     27  C   UNL     1     -20.489  41.694  -7.233  0.00  0.00    +0.000 A 
ATOM     28  H   UNL     1     -20.927  42.602  -5.412  0.00  0.00    +0.000 HD
ATOM     29  H   UNL     1     -22.281  41.797  -6.149  0.00  0.00    +0.000 HD
ENDBRANCH  19  23
ENDBRANCH  16  18
ENDBRANCH   1  16
TORSDOF 11
ENDMDL
