MODEL 1
REMARK VINA RESULT:    -6.218      0.000      0.000
REMARK INTER + INTRA:          -7.431
REMARK INTER:                  -6.945
REMARK INTRA:                  -0.486
REMARK UNBOUND:                -0.486
REMARK  Name = 156784573
REMARK  2 active torsions:
REMARK  status: ('A' for Active; 'I' for Inactive)
REMARK    1  A    between atoms: N_4  and  C_12
REMARK    2  A    between atoms: C_13  and  C_15
REMARK                            x       y       z     vdW  Elec       q    Type
REMARK                         _______ _______ _______ _____ _____    ______ ____
ROOT
ATOM      1  N   UNL     1     -18.118  42.271  -9.143  0.00  0.00    +0.000 NA
ATOM      2  C   UNL     1     -18.142  41.999 -10.468  0.00  0.00    +0.000 A 
ATOM      3  C   UNL     1     -18.810  40.922 -11.027  0.00  0.00    +0.000 A 
ATOM      4  C   UNL     1     -19.498  40.068 -10.171  0.00  0.00    +0.000 A 
ATOM      5  C   UNL     1     -18.798  41.420  -8.344  0.00  0.00    +0.000 A 
ATOM      6  C   UNL     1     -19.497  40.315  -8.803  0.00  0.00    +0.000 A 
ENDROOT
BRANCH   2   9
ATOM      7  F   UNL     1     -15.481  45.044 -14.198  0.00  0.00    +0.000 F 
ATOM      8  F   UNL     1     -15.464  45.561 -12.085  0.00  0.00    +0.000 F 
ATOM      9  N   UNL     1     -17.443  42.861 -11.322  0.00  0.00    +0.000 N 
ATOM     10  C   UNL     1     -15.940  44.660 -12.981  0.00  0.00    +0.000 C 
ATOM     11  C   UNL     1     -15.406  43.282 -12.646  0.00  0.00    +0.000 C 
ATOM     12  C   UNL     1     -17.455  44.691 -12.972  0.00  0.00    +0.000 C 
ATOM     13  C   UNL     1     -15.976  42.766 -11.327  0.00  0.00    +0.000 C 
ATOM     14  C   UNL     1     -18.023  44.168 -11.655  0.00  0.00    +0.000 C 
ENDBRANCH   2   9
BRANCH   3  17
ATOM     15  O   UNL     1     -19.703  41.104 -13.198  0.00  0.00    +0.000 OA
ATOM     16  N   UNL     1     -17.795  39.853 -12.967  0.00  0.00    +0.000 N 
ATOM     17  C   UNL     1     -18.813  40.653 -12.458  0.00  0.00    +0.000 C 
ATOM     18  H   UNL     1     -17.064  39.470 -12.376  0.00  0.00    +0.000 HD
ATOM     19  H   UNL     1     -17.753  39.629 -13.955  0.00  0.00    +0.000 HD
ENDBRANCH   3  17
TORSDOF 2
ENDMDL
MODEL 2
REMARK VINA RESULT:    -5.969      1.577      2.171
REMARK INTER + INTRA:          -7.152
REMARK INTER:                  -7.692
REMARK INTRA:                   0.540
REMARK UNBOUND:                -0.486
REMARK  Name = 156784573
REMARK  2 active torsions:
REMARK  status: ('A' for Active; 'I' for Inactive)
REMARK    1  A    between atoms: N_4  and  C_12
REMARK    2  A    between atoms: C_13  and  C_15
REMARK                            x       y       z     vdW  Elec       q    Type
REMARK                         _______ _______ _______ _____ _____    ______ ____
ROOT
ATOM      1  N   UNL     1     -18.669  42.300  -8.312  0.00  0.00    +0.000 NA
ATOM      2  C   UNL     1     -18.600  41.685  -9.514  0.00  0.00    +0.000 A 
ATOM      3  C   UNL     1     -19.403  40.620  -9.888  0.00  0.00    +0.000 A 
ATOM      4  C   UNL     1     -20.337  40.155  -8.969  0.00  0.00    +0.000 A 
ATOM      5  C   UNL     1     -19.589  41.821  -7.445  0.00  0.00    +0.000 A 
ATOM      6  C   UNL     1     -20.438  40.762  -7.722  0.00  0.00    +0.000 A 
ENDROOT
BRANCH   2   9
ATOM      7  F   UNL     1     -14.707  43.844 -12.746  0.00  0.00    +0.000 F 
ATOM      8  F   UNL     1     -16.248  42.532 -13.542  0.00  0.00    +0.000 F 
ATOM      9  N   UNL     1     -17.653  42.157 -10.433  0.00  0.00    +0.000 N 
ATOM     10  C   UNL     1     -15.795  43.112 -12.402  0.00  0.00    +0.000 C 
ATOM     11  C   UNL     1     -16.866  44.024 -11.838  0.00  0.00    +0.000 C 
ATOM     12  C   UNL     1     -15.395  42.036 -11.412  0.00  0.00    +0.000 C 
ATOM     13  C   UNL     1     -18.074  43.230 -11.345  0.00  0.00    +0.000 C 
ATOM     14  C   UNL     1     -16.606  41.249 -10.915  0.00  0.00    +0.000 C 
ENDBRANCH   2   9
BRANCH   3  17
ATOM     15  O   UNL     1     -18.623  38.947 -11.352  0.00  0.00    +0.000 OA
ATOM     16  N   UNL     1     -19.976  40.563 -12.256  0.00  0.00    +0.000 N 
ATOM     17  C   UNL     1     -19.302  39.975 -11.190  0.00  0.00    +0.000 C 
ATOM     18  H   UNL     1     -20.529  41.406 -12.144  0.00  0.00    +0.000 HD
ATOM     19  H   UNL     1     -19.935  40.159 -13.185  0.00  0.00    +0.000 HD
ENDBRANCH   3  17
TORSDOF 2
ENDMDL
MODEL 3
REMARK VINA RESULT:    -5.158      1.829      2.249
REMARK INTER + INTRA:          -6.247
REMARK INTER:                  -5.976
REMARK INTRA:                  -0.270
REMARK UNBOUND:                -0.486
REMARK  Name = 156784573
REMARK  2 active torsions:
REMARK  status: ('A' for Active; 'I' for Inactive)
REMARK    1  A    between atoms: N_4  and  C_12
REMARK    2  A    between atoms: C_13  and  C_15
REMARK                            x       y       z     vdW  Elec       q    Type
REMARK                         _______ _______ _______ _____ _____    ______ ____
ROOT
ATOM      1  N   UNL     1     -17.045  41.445 -11.051  0.00  0.00    +0.000 NA
ATOM      2  C   UNL     1     -17.668  42.186 -11.995  0.00  0.00    +0.000 A 
ATOM      3  C   UNL     1     -18.757  41.749 -12.731  0.00  0.00    +0.000 A 
ATOM      4  C   UNL     1     -19.238  40.468 -12.482  0.00  0.00    +0.000 A 
ATOM      5  C   UNL     1     -17.541  40.206 -10.837  0.00  0.00    +0.000 A 
ATOM      6  C   UNL     1     -18.624  39.675 -11.519  0.00  0.00    +0.000 A 
ENDROOT
BRANCH   2   9
ATOM      7  F   UNL     1     -16.046  47.259 -13.370  0.00  0.00    +0.000 F 
ATOM      8  F   UNL     1     -15.045  46.130 -11.803  0.00  0.00    +0.000 F 
ATOM      9  N   UNL     1     -17.175  43.474 -12.241  0.00  0.00    +0.000 N 
ATOM     10  C   UNL     1     -16.058  46.078 -12.705  0.00  0.00    +0.000 C 
ATOM     11  C   UNL     1     -15.812  44.943 -13.678  0.00  0.00    +0.000 C 
ATOM     12  C   UNL     1     -17.377  45.916 -11.975  0.00  0.00    +0.000 C 
ATOM     13  C   UNL     1     -15.914  43.584 -12.989  0.00  0.00    +0.000 C 
ATOM     14  C   UNL     1     -17.480  44.553 -11.294  0.00  0.00    +0.000 C 
ENDBRANCH   2   9
BRANCH   3  17
ATOM     15  O   UNL     1     -19.298  42.308 -14.954  0.00  0.00    +0.000 OA
ATOM     16  N   UNL     1     -20.133  43.674 -13.312  0.00  0.00    +0.000 N 
ATOM     17  C   UNL     1     -19.404  42.570 -13.744  0.00  0.00    +0.000 C 
ATOM     18  H   UNL     1     -20.225  43.907 -12.329  0.00  0.00    +0.000 HD
ATOM     19  H   UNL     1     -20.599  44.283 -13.976  0.00  0.00    +0.000 HD
ENDBRANCH   3  17
TORSDOF 2
ENDMDL
MODEL 4
REMARK VINA RESULT:    -4.650     17.230     19.112
REMARK INTER + INTRA:          -5.680
REMARK INTER:                  -5.192
REMARK INTRA:                  -0.488
REMARK UNBOUND:                -0.486
REMARK  Name = 156784573
REMARK  2 active torsions:
REMARK  status: ('A' for Active; 'I' for Inactive)
REMARK    1  A    between atoms: N_4  and  C_12
REMARK    2  A    between atoms: C_13  and  C_15
REMARK                            x       y       z     vdW  Elec       q    Type
REMARK                         _______ _______ _______ _____ _____    ______ ____
ROOT
ATOM      1  N   UNL     1     -31.586  42.270   3.309  0.00  0.00    +0.000 NA
ATOM      2  C   UNL     1     -30.385  42.008   2.747  0.00  0.00    +0.000 A 
ATOM      3  C   UNL     1     -29.553  42.976   2.206  0.00  0.00    +0.000 A 
ATOM      4  C   UNL     1     -29.983  44.298   2.245  0.00  0.00    +0.000 A 
ATOM      5  C   UNL     1     -31.970  43.567   3.328  0.00  0.00    +0.000 A 
ATOM      6  C   UNL     1     -31.213  44.607   2.815  0.00  0.00    +0.000 A 
ENDROOT
BRANCH   2   9
ATOM      7  F   UNL     1     -28.333  36.924   2.300  0.00  0.00    +0.000 F 
ATOM      8  F   UNL     1     -30.264  37.294   3.232  0.00  0.00    +0.000 F 
ATOM      9  N   UNL     1     -29.962  40.674   2.709  0.00  0.00    +0.000 N 
ATOM     10  C   UNL     1     -29.209  37.903   2.633  0.00  0.00    +0.000 C 
ATOM     11  C   UNL     1     -29.679  38.615   1.381  0.00  0.00    +0.000 C 
ATOM     12  C   UNL     1     -28.557  38.861   3.611  0.00  0.00    +0.000 C 
ATOM     13  C   UNL     1     -30.593  39.792   1.715  0.00  0.00    +0.000 C 
ATOM     14  C   UNL     1     -29.469  40.041   3.938  0.00  0.00    +0.000 C 
ENDBRANCH   2   9
BRANCH   3  17
ATOM     15  O   UNL     1     -27.222  42.649   2.278  0.00  0.00    +0.000 OA
ATOM     16  N   UNL     1     -28.240  42.392   0.239  0.00  0.00    +0.000 N 
ATOM     17  C   UNL     1     -28.266  42.661   1.604  0.00  0.00    +0.000 C 
ATOM     18  H   UNL     1     -29.081  42.404  -0.328  0.00  0.00    +0.000 HD
ATOM     19  H   UNL     1     -27.369  42.173  -0.233  0.00  0.00    +0.000 HD
ENDBRANCH   3  17
TORSDOF 2
ENDMDL
MODEL 5
REMARK VINA RESULT:    -4.441     20.280     22.414
REMARK INTER + INTRA:          -5.447
REMARK INTER:                  -4.961
REMARK INTRA:                  -0.485
REMARK UNBOUND:                -0.486
REMARK  Name = 156784573
REMARK  2 active torsions:
REMARK  status: ('A' for Active; 'I' for Inactive)
REMARK    1  A    between atoms: N_4  and  C_12
REMARK    2  A    between atoms: C_13  and  C_15
REMARK                            x       y       z     vdW  Elec       q    Type
REMARK                         _______ _______ _______ _____ _____    ______ ____
ROOT
ATOM      1  N   UNL     1     -31.981  42.695   3.387  0.00  0.00    +0.000 NA
ATOM      2  C   UNL     1     -32.032  44.031   3.583  0.00  0.00    +0.000 A 
ATOM      3  C   UNL     1     -31.075  44.921   3.121  0.00  0.00    +0.000 A 
ATOM      4  C   UNL     1     -29.996  44.404   2.412  0.00  0.00    +0.000 A 
ATOM      5  C   UNL     1     -30.918  42.230   2.693  0.00  0.00    +0.000 A 
ATOM      6  C   UNL     1     -29.908  43.035   2.190  0.00  0.00    +0.000 A 
ENDROOT
BRANCH   2   9
ATOM      7  F   UNL     1     -36.067  46.495   6.395  0.00  0.00    +0.000 F 
ATOM      8  F   UNL     1     -36.026  44.338   6.117  0.00  0.00    +0.000 F 
ATOM      9  N   UNL     1     -33.120  44.542   4.301  0.00  0.00    +0.000 N 
ATOM     10  C   UNL     1     -35.361  45.486   5.830  0.00  0.00    +0.000 C 
ATOM     11  C   UNL     1     -33.973  45.431   6.437  0.00  0.00    +0.000 C 
ATOM     12  C   UNL     1     -35.308  45.676   4.327  0.00  0.00    +0.000 C 
ATOM     13  C   UNL     1     -33.107  44.371   5.761  0.00  0.00    +0.000 C 
ATOM     14  C   UNL     1     -34.435  44.619   3.654  0.00  0.00    +0.000 C 
ENDBRANCH   2   9
BRANCH   3  17
ATOM     15  O   UNL     1     -30.687  46.872   4.381  0.00  0.00    +0.000 OA
ATOM     16  N   UNL     1     -31.795  47.130   2.390  0.00  0.00    +0.000 N 
ATOM     17  C   UNL     1     -31.155  46.356   3.353  0.00  0.00    +0.000 C 
ATOM     18  H   UNL     1     -32.189  46.725   1.547  0.00  0.00    +0.000 HD
ATOM     19  H   UNL     1     -31.885  48.134   2.503  0.00  0.00    +0.000 HD
ENDBRANCH   3  17
TORSDOF 2
ENDMDL
