MODEL 1
REMARK VINA RESULT:    -6.330      0.000      0.000
REMARK INTER + INTRA:          -7.534
REMARK INTER:                  -7.071
REMARK INTRA:                  -0.464
REMARK UNBOUND:                -0.464
REMARK  Name = 156804607
REMARK  4 active torsions:
REMARK  status: ('A' for Active; 'I' for Inactive)
REMARK    1  A    between atoms: S_1  and  C_7
REMARK    2  A    between atoms: S_1  and  C_8
REMARK    3  A    between atoms: N_4  and  C_9
REMARK    4  A    between atoms: C_10  and  C_13
REMARK                            x       y       z     vdW  Elec       q    Type
REMARK                         _______ _______ _______ _____ _____    ______ ____
ROOT
ATOM      1  N   UNL     1     -18.337  42.321  -8.699  0.00  0.00    +0.000 NA
ATOM      2  C   UNL     1     -18.405  41.600  -9.841  0.00  0.00    +0.000 A 
ATOM      3  C   UNL     1     -19.360  40.628 -10.088  0.00  0.00    +0.000 A 
ATOM      4  C   UNL     1     -20.307  40.378  -9.100  0.00  0.00    +0.000 A 
ATOM      5  C   UNL     1     -20.269  41.100  -7.911  0.00  0.00    +0.000 A 
ATOM      6  C   UNL     1     -19.273  42.051  -7.762  0.00  0.00    +0.000 A 
ENDROOT
BRANCH   2   9
ATOM      7  S   UNL     1     -17.635  42.989 -11.920  0.00  0.00    +0.000 S 
ATOM      8  O   UNL     1     -18.770  43.053 -12.823  0.00  0.00    +0.000 OA
ATOM      9  N   UNL     1     -17.391  41.893 -10.853  0.00  0.00    +0.000 NA
ATOM     10  C   UNL     1     -16.176  43.020 -12.938  0.00  0.00    +0.000 C 
ATOM     11  C   UNL     1     -17.542  44.563 -11.098  0.00  0.00    +0.000 C 
ENDBRANCH   2   9
BRANCH   3  14
ATOM     12  O   UNL     1     -18.911  38.733 -11.412  0.00  0.00    +0.000 OA
ATOM     13  N   UNL     1     -20.021  40.463 -12.427  0.00  0.00    +0.000 N 
ATOM     14  C   UNL     1     -19.410  39.866 -11.329  0.00  0.00    +0.000 C 
ATOM     15  H   UNL     1     -20.427  41.392 -12.380  0.00  0.00    +0.000 HD
ATOM     16  H   UNL     1     -20.079  39.980 -13.318  0.00  0.00    +0.000 HD
ENDBRANCH   3  14
TORSDOF 2
ENDMDL
MODEL 2
REMARK VINA RESULT:    -5.055      2.732      5.389
REMARK INTER + INTRA:          -6.110
REMARK INTER:                  -5.680
REMARK INTRA:                  -0.430
REMARK UNBOUND:                -0.464
REMARK  Name = 156804607
REMARK  4 active torsions:
REMARK  status: ('A' for Active; 'I' for Inactive)
REMARK    1  A    between atoms: S_1  and  C_7
REMARK    2  A    between atoms: S_1  and  C_8
REMARK    3  A    between atoms: N_4  and  C_9
REMARK    4  A    between atoms: C_10  and  C_13
REMARK                            x       y       z     vdW  Elec       q    Type
REMARK                         _______ _______ _______ _____ _____    ______ ____
ROOT
ATOM      1  N   UNL     1     -19.874  42.331 -14.179  0.00  0.00    +0.000 NA
ATOM      2  C   UNL     1     -19.114  42.776 -13.152  0.00  0.00    +0.000 A 
ATOM      3  C   UNL     1     -18.408  43.967 -13.169  0.00  0.00    +0.000 A 
ATOM      4  C   UNL     1     -18.486  44.755 -14.313  0.00  0.00    +0.000 A 
ATOM      5  C   UNL     1     -19.257  44.331 -15.390  0.00  0.00    +0.000 A 
ATOM      6  C   UNL     1     -19.925  43.123 -15.274  0.00  0.00    +0.000 A 
ENDROOT
BRANCH   2   9
ATOM      7  S   UNL     1     -18.786  40.400 -12.108  0.00  0.00    +0.000 S 
ATOM      8  O   UNL     1     -19.546  39.474 -12.929  0.00  0.00    +0.000 OA
ATOM      9  N   UNL     1     -19.059  41.917 -11.969  0.00  0.00    +0.000 NA
ATOM     10  C   UNL     1     -18.802  39.742 -10.456  0.00  0.00    +0.000 C 
ATOM     11  C   UNL     1     -17.077  40.205 -12.563  0.00  0.00    +0.000 C 
ENDBRANCH   2   9
BRANCH   3  14
ATOM     12  O   UNL     1     -17.855  45.480 -11.452  0.00  0.00    +0.000 OA
ATOM     13  N   UNL     1     -16.512  43.635 -11.676  0.00  0.00    +0.000 N 
ATOM     14  C   UNL     1     -17.598  44.421 -12.047  0.00  0.00    +0.000 C 
ATOM     15  H   UNL     1     -16.283  42.771 -12.156  0.00  0.00    +0.000 HD
ATOM     16  H   UNL     1     -15.910  43.907 -10.905  0.00  0.00    +0.000 HD
ENDBRANCH   3  14
TORSDOF 2
ENDMDL
MODEL 3
REMARK VINA RESULT:    -4.889      3.353      5.447
REMARK INTER + INTRA:          -5.924
REMARK INTER:                  -5.983
REMARK INTRA:                   0.059
REMARK UNBOUND:                -0.464
REMARK  Name = 156804607
REMARK  4 active torsions:
REMARK  status: ('A' for Active; 'I' for Inactive)
REMARK    1  A    between atoms: S_1  and  C_7
REMARK    2  A    between atoms: S_1  and  C_8
REMARK    3  A    between atoms: N_4  and  C_9
REMARK    4  A    between atoms: C_10  and  C_13
REMARK                            x       y       z     vdW  Elec       q    Type
REMARK                         _______ _______ _______ _____ _____    ______ ____
ROOT
ATOM      1  N   UNL     1     -17.832  43.668 -13.240  0.00  0.00    +0.000 NA
ATOM      2  C   UNL     1     -18.826  43.113 -13.969  0.00  0.00    +0.000 A 
ATOM      3  C   UNL     1     -19.403  43.711 -15.077  0.00  0.00    +0.000 A 
ATOM      4  C   UNL     1     -18.928  44.960 -15.464  0.00  0.00    +0.000 A 
ATOM      5  C   UNL     1     -17.905  45.564 -14.739  0.00  0.00    +0.000 A 
ATOM      6  C   UNL     1     -17.396  44.882 -13.646  0.00  0.00    +0.000 A 
ENDROOT
BRANCH   2   9
ATOM      7  S   UNL     1     -18.337  40.818 -12.812  0.00  0.00    +0.000 S 
ATOM      8  O   UNL     1     -17.060  40.354 -13.328  0.00  0.00    +0.000 OA
ATOM      9  N   UNL     1     -19.297  41.800 -13.528  0.00  0.00    +0.000 NA
ATOM     10  C   UNL     1     -19.296  39.364 -12.453  0.00  0.00    +0.000 C 
ATOM     11  C   UNL     1     -18.029  41.466 -11.184  0.00  0.00    +0.000 C 
ENDBRANCH   2   9
BRANCH   3  14
ATOM     12  O   UNL     1     -20.230  42.359 -16.819  0.00  0.00    +0.000 OA
ATOM     13  N   UNL     1     -21.783  43.356 -15.457  0.00  0.00    +0.000 N 
ATOM     14  C   UNL     1     -20.474  43.089 -15.844  0.00  0.00    +0.000 C 
ATOM     15  H   UNL     1     -22.001  43.956 -14.668  0.00  0.00    +0.000 HD
ATOM     16  H   UNL     1     -22.567  42.954 -15.960  0.00  0.00    +0.000 HD
ENDBRANCH   3  14
TORSDOF 2
ENDMDL
MODEL 4
REMARK VINA RESULT:    -4.661      7.071      8.289
REMARK INTER + INTRA:          -5.670
REMARK INTER:                  -5.248
REMARK INTRA:                  -0.422
REMARK UNBOUND:                -0.464
REMARK  Name = 156804607
REMARK  4 active torsions:
REMARK  status: ('A' for Active; 'I' for Inactive)
REMARK    1  A    between atoms: S_1  and  C_7
REMARK    2  A    between atoms: S_1  and  C_8
REMARK    3  A    between atoms: N_4  and  C_9
REMARK    4  A    between atoms: C_10  and  C_13
REMARK                            x       y       z     vdW  Elec       q    Type
REMARK                         _______ _______ _______ _____ _____    ______ ____
ROOT
ATOM      1  N   UNL     1     -21.599  46.436 -17.734  0.00  0.00    +0.000 NA
ATOM      2  C   UNL     1     -20.789  45.402 -17.412  0.00  0.00    +0.000 A 
ATOM      3  C   UNL     1     -21.239  44.191 -16.911  0.00  0.00    +0.000 A 
ATOM      4  C   UNL     1     -22.609  44.030 -16.731  0.00  0.00    +0.000 A 
ATOM      5  C   UNL     1     -23.474  45.071 -17.051  0.00  0.00    +0.000 A 
ATOM      6  C   UNL     1     -22.924  46.242 -17.546  0.00  0.00    +0.000 A 
ENDROOT
BRANCH   2   9
ATOM      7  S   UNL     1     -18.688  45.239 -18.962  0.00  0.00    +0.000 S 
ATOM      8  O   UNL     1     -18.739  43.935 -19.598  0.00  0.00    +0.000 OA
ATOM      9  N   UNL     1     -19.356  45.614 -17.616  0.00  0.00    +0.000 NA
ATOM     10  C   UNL     1     -16.967  45.652 -18.790  0.00  0.00    +0.000 C 
ATOM     11  C   UNL     1     -19.230  46.423 -20.174  0.00  0.00    +0.000 C 
ENDBRANCH   2   9
BRANCH   3  14
ATOM     12  O   UNL     1     -20.419  41.997 -17.148  0.00  0.00    +0.000 OA
ATOM     13  N   UNL     1     -19.409  43.313 -15.565  0.00  0.00    +0.000 N 
ATOM     14  C   UNL     1     -20.343  43.094 -16.572  0.00  0.00    +0.000 C 
ATOM     15  H   UNL     1     -19.338  44.201 -15.078  0.00  0.00    +0.000 HD
ATOM     16  H   UNL     1     -18.764  42.581 -15.284  0.00  0.00    +0.000 HD
ENDBRANCH   3  14
TORSDOF 2
ENDMDL
MODEL 5
REMARK VINA RESULT:    -4.513      2.351      5.095
REMARK INTER + INTRA:          -5.505
REMARK INTER:                  -5.071
REMARK INTRA:                  -0.434
REMARK UNBOUND:                -0.464
REMARK  Name = 156804607
REMARK  4 active torsions:
REMARK  status: ('A' for Active; 'I' for Inactive)
REMARK    1  A    between atoms: S_1  and  C_7
REMARK    2  A    between atoms: S_1  and  C_8
REMARK    3  A    between atoms: N_4  and  C_9
REMARK    4  A    between atoms: C_10  and  C_13
REMARK                            x       y       z     vdW  Elec       q    Type
REMARK                         _______ _______ _______ _____ _____    ______ ____
ROOT
ATOM      1  N   UNL     1     -15.649  43.008 -11.395  0.00  0.00    +0.000 NA
ATOM      2  C   UNL     1     -16.895  43.426 -11.712  0.00  0.00    +0.000 A 
ATOM      3  C   UNL     1     -17.170  44.596 -12.401  0.00  0.00    +0.000 A 
ATOM      4  C   UNL     1     -16.096  45.389 -12.791  0.00  0.00    +0.000 A 
ATOM      5  C   UNL     1     -14.799  44.993 -12.483  0.00  0.00    +0.000 A 
ATOM      6  C   UNL     1     -14.631  43.805 -11.791  0.00  0.00    +0.000 A 
ENDROOT
BRANCH   2   9
ATOM      7  S   UNL     1     -18.348  41.280 -12.077  0.00  0.00    +0.000 S 
ATOM      8  O   UNL     1     -18.655  41.220 -13.496  0.00  0.00    +0.000 OA
ATOM      9  N   UNL     1     -17.996  42.562 -11.283  0.00  0.00    +0.000 NA
ATOM     10  C   UNL     1     -19.723  40.537 -11.230  0.00  0.00    +0.000 C 
ATOM     11  C   UNL     1     -17.052  40.098 -11.781  0.00  0.00    +0.000 C 
ENDBRANCH   2   9
BRANCH   3  14
ATOM     12  O   UNL     1     -19.013  46.053 -12.243  0.00  0.00    +0.000 OA
ATOM     13  N   UNL     1     -19.260  44.217 -13.594  0.00  0.00    +0.000 N 
ATOM     14  C   UNL     1     -18.524  45.020 -12.729  0.00  0.00    +0.000 C 
ATOM     15  H   UNL     1     -18.879  43.365 -13.994  0.00  0.00    +0.000 HD
ATOM     16  H   UNL     1     -20.211  44.461 -13.851  0.00  0.00    +0.000 HD
ENDBRANCH   3  14
TORSDOF 2
ENDMDL
