MODEL 1
REMARK VINA RESULT:    -6.245      0.000      0.000
REMARK INTER + INTRA:          -6.837
REMARK INTER:                  -6.793
REMARK INTRA:                  -0.044
REMARK UNBOUND:                -0.044
REMARK  Name = 157589192
REMARK  2 active torsions:
REMARK  status: ('A' for Active; 'I' for Inactive)
REMARK    1  A    between atoms: N_5  and  C_11
REMARK    2  A    between atoms: C_7  and  C_11
REMARK                            x       y       z     vdW  Elec       q    Type
REMARK                         _______ _______ _______ _____ _____    ______ ____
ROOT
ATOM      1  O   UNL     1     -19.241  38.952 -11.300  0.00  0.00    +0.000 OA
ATOM      2  N   UNL     1     -17.619  40.592 -11.430  0.00  0.00    +0.000 N 
ATOM      3  N   UNL     1     -17.442  42.311  -9.815  0.00  0.00    +0.000 NA
ATOM      4  N   UNL     1     -18.933  42.389  -8.023  0.00  0.00    +0.000 NA
ATOM      5  C   UNL     1     -19.189  40.602  -9.614  0.00  0.00    +0.000 A 
ATOM      6  C   UNL     1     -17.038  41.727 -10.898  0.00  0.00    +0.000 A 
ATOM      7  C   UNL     1     -18.544  41.745  -9.148  0.00  0.00    +0.000 A 
ATOM      8  C   UNL     1     -18.705  39.958 -10.851  0.00  0.00    +0.000 A 
ATOM      9  C   UNL     1     -20.275  40.094  -8.904  0.00  0.00    +0.000 A 
ATOM     10  C   UNL     1     -20.686  40.743  -7.747  0.00  0.00    +0.000 A 
ATOM     11  C   UNL     1     -19.989  41.875  -7.353  0.00  0.00    +0.000 A 
ATOM     12  H   UNL     1     -17.240  40.190 -12.283  0.00  0.00    +0.000 HD
ENDROOT
BRANCH   6  13
ATOM     13  C   UNL     1     -15.870  42.260 -11.676  0.00  0.00    +0.000 C 
BRANCH  13  14
ATOM     14  N   UNL     1     -14.745  41.486 -11.210  0.00  0.00    +0.000 NA
ATOM     15  H   UNL     1     -15.089  40.686 -10.666  0.00  0.00    +0.000 HD
ENDBRANCH  13  14
ENDBRANCH   6  13
TORSDOF 2
ENDMDL
MODEL 2
REMARK VINA RESULT:    -5.763      3.470      5.353
REMARK INTER + INTRA:          -6.312
REMARK INTER:                  -6.259
REMARK INTRA:                  -0.052
REMARK UNBOUND:                -0.044
REMARK  Name = 157589192
REMARK  2 active torsions:
REMARK  status: ('A' for Active; 'I' for Inactive)
REMARK    1  A    between atoms: N_5  and  C_11
REMARK    2  A    between atoms: C_7  and  C_11
REMARK                            x       y       z     vdW  Elec       q    Type
REMARK                         _______ _______ _______ _____ _____    ______ ____
ROOT
ATOM      1  O   UNL     1     -16.971  43.803 -11.222  0.00  0.00    +0.000 OA
ATOM      2  N   UNL     1     -18.101  41.796 -11.033  0.00  0.00    +0.000 N 
ATOM      3  N   UNL     1     -19.622  41.054 -12.685  0.00  0.00    +0.000 NA
ATOM      4  N   UNL     1     -20.024  42.360 -14.576  0.00  0.00    +0.000 NA
ATOM      5  C   UNL     1     -18.458  43.196 -12.951  0.00  0.00    +0.000 A 
ATOM      6  C   UNL     1     -19.002  40.891 -11.560  0.00  0.00    +0.000 A 
ATOM      7  C   UNL     1     -19.353  42.231 -13.408  0.00  0.00    +0.000 A 
ATOM      8  C   UNL     1     -17.767  42.982 -11.665  0.00  0.00    +0.000 A 
ATOM      9  C   UNL     1     -18.238  44.339 -13.717  0.00  0.00    +0.000 A 
ATOM     10  C   UNL     1     -18.918  44.486 -14.919  0.00  0.00    +0.000 A 
ATOM     11  C   UNL     1     -19.792  43.479 -15.299  0.00  0.00    +0.000 A 
ATOM     12  H   UNL     1     -17.652  41.594 -10.145  0.00  0.00    +0.000 HD
ENDROOT
BRANCH   6  13
ATOM     13  C   UNL     1     -19.227  39.667 -10.722  0.00  0.00    +0.000 C 
BRANCH  13  14
ATOM     14  N   UNL     1     -19.572  38.638 -11.674  0.00  0.00    +0.000 NA
ATOM     15  H   UNL     1     -18.848  37.911 -11.659  0.00  0.00    +0.000 HD
ENDBRANCH  13  14
ENDBRANCH   6  13
TORSDOF 2
ENDMDL
MODEL 3
REMARK VINA RESULT:    -5.658      4.492      5.559
REMARK INTER + INTRA:          -6.198
REMARK INTER:                  -6.146
REMARK INTRA:                  -0.051
REMARK UNBOUND:                -0.044
REMARK  Name = 157589192
REMARK  2 active torsions:
REMARK  status: ('A' for Active; 'I' for Inactive)
REMARK    1  A    between atoms: N_5  and  C_11
REMARK    2  A    between atoms: C_7  and  C_11
REMARK                            x       y       z     vdW  Elec       q    Type
REMARK                         _______ _______ _______ _____ _____    ______ ____
ROOT
ATOM      1  O   UNL     1     -17.283  45.213 -13.434  0.00  0.00    +0.000 OA
ATOM      2  N   UNL     1     -18.741  44.378 -15.021  0.00  0.00    +0.000 N 
ATOM      3  N   UNL     1     -19.933  42.363 -14.690  0.00  0.00    +0.000 NA
ATOM      4  N   UNL     1     -19.656  41.151 -12.716  0.00  0.00    +0.000 NA
ATOM      5  C   UNL     1     -18.402  43.190 -12.962  0.00  0.00    +0.000 A 
ATOM      6  C   UNL     1     -19.630  43.395 -15.410  0.00  0.00    +0.000 A 
ATOM      7  C   UNL     1     -19.311  42.245 -13.433  0.00  0.00    +0.000 A 
ATOM      8  C   UNL     1     -18.077  44.356 -13.806  0.00  0.00    +0.000 A 
ATOM      9  C   UNL     1     -17.823  43.012 -11.708  0.00  0.00    +0.000 A 
ATOM     10  C   UNL     1     -18.167  41.894 -10.959  0.00  0.00    +0.000 A 
ATOM     11  C   UNL     1     -19.078  41.002 -11.502  0.00  0.00    +0.000 A 
ATOM     12  H   UNL     1     -18.558  45.161 -15.642  0.00  0.00    +0.000 HD
ENDROOT
BRANCH   6  13
ATOM     13  C   UNL     1     -20.245  43.603 -16.763  0.00  0.00    +0.000 C 
BRANCH  13  14
ATOM     14  N   UNL     1     -20.369  42.274 -17.310  0.00  0.00    +0.000 NA
ATOM     15  H   UNL     1     -19.616  41.685 -16.937  0.00  0.00    +0.000 HD
ENDBRANCH  13  14
ENDBRANCH   6  13
TORSDOF 2
ENDMDL
MODEL 4
REMARK VINA RESULT:    -4.916      4.891      5.956
REMARK INTER + INTRA:          -5.391
REMARK INTER:                  -5.345
REMARK INTRA:                  -0.046
REMARK UNBOUND:                -0.044
REMARK  Name = 157589192
REMARK  2 active torsions:
REMARK  status: ('A' for Active; 'I' for Inactive)
REMARK    1  A    between atoms: N_5  and  C_11
REMARK    2  A    between atoms: C_7  and  C_11
REMARK                            x       y       z     vdW  Elec       q    Type
REMARK                         _______ _______ _______ _____ _____    ______ ____
ROOT
ATOM      1  O   UNL     1     -18.911  41.272 -13.347  0.00  0.00    +0.000 OA
ATOM      2  N   UNL     1     -19.489  42.463 -15.241  0.00  0.00    +0.000 N 
ATOM      3  N   UNL     1     -19.149  44.797 -15.407  0.00  0.00    +0.000 NA
ATOM      4  N   UNL     1     -18.205  45.970 -13.625  0.00  0.00    +0.000 NA
ATOM      5  C   UNL     1     -18.510  43.597 -13.365  0.00  0.00    +0.000 A 
ATOM      6  C   UNL     1     -19.553  43.672 -15.905  0.00  0.00    +0.000 A 
ATOM      7  C   UNL     1     -18.613  44.773 -14.106  0.00  0.00    +0.000 A 
ATOM      8  C   UNL     1     -18.980  42.331 -13.961  0.00  0.00    +0.000 A 
ATOM      9  C   UNL     1     -17.970  43.645 -12.082  0.00  0.00    +0.000 A 
ATOM     10  C   UNL     1     -17.545  44.866 -11.575  0.00  0.00    +0.000 A 
ATOM     11  C   UNL     1     -17.684  45.987 -12.377  0.00  0.00    +0.000 A 
ATOM     12  H   UNL     1     -19.824  41.622 -15.702  0.00  0.00    +0.000 HD
ENDROOT
BRANCH   6  13
ATOM     13  C   UNL     1     -20.138  43.603 -17.285  0.00  0.00    +0.000 C 
BRANCH  13  14
ATOM     14  N   UNL     1     -19.094  43.017 -18.090  0.00  0.00    +0.000 NA
ATOM     15  H   UNL     1     -19.231  43.291 -19.070  0.00  0.00    +0.000 HD
ENDBRANCH  13  14
ENDBRANCH   6  13
TORSDOF 2
ENDMDL
MODEL 5
REMARK VINA RESULT:    -4.827      5.679      7.304
REMARK INTER + INTRA:          -5.294
REMARK INTER:                  -5.240
REMARK INTRA:                  -0.055
REMARK UNBOUND:                -0.044
REMARK  Name = 157589192
REMARK  2 active torsions:
REMARK  status: ('A' for Active; 'I' for Inactive)
REMARK    1  A    between atoms: N_5  and  C_11
REMARK    2  A    between atoms: C_7  and  C_11
REMARK                            x       y       z     vdW  Elec       q    Type
REMARK                         _______ _______ _______ _____ _____    ______ ____
ROOT
ATOM      1  O   UNL     1     -18.173  46.034 -14.302  0.00  0.00    +0.000 OA
ATOM      2  N   UNL     1     -18.632  43.962 -13.389  0.00  0.00    +0.000 N 
ATOM      3  N   UNL     1     -19.768  42.280 -14.603  0.00  0.00    +0.000 NA
ATOM      4  N   UNL     1     -20.465  42.688 -16.791  0.00  0.00    +0.000 NA
ATOM      5  C   UNL     1     -19.314  44.458 -15.636  0.00  0.00    +0.000 A 
ATOM      6  C   UNL     1     -19.182  42.703 -13.528  0.00  0.00    +0.000 A 
ATOM      7  C   UNL     1     -19.844  43.170 -15.691  0.00  0.00    +0.000 A 
ATOM      8  C   UNL     1     -18.652  44.910 -14.398  0.00  0.00    +0.000 A 
ATOM      9  C   UNL     1     -19.424  45.287 -16.750  0.00  0.00    +0.000 A 
ATOM     10  C   UNL     1     -20.059  44.807 -17.888  0.00  0.00    +0.000 A 
ATOM     11  C   UNL     1     -20.558  43.514 -17.858  0.00  0.00    +0.000 A 
ATOM     12  H   UNL     1     -18.184  44.217 -12.513  0.00  0.00    +0.000 HD
ENDROOT
BRANCH   6  13
ATOM     13  C   UNL     1     -19.055  41.823 -12.319  0.00  0.00    +0.000 C 
BRANCH  13  14
ATOM     14  N   UNL     1     -19.864  40.669 -12.628  0.00  0.00    +0.000 NA
ATOM     15  H   UNL     1     -20.093  40.176 -11.756  0.00  0.00    +0.000 HD
ENDBRANCH  13  14
ENDBRANCH   6  13
TORSDOF 2
ENDMDL
