MODEL 1
REMARK VINA RESULT:    -4.727      0.000      0.000
REMARK INTER + INTRA:          -6.003
REMARK INTER:                  -5.556
REMARK INTRA:                  -0.447
REMARK UNBOUND:                -0.447
REMARK  Name = 159748527
REMARK  8 active torsions:
REMARK  status: ('A' for Active; 'I' for Inactive)
REMARK    1  A    between atoms: N_2  and  C_5
REMARK    2  A    between atoms: N_2  and  C_11
REMARK    3  A    between atoms: N_3  and  C_6
REMARK    4  A    between atoms: C_5  and  C_7
REMARK    5  A    between atoms: C_5  and  C_8
REMARK    6  A    between atoms: C_6  and  C_13
REMARK    7  A    between atoms: C_6  and  C_14
REMARK    8  A    between atoms: C_9  and  C_10
REMARK                            x       y       z     vdW  Elec       q    Type
REMARK                         _______ _______ _______ _____ _____    ______ ____
ROOT
ATOM      1  N   UNL     1     -17.773  41.083 -11.045  0.00  0.00    +0.000 N 
ATOM      2  N   UNL     1     -18.273  42.919 -12.431  0.00  0.00    +0.000 NA
ATOM      3  C   UNL     1     -16.514  44.479 -12.994  0.00  0.00    +0.000 A 
ATOM      4  C   UNL     1     -17.365  42.227 -11.707  0.00  0.00    +0.000 A 
ATOM      5  C   UNL     1     -15.608  43.741 -12.240  0.00  0.00    +0.000 A 
ATOM      6  C   UNL     1     -16.033  42.592 -11.581  0.00  0.00    +0.000 A 
ATOM      7  C   UNL     1     -17.824  44.029 -13.057  0.00  0.00    +0.000 A 
ATOM      8  H   UNL     1     -17.045  40.430 -10.772  0.00  0.00    +0.000 HD
ENDROOT
BRANCH   3  11
ATOM      9  O   UNL     1     -15.828  45.568 -14.898  0.00  0.00    +0.000 OA
ATOM     10  N   UNL     1     -16.014  46.892 -12.980  0.00  0.00    +0.000 N 
ATOM     11  C   UNL     1     -16.100  45.681 -13.695  0.00  0.00    +0.000 C 
ATOM     12  C   UNL     1     -15.585  48.108 -13.656  0.00  0.00    +0.000 C 
BRANCH  10  13
ATOM     13  C   UNL     1     -16.334  47.035 -11.562  0.00  0.00    +0.000 C 
ATOM     14  C   UNL     1     -17.749  47.580 -11.419  0.00  0.00    +0.000 C 
ATOM     15  C   UNL     1     -15.316  47.955 -10.900  0.00  0.00    +0.000 C 
ENDBRANCH  10  13
ENDBRANCH   3  11
BRANCH   1  16
ATOM     16  C   UNL     1     -19.128  40.578 -11.082  0.00  0.00    +0.000 C 
ATOM     17  C   UNL     1     -19.177  39.313 -11.929  0.00  0.00    +0.000 C 
ATOM     18  C   UNL     1     -19.603  40.312  -9.659  0.00  0.00    +0.000 C 
ENDBRANCH   1  16
TORSDOF 3
ENDMDL
MODEL 2
REMARK VINA RESULT:    -4.491      2.803      3.667
REMARK INTER + INTRA:          -5.726
REMARK INTER:                  -5.256
REMARK INTRA:                  -0.470
REMARK UNBOUND:                -0.447
REMARK  Name = 159748527
REMARK  8 active torsions:
REMARK  status: ('A' for Active; 'I' for Inactive)
REMARK    1  A    between atoms: N_2  and  C_5
REMARK    2  A    between atoms: N_2  and  C_11
REMARK    3  A    between atoms: N_3  and  C_6
REMARK    4  A    between atoms: C_5  and  C_7
REMARK    5  A    between atoms: C_5  and  C_8
REMARK    6  A    between atoms: C_6  and  C_13
REMARK    7  A    between atoms: C_6  and  C_14
REMARK    8  A    between atoms: C_9  and  C_10
REMARK                            x       y       z     vdW  Elec       q    Type
REMARK                         _______ _______ _______ _____ _____    ______ ____
ROOT
ATOM      1  N   UNL     1     -16.475  41.908 -12.545  0.00  0.00    +0.000 N 
ATOM      2  N   UNL     1     -18.280  43.370 -12.928  0.00  0.00    +0.000 NA
ATOM      3  C   UNL     1     -17.830  45.617 -13.698  0.00  0.00    +0.000 A 
ATOM      4  C   UNL     1     -16.947  43.151 -12.931  0.00  0.00    +0.000 A 
ATOM      5  C   UNL     1     -16.464  45.354 -13.689  0.00  0.00    +0.000 A 
ATOM      6  C   UNL     1     -16.005  44.099 -13.299  0.00  0.00    +0.000 A 
ATOM      7  C   UNL     1     -18.689  44.600 -13.312  0.00  0.00    +0.000 A 
ATOM      8  H   UNL     1     -15.533  41.668 -12.837  0.00  0.00    +0.000 HD
ENDROOT
BRANCH   3  11
ATOM      9  O   UNL     1     -18.385  47.798 -13.232  0.00  0.00    +0.000 OA
ATOM     10  N   UNL     1     -18.761  47.100 -15.432  0.00  0.00    +0.000 N 
ATOM     11  C   UNL     1     -18.338  46.915 -14.101  0.00  0.00    +0.000 C 
ATOM     12  C   UNL     1     -19.290  48.389 -15.857  0.00  0.00    +0.000 C 
BRANCH  10  13
ATOM     13  C   UNL     1     -18.708  46.067 -16.463  0.00  0.00    +0.000 C 
ATOM     14  C   UNL     1     -17.710  46.480 -17.537  0.00  0.00    +0.000 C 
ATOM     15  C   UNL     1     -20.099  45.860 -17.049  0.00  0.00    +0.000 C 
ENDBRANCH  10  13
ENDBRANCH   3  11
BRANCH   1  16
ATOM     16  C   UNL     1     -17.335  40.819 -12.134  0.00  0.00    +0.000 C 
ATOM     17  C   UNL     1     -17.253  39.693 -13.157  0.00  0.00    +0.000 C 
ATOM     18  C   UNL     1     -16.914  40.343 -10.749  0.00  0.00    +0.000 C 
ENDBRANCH   1  16
TORSDOF 3
ENDMDL
MODEL 3
REMARK VINA RESULT:    -4.427     16.205     17.912
REMARK INTER + INTRA:          -5.651
REMARK INTER:                  -5.211
REMARK INTRA:                  -0.440
REMARK UNBOUND:                -0.447
REMARK  Name = 159748527
REMARK  8 active torsions:
REMARK  status: ('A' for Active; 'I' for Inactive)
REMARK    1  A    between atoms: N_2  and  C_5
REMARK    2  A    between atoms: N_2  and  C_11
REMARK    3  A    between atoms: N_3  and  C_6
REMARK    4  A    between atoms: C_5  and  C_7
REMARK    5  A    between atoms: C_5  and  C_8
REMARK    6  A    between atoms: C_6  and  C_13
REMARK    7  A    between atoms: C_6  and  C_14
REMARK    8  A    between atoms: C_9  and  C_10
REMARK                            x       y       z     vdW  Elec       q    Type
REMARK                         _______ _______ _______ _____ _____    ______ ____
ROOT
ATOM      1  N   UNL     1     -32.738  41.984 -16.798  0.00  0.00    +0.000 N 
ATOM      2  N   UNL     1     -32.790  42.657 -14.542  0.00  0.00    +0.000 NA
ATOM      3  C   UNL     1     -34.928  43.013 -13.471  0.00  0.00    +0.000 A 
ATOM      4  C   UNL     1     -33.461  42.332 -15.670  0.00  0.00    +0.000 A 
ATOM      5  C   UNL     1     -35.583  42.672 -14.650  0.00  0.00    +0.000 A 
ATOM      6  C   UNL     1     -34.843  42.323 -15.775  0.00  0.00    +0.000 A 
ATOM      7  C   UNL     1     -33.542  42.990 -13.470  0.00  0.00    +0.000 A 
ATOM      8  H   UNL     1     -33.234  41.464 -17.514  0.00  0.00    +0.000 HD
ENDROOT
BRANCH   3  11
ATOM      9  O   UNL     1     -36.068  42.456 -11.555  0.00  0.00    +0.000 OA
ATOM     10  N   UNL     1     -35.920  44.742 -12.022  0.00  0.00    +0.000 N 
ATOM     11  C   UNL     1     -35.673  43.379 -12.281  0.00  0.00    +0.000 C 
ATOM     12  C   UNL     1     -36.680  45.134 -10.843  0.00  0.00    +0.000 C 
BRANCH  10  13
ATOM     13  C   UNL     1     -35.458  45.837 -12.871  0.00  0.00    +0.000 C 
ATOM     14  C   UNL     1     -34.345  46.592 -12.155  0.00  0.00    +0.000 C 
ATOM     15  C   UNL     1     -36.628  46.756 -13.200  0.00  0.00    +0.000 C 
ENDBRANCH  10  13
ENDBRANCH   3  11
BRANCH   1  16
ATOM     16  C   UNL     1     -31.292  41.948 -16.841  0.00  0.00    +0.000 C 
ATOM     17  C   UNL     1     -30.838  40.765 -17.687  0.00  0.00    +0.000 C 
ATOM     18  C   UNL     1     -30.775  43.265 -17.405  0.00  0.00    +0.000 C 
ENDBRANCH   1  16
TORSDOF 3
ENDMDL
MODEL 4
REMARK VINA RESULT:    -4.417      1.441      2.293
REMARK INTER + INTRA:          -5.638
REMARK INTER:                  -5.193
REMARK INTRA:                  -0.446
REMARK UNBOUND:                -0.447
REMARK  Name = 159748527
REMARK  8 active torsions:
REMARK  status: ('A' for Active; 'I' for Inactive)
REMARK    1  A    between atoms: N_2  and  C_5
REMARK    2  A    between atoms: N_2  and  C_11
REMARK    3  A    between atoms: N_3  and  C_6
REMARK    4  A    between atoms: C_5  and  C_7
REMARK    5  A    between atoms: C_5  and  C_8
REMARK    6  A    between atoms: C_6  and  C_13
REMARK    7  A    between atoms: C_6  and  C_14
REMARK    8  A    between atoms: C_9  and  C_10
REMARK                            x       y       z     vdW  Elec       q    Type
REMARK                         _______ _______ _______ _____ _____    ______ ____
ROOT
ATOM      1  N   UNL     1     -17.412  41.053 -11.240  0.00  0.00    +0.000 N 
ATOM      2  N   UNL     1     -18.055  43.305 -11.475  0.00  0.00    +0.000 NA
ATOM      3  C   UNL     1     -16.377  44.954 -12.031  0.00  0.00    +0.000 A 
ATOM      4  C   UNL     1     -17.080  42.370 -11.505  0.00  0.00    +0.000 A 
ATOM      5  C   UNL     1     -15.401  43.964 -12.054  0.00  0.00    +0.000 A 
ATOM      6  C   UNL     1     -15.751  42.644 -11.787  0.00  0.00    +0.000 A 
ATOM      7  C   UNL     1     -17.678  44.576 -11.738  0.00  0.00    +0.000 A 
ATOM      8  H   UNL     1     -16.758  40.345 -11.558  0.00  0.00    +0.000 HD
ENDROOT
BRANCH   3  11
ATOM      9  O   UNL     1     -15.710  47.043 -11.343  0.00  0.00    +0.000 OA
ATOM     10  N   UNL     1     -16.126  46.812 -13.632  0.00  0.00    +0.000 N 
ATOM     11  C   UNL     1     -16.043  46.340 -12.307  0.00  0.00    +0.000 C 
ATOM     12  C   UNL     1     -15.812  48.201 -13.932  0.00  0.00    +0.000 C 
BRANCH  10  13
ATOM     13  C   UNL     1     -16.515  45.989 -14.775  0.00  0.00    +0.000 C 
ATOM     14  C   UNL     1     -15.635  46.340 -15.968  0.00  0.00    +0.000 C 
ATOM     15  C   UNL     1     -17.989  46.216 -15.088  0.00  0.00    +0.000 C 
ENDBRANCH  10  13
ENDBRANCH   3  11
BRANCH   1  16
ATOM     16  C   UNL     1     -18.756  40.614 -10.930  0.00  0.00    +0.000 C 
ATOM     17  C   UNL     1     -19.060  39.330 -11.690  0.00  0.00    +0.000 C 
ATOM     18  C   UNL     1     -18.882  40.411  -9.425  0.00  0.00    +0.000 C 
ENDBRANCH   1  16
TORSDOF 3
ENDMDL
MODEL 5
REMARK VINA RESULT:    -4.318     16.335     19.808
REMARK INTER + INTRA:          -5.523
REMARK INTER:                  -5.064
REMARK INTRA:                  -0.459
REMARK UNBOUND:                -0.447
REMARK  Name = 159748527
REMARK  8 active torsions:
REMARK  status: ('A' for Active; 'I' for Inactive)
REMARK    1  A    between atoms: N_2  and  C_5
REMARK    2  A    between atoms: N_2  and  C_11
REMARK    3  A    between atoms: N_3  and  C_6
REMARK    4  A    between atoms: C_5  and  C_7
REMARK    5  A    between atoms: C_5  and  C_8
REMARK    6  A    between atoms: C_6  and  C_13
REMARK    7  A    between atoms: C_6  and  C_14
REMARK    8  A    between atoms: C_9  and  C_10
REMARK                            x       y       z     vdW  Elec       q    Type
REMARK                         _______ _______ _______ _____ _____    ______ ____
ROOT
ATOM      1  N   UNL     1     -21.025  28.823   4.152  0.00  0.00    +0.000 N 
ATOM      2  N   UNL     1     -21.788  31.027   3.833  0.00  0.00    +0.000 NA
ATOM      3  C   UNL     1     -20.954  32.298   1.954  0.00  0.00    +0.000 A 
ATOM      4  C   UNL     1     -21.013  29.999   3.423  0.00  0.00    +0.000 A 
ATOM      5  C   UNL     1     -20.169  31.219   1.562  0.00  0.00    +0.000 A 
ATOM      6  C   UNL     1     -20.193  30.042   2.305  0.00  0.00    +0.000 A 
ATOM      7  C   UNL     1     -21.738  32.153   3.087  0.00  0.00    +0.000 A 
ATOM      8  H   UNL     1     -20.692  27.990   3.679  0.00  0.00    +0.000 HD
ENDROOT
BRANCH   3  11
ATOM      9  O   UNL     1     -21.787  33.647   0.290  0.00  0.00    +0.000 OA
ATOM     10  N   UNL     1     -20.004  34.531   1.518  0.00  0.00    +0.000 N 
ATOM     11  C   UNL     1     -20.951  33.538   1.198  0.00  0.00    +0.000 C 
ATOM     12  C   UNL     1     -19.970  35.775   0.763  0.00  0.00    +0.000 C 
BRANCH  10  13
ATOM     13  C   UNL     1     -19.016  34.411   2.587  0.00  0.00    +0.000 C 
ATOM     14  C   UNL     1     -19.484  35.212   3.795  0.00  0.00    +0.000 C 
ATOM     15  C   UNL     1     -17.663  34.901   2.087  0.00  0.00    +0.000 C 
ENDBRANCH  10  13
ENDBRANCH   3  11
BRANCH   1  16
ATOM     16  C   UNL     1     -21.827  28.627   5.341  0.00  0.00    +0.000 C 
ATOM     17  C   UNL     1     -23.095  27.864   4.979  0.00  0.00    +0.000 C 
ATOM     18  C   UNL     1     -21.006  27.879   6.383  0.00  0.00    +0.000 C 
ENDBRANCH   1  16
TORSDOF 3
ENDMDL
