MODEL 1
REMARK VINA RESULT:    -6.447      0.000      0.000
REMARK INTER + INTRA:          -5.806
REMARK INTER:                  -6.824
REMARK INTRA:                   1.018
REMARK UNBOUND:                 1.018
REMARK  Name = 162271409
REMARK  4 active torsions:
REMARK  status: ('A' for Active; 'I' for Inactive)
REMARK    1  A    between atoms: N_2  and  C_5
REMARK    2  A    between atoms: C_5  and  C_6
REMARK    3  A    between atoms: C_5  and  C_7
REMARK    4  A    between atoms: C_5  and  C_8
REMARK                            x       y       z     vdW  Elec       q    Type
REMARK                         _______ _______ _______ _____ _____    ______ ____
ROOT
ATOM      1  O   UNL     1     -19.720  38.581 -11.952  0.00  0.00    +0.000 OA
ATOM      2  N   UNL     1     -17.580  41.982 -11.941  0.00  0.00    +0.000 N 
ATOM      3  N   UNL     1     -18.078  42.359  -9.604  0.00  0.00    +0.000 NA
ATOM      4  N   UNL     1     -18.420  40.065 -13.115  0.00  0.00    +0.000 NA
ATOM      5  C   UNL     1     -18.198  41.607 -10.730  0.00  0.00    +0.000 A 
ATOM      6  C   UNL     1     -17.749  41.169 -13.033  0.00  0.00    +0.000 A 
ATOM      7  C   UNL     1     -18.946  40.421 -10.727  0.00  0.00    +0.000 A 
ATOM      8  C   UNL     1     -19.060  39.616 -11.976  0.00  0.00    +0.000 A 
ATOM      9  C   UNL     1     -19.577  40.005  -9.553  0.00  0.00    +0.000 A 
ATOM     10  C   UNL     1     -18.700  41.931  -8.482  0.00  0.00    +0.000 A 
ATOM     11  C   UNL     1     -19.454  40.774  -8.406  0.00  0.00    +0.000 A 
ENDROOT
BRANCH   2  12
ATOM     12  C   UNL     1     -16.803  43.209 -11.952  0.00  0.00    +0.000 C 
ATOM     13  C   UNL     1     -15.490  42.959 -11.209  0.00  0.00    +0.000 C 
ATOM     14  C   UNL     1     -16.524  43.603 -13.405  0.00  0.00    +0.000 C 
ATOM     15  C   UNL     1     -17.607  44.310 -11.255  0.00  0.00    +0.000 C 
ENDBRANCH   2  12
TORSDOF 1
ENDMDL
MODEL 2
REMARK VINA RESULT:    -5.212      2.284      2.941
REMARK INTER + INTRA:          -4.499
REMARK INTER:                  -5.490
REMARK INTRA:                   0.991
REMARK UNBOUND:                 1.018
REMARK  Name = 162271409
REMARK  4 active torsions:
REMARK  status: ('A' for Active; 'I' for Inactive)
REMARK    1  A    between atoms: N_2  and  C_5
REMARK    2  A    between atoms: C_5  and  C_6
REMARK    3  A    between atoms: C_5  and  C_7
REMARK    4  A    between atoms: C_5  and  C_8
REMARK                            x       y       z     vdW  Elec       q    Type
REMARK                         _______ _______ _______ _____ _____    ______ ____
ROOT
ATOM      1  O   UNL     1     -19.614  39.704 -12.800  0.00  0.00    +0.000 OA
ATOM      2  N   UNL     1     -18.097  43.422 -12.936  0.00  0.00    +0.000 N 
ATOM      3  N   UNL     1     -16.073  42.702 -11.824  0.00  0.00    +0.000 NA
ATOM      4  N   UNL     1     -19.880  41.892 -13.423  0.00  0.00    +0.000 NA
ATOM      5  C   UNL     1     -17.301  42.424 -12.336  0.00  0.00    +0.000 A 
ATOM      6  C   UNL     1     -19.325  43.061 -13.429  0.00  0.00    +0.000 A 
ATOM      7  C   UNL     1     -17.825  41.124 -12.285  0.00  0.00    +0.000 A 
ATOM      8  C   UNL     1     -19.175  40.848 -12.855  0.00  0.00    +0.000 A 
ATOM      9  C   UNL     1     -17.076  40.101 -11.702  0.00  0.00    +0.000 A 
ATOM     10  C   UNL     1     -15.372  41.690 -11.265  0.00  0.00    +0.000 A 
ATOM     11  C   UNL     1     -15.824  40.386 -11.179  0.00  0.00    +0.000 A 
ENDROOT
BRANCH   2  12
ATOM     12  C   UNL     1     -17.562  44.771 -12.993  0.00  0.00    +0.000 C 
ATOM     13  C   UNL     1     -18.455  45.611 -13.907  0.00  0.00    +0.000 C 
ATOM     14  C   UNL     1     -17.548  45.357 -11.579  0.00  0.00    +0.000 C 
ATOM     15  C   UNL     1     -16.136  44.713 -13.551  0.00  0.00    +0.000 C 
ENDBRANCH   2  12
TORSDOF 1
ENDMDL
MODEL 3
REMARK VINA RESULT:    -4.763     13.917     14.749
REMARK INTER + INTRA:          -4.023
REMARK INTER:                  -4.972
REMARK INTRA:                   0.949
REMARK UNBOUND:                 1.018
REMARK  Name = 162271409
REMARK  4 active torsions:
REMARK  status: ('A' for Active; 'I' for Inactive)
REMARK    1  A    between atoms: N_2  and  C_5
REMARK    2  A    between atoms: C_5  and  C_6
REMARK    3  A    between atoms: C_5  and  C_7
REMARK    4  A    between atoms: C_5  and  C_8
REMARK                            x       y       z     vdW  Elec       q    Type
REMARK                         _______ _______ _______ _____ _____    ______ ____
ROOT
ATOM      1  O   UNL     1     -30.874  45.930 -12.777  0.00  0.00    +0.000 OA
ATOM      2  N   UNL     1     -31.043  43.882 -16.230  0.00  0.00    +0.000 N 
ATOM      3  N   UNL     1     -32.925  42.585 -15.438  0.00  0.00    +0.000 NA
ATOM      4  N   UNL     1     -30.016  45.572 -14.870  0.00  0.00    +0.000 NA
ATOM      5  C   UNL     1     -31.992  43.553 -15.239  0.00  0.00    +0.000 A 
ATOM      6  C   UNL     1     -30.134  44.870 -15.952  0.00  0.00    +0.000 A 
ATOM      7  C   UNL     1     -31.938  44.264 -14.032  0.00  0.00    +0.000 A 
ATOM      8  C   UNL     1     -30.903  45.320 -13.841  0.00  0.00    +0.000 A 
ATOM      9  C   UNL     1     -32.855  43.975 -13.020  0.00  0.00    +0.000 A 
ATOM     10  C   UNL     1     -33.800  42.328 -14.439  0.00  0.00    +0.000 A 
ATOM     11  C   UNL     1     -33.806  42.988 -13.224  0.00  0.00    +0.000 A 
ENDROOT
BRANCH   2  12
ATOM     12  C   UNL     1     -31.093  43.151 -17.484  0.00  0.00    +0.000 C 
ATOM     13  C   UNL     1     -32.510  43.253 -18.051  0.00  0.00    +0.000 C 
ATOM     14  C   UNL     1     -30.086  43.770 -18.456  0.00  0.00    +0.000 C 
ATOM     15  C   UNL     1     -30.732  41.687 -17.216  0.00  0.00    +0.000 C 
ENDBRANCH   2  12
TORSDOF 1
ENDMDL
MODEL 4
REMARK VINA RESULT:    -4.702      3.153      5.000
REMARK INTER + INTRA:          -3.959
REMARK INTER:                  -4.895
REMARK INTRA:                   0.936
REMARK UNBOUND:                 1.018
REMARK  Name = 162271409
REMARK  4 active torsions:
REMARK  status: ('A' for Active; 'I' for Inactive)
REMARK    1  A    between atoms: N_2  and  C_5
REMARK    2  A    between atoms: C_5  and  C_6
REMARK    3  A    between atoms: C_5  and  C_7
REMARK    4  A    between atoms: C_5  and  C_8
REMARK                            x       y       z     vdW  Elec       q    Type
REMARK                         _______ _______ _______ _____ _____    ______ ____
ROOT
ATOM      1  O   UNL     1     -19.841  41.279 -13.165  0.00  0.00    +0.000 OA
ATOM      2  N   UNL     1     -17.718  44.691 -13.226  0.00  0.00    +0.000 N 
ATOM      3  N   UNL     1     -18.686  45.326 -15.350  0.00  0.00    +0.000 NA
ATOM      4  N   UNL     1     -18.314  42.639 -12.133  0.00  0.00    +0.000 NA
ATOM      5  C   UNL     1     -18.577  44.448 -14.318  0.00  0.00    +0.000 A 
ATOM      6  C   UNL     1     -17.665  43.756 -12.224  0.00  0.00    +0.000 A 
ATOM      7  C   UNL     1     -19.320  43.259 -14.303  0.00  0.00    +0.000 A 
ATOM      8  C   UNL     1     -19.181  42.314 -13.158  0.00  0.00    +0.000 A 
ATOM      9  C   UNL     1     -20.185  42.972 -15.361  0.00  0.00    +0.000 A 
ATOM     10  C   UNL     1     -19.531  45.020 -16.360  0.00  0.00    +0.000 A 
ATOM     11  C   UNL     1     -20.294  43.868 -16.413  0.00  0.00    +0.000 A 
ENDROOT
BRANCH   2  12
ATOM     12  C   UNL     1     -16.945  45.921 -13.233  0.00  0.00    +0.000 C 
ATOM     13  C   UNL     1     -17.913  47.103 -13.309  0.00  0.00    +0.000 C 
ATOM     14  C   UNL     1     -16.119  45.992 -11.946  0.00  0.00    +0.000 C 
ATOM     15  C   UNL     1     -16.018  45.913 -14.452  0.00  0.00    +0.000 C 
ENDBRANCH   2  12
TORSDOF 1
ENDMDL
MODEL 5
REMARK VINA RESULT:    -4.535     22.281     23.686
REMARK INTER + INTRA:          -3.782
REMARK INTER:                  -4.722
REMARK INTRA:                   0.939
REMARK UNBOUND:                 1.018
REMARK  Name = 162271409
REMARK  4 active torsions:
REMARK  status: ('A' for Active; 'I' for Inactive)
REMARK    1  A    between atoms: N_2  and  C_5
REMARK    2  A    between atoms: C_5  and  C_6
REMARK    3  A    between atoms: C_5  and  C_7
REMARK    4  A    between atoms: C_5  and  C_8
REMARK                            x       y       z     vdW  Elec       q    Type
REMARK                         _______ _______ _______ _____ _____    ______ ____
ROOT
ATOM      1  O   UNL     1     -30.885  45.776   7.455  0.00  0.00    +0.000 OA
ATOM      2  N   UNL     1     -33.935  45.887   4.842  0.00  0.00    +0.000 N 
ATOM      3  N   UNL     1     -35.313  44.536   6.300  0.00  0.00    +0.000 NA
ATOM      4  N   UNL     1     -31.696  46.507   5.442  0.00  0.00    +0.000 NA
ATOM      5  C   UNL     1     -34.139  45.167   6.038  0.00  0.00    +0.000 A 
ATOM      6  C   UNL     1     -32.722  46.497   4.652  0.00  0.00    +0.000 A 
ATOM      7  C   UNL     1     -33.078  45.124   6.954  0.00  0.00    +0.000 A 
ATOM      8  C   UNL     1     -31.801  45.826   6.640  0.00  0.00    +0.000 A 
ATOM      9  C   UNL     1     -33.229  44.425   8.152  0.00  0.00    +0.000 A 
ATOM     10  C   UNL     1     -35.429  43.866   7.469  0.00  0.00    +0.000 A 
ATOM     11  C   UNL     1     -34.427  43.780   8.418  0.00  0.00    +0.000 A 
ENDROOT
BRANCH   2  12
ATOM     12  C   UNL     1     -35.030  45.937   3.888  0.00  0.00    +0.000 C 
ATOM     13  C   UNL     1     -35.295  44.520   3.377  0.00  0.00    +0.000 C 
ATOM     14  C   UNL     1     -36.272  46.490   4.591  0.00  0.00    +0.000 C 
ATOM     15  C   UNL     1     -34.632  46.854   2.728  0.00  0.00    +0.000 C 
ENDBRANCH   2  12
TORSDOF 1
ENDMDL
