MODEL 1
REMARK VINA RESULT:    -6.972      0.000      0.000
REMARK INTER + INTRA:          -8.197
REMARK INTER:                  -7.787
REMARK INTRA:                  -0.410
REMARK UNBOUND:                -0.410
REMARK  Name = 162651847
REMARK  3 active torsions:
REMARK  status: ('A' for Active; 'I' for Inactive)
REMARK    1  A    between atoms: N_3  and  C_9
REMARK    2  A    between atoms: C_6  and  C_11
REMARK    3  A    between atoms: C_11  and  C_12
REMARK                            x       y       z     vdW  Elec       q    Type
REMARK                         _______ _______ _______ _____ _____    ______ ____
ROOT
ATOM      1  N   UNL     1     -19.597  39.701  -9.596  0.00  0.00    +0.000 NA
ATOM      2  C   UNL     1     -20.838  41.123  -8.086  0.00  0.00    +0.000 A 
ATOM      3  C   UNL     1     -19.714  41.920  -7.900  0.00  0.00    +0.000 A 
ATOM      4  C   UNL     1     -18.531  41.609  -8.560  0.00  0.00    +0.000 A 
ATOM      5  C   UNL     1     -18.525  40.498  -9.389  0.00  0.00    +0.000 A 
ATOM      6  C   UNL     1     -20.729  40.035  -8.937  0.00  0.00    +0.000 A 
ENDROOT
BRANCH   5   7
ATOM      7  N   UNL     1     -17.360  40.145 -10.076  0.00  0.00    +0.000 NA
ATOM      8  N   UNL     1     -18.449  40.677 -12.073  0.00  0.00    +0.000 N 
ATOM      9  N   UNL     1     -16.295  39.940 -12.230  0.00  0.00    +0.000 N 
ATOM     10  C   UNL     1     -17.342  40.239 -11.385  0.00  0.00    +0.000 C 
ATOM     11  H   UNL     1     -19.313  40.955 -11.622  0.00  0.00    +0.000 HD
ATOM     12  H   UNL     1     -18.432  40.746 -13.085  0.00  0.00    +0.000 HD
ATOM     13  H   UNL     1     -15.410  39.604 -11.867  0.00  0.00    +0.000 HD
ATOM     14  H   UNL     1     -16.378  40.045 -13.235  0.00  0.00    +0.000 HD
ENDBRANCH   5   7
BRANCH   2  16
ATOM     15  O   UNL     1     -23.122  40.755  -7.626  0.00  0.00    +0.000 OA
ATOM     16  C   UNL     1     -22.090  41.422  -7.410  0.00  0.00    +0.000 C 
ATOM     17  C   UNL     1     -22.171  42.572  -6.412  0.00  0.00    +0.000 C 
ENDBRANCH   2  16
TORSDOF 2
ENDMDL
MODEL 2
REMARK VINA RESULT:    -6.382      2.910      5.122
REMARK INTER + INTRA:          -7.537
REMARK INTER:                  -7.222
REMARK INTRA:                  -0.315
REMARK UNBOUND:                -0.410
REMARK  Name = 162651847
REMARK  3 active torsions:
REMARK  status: ('A' for Active; 'I' for Inactive)
REMARK    1  A    between atoms: N_3  and  C_9
REMARK    2  A    between atoms: C_6  and  C_11
REMARK    3  A    between atoms: C_11  and  C_12
REMARK                            x       y       z     vdW  Elec       q    Type
REMARK                         _______ _______ _______ _____ _____    ______ ____
ROOT
ATOM      1  N   UNL     1     -19.785  40.183  -8.724  0.00  0.00    +0.000 NA
ATOM      2  C   UNL     1     -18.790  40.460 -10.909  0.00  0.00    +0.000 A 
ATOM      3  C   UNL     1     -18.171  41.632 -10.487  0.00  0.00    +0.000 A 
ATOM      4  C   UNL     1     -18.359  42.080  -9.185  0.00  0.00    +0.000 A 
ATOM      5  C   UNL     1     -19.168  41.326  -8.350  0.00  0.00    +0.000 A 
ATOM      6  C   UNL     1     -19.580  39.778  -9.997  0.00  0.00    +0.000 A 
ENDROOT
BRANCH   5   7
ATOM      7  N   UNL     1     -19.386  41.735  -7.031  0.00  0.00    +0.000 NA
ATOM      8  N   UNL     1     -21.659  41.934  -7.533  0.00  0.00    +0.000 N 
ATOM      9  N   UNL     1     -21.018  42.444  -5.404  0.00  0.00    +0.000 N 
ATOM     10  C   UNL     1     -20.608  42.027  -6.652  0.00  0.00    +0.000 C 
ATOM     11  H   UNL     1     -21.555  41.632  -8.495  0.00  0.00    +0.000 HD
ATOM     12  H   UNL     1     -22.602  42.163  -7.237  0.00  0.00    +0.000 HD
ATOM     13  H   UNL     1     -20.353  42.560  -4.647  0.00  0.00    +0.000 HD
ATOM     14  H   UNL     1     -21.991  42.647  -5.205  0.00  0.00    +0.000 HD
ENDBRANCH   5   7
BRANCH   2  16
ATOM     15  O   UNL     1     -19.554  39.438 -12.893  0.00  0.00    +0.000 OA
ATOM     16  C   UNL     1     -18.614  39.965 -12.264  0.00  0.00    +0.000 C 
ATOM     17  C   UNL     1     -17.258  40.077 -12.955  0.00  0.00    +0.000 C 
ENDBRANCH   2  16
TORSDOF 2
ENDMDL
MODEL 3
REMARK VINA RESULT:    -5.381      3.537      4.648
REMARK INTER + INTRA:          -6.420
REMARK INTER:                  -6.006
REMARK INTRA:                  -0.414
REMARK UNBOUND:                -0.410
REMARK  Name = 162651847
REMARK  3 active torsions:
REMARK  status: ('A' for Active; 'I' for Inactive)
REMARK    1  A    between atoms: N_3  and  C_9
REMARK    2  A    between atoms: C_6  and  C_11
REMARK    3  A    between atoms: C_11  and  C_12
REMARK                            x       y       z     vdW  Elec       q    Type
REMARK                         _______ _______ _______ _____ _____    ______ ____
ROOT
ATOM      1  N   UNL     1     -17.034  41.858 -13.129  0.00  0.00    +0.000 NA
ATOM      2  C   UNL     1     -18.231  41.032 -11.198  0.00  0.00    +0.000 A 
ATOM      3  C   UNL     1     -17.741  42.085 -10.435  0.00  0.00    +0.000 A 
ATOM      4  C   UNL     1     -16.896  43.024 -11.016  0.00  0.00    +0.000 A 
ATOM      5  C   UNL     1     -16.576  42.866 -12.355  0.00  0.00    +0.000 A 
ATOM      6  C   UNL     1     -17.852  40.964 -12.529  0.00  0.00    +0.000 A 
ENDROOT
BRANCH   5   7
ATOM      7  N   UNL     1     -15.732  43.786 -12.985  0.00  0.00    +0.000 NA
ATOM      8  N   UNL     1     -17.572  44.541 -14.212  0.00  0.00    +0.000 N 
ATOM      9  N   UNL     1     -15.569  45.559 -14.611  0.00  0.00    +0.000 N 
ATOM     10  C   UNL     1     -16.236  44.594 -13.889  0.00  0.00    +0.000 C 
ATOM     11  H   UNL     1     -18.226  43.901 -13.777  0.00  0.00    +0.000 HD
ATOM     12  H   UNL     1     -17.957  45.165 -14.912  0.00  0.00    +0.000 HD
ATOM     13  H   UNL     1     -14.576  45.716 -14.481  0.00  0.00    +0.000 HD
ATOM     14  H   UNL     1     -16.048  46.138 -15.291  0.00  0.00    +0.000 HD
ENDBRANCH   5   7
BRANCH   2  16
ATOM     15  O   UNL     1     -19.272  38.916 -11.151  0.00  0.00    +0.000 OA
ATOM     16  C   UNL     1     -19.115  40.035 -10.620  0.00  0.00    +0.000 C 
ATOM     17  C   UNL     1     -19.882  40.336  -9.337  0.00  0.00    +0.000 C 
ENDBRANCH   2  16
TORSDOF 2
ENDMDL
MODEL 4
REMARK VINA RESULT:    -5.335      2.875      3.590
REMARK INTER + INTRA:          -6.369
REMARK INTER:                  -5.974
REMARK INTRA:                  -0.395
REMARK UNBOUND:                -0.410
REMARK  Name = 162651847
REMARK  3 active torsions:
REMARK  status: ('A' for Active; 'I' for Inactive)
REMARK    1  A    between atoms: N_3  and  C_9
REMARK    2  A    between atoms: C_6  and  C_11
REMARK    3  A    between atoms: C_11  and  C_12
REMARK                            x       y       z     vdW  Elec       q    Type
REMARK                         _______ _______ _______ _____ _____    ______ ____
ROOT
ATOM      1  N   UNL     1     -18.986  41.675 -12.325  0.00  0.00    +0.000 NA
ATOM      2  C   UNL     1     -19.160  41.289  -9.945  0.00  0.00    +0.000 A 
ATOM      3  C   UNL     1     -18.099  42.158  -9.718  0.00  0.00    +0.000 A 
ATOM      4  C   UNL     1     -17.480  42.785 -10.793  0.00  0.00    +0.000 A 
ATOM      5  C   UNL     1     -17.957  42.513 -12.065  0.00  0.00    +0.000 A 
ATOM      6  C   UNL     1     -19.563  41.083 -11.255  0.00  0.00    +0.000 A 
ENDROOT
BRANCH   5   7
ATOM      7  N   UNL     1     -17.369  43.121 -13.178  0.00  0.00    +0.000 NA
ATOM      8  N   UNL     1     -19.156  44.624 -13.226  0.00  0.00    +0.000 N 
ATOM      9  N   UNL     1     -17.547  44.874 -14.823  0.00  0.00    +0.000 N 
ATOM     10  C   UNL     1     -17.969  44.149 -13.731  0.00  0.00    +0.000 C 
ATOM     11  H   UNL     1     -19.617  44.225 -12.416  0.00  0.00    +0.000 HD
ATOM     12  H   UNL     1     -19.619  45.417 -13.657  0.00  0.00    +0.000 HD
ATOM     13  H   UNL     1     -16.685  44.641 -15.304  0.00  0.00    +0.000 HD
ATOM     14  H   UNL     1     -18.083  45.658 -15.179  0.00  0.00    +0.000 HD
ENDBRANCH   5   7
BRANCH   2  16
ATOM     15  O   UNL     1     -20.482  39.569  -9.019  0.00  0.00    +0.000 OA
ATOM     16  C   UNL     1     -19.828  40.617  -8.843  0.00  0.00    +0.000 C 
ATOM     17  C   UNL     1     -19.745  41.186  -7.430  0.00  0.00    +0.000 C 
ENDBRANCH   2  16
TORSDOF 2
ENDMDL
MODEL 5
REMARK VINA RESULT:    -5.195      4.568      6.273
REMARK INTER + INTRA:          -6.212
REMARK INTER:                  -5.839
REMARK INTRA:                  -0.373
REMARK UNBOUND:                -0.410
REMARK  Name = 162651847
REMARK  3 active torsions:
REMARK  status: ('A' for Active; 'I' for Inactive)
REMARK    1  A    between atoms: N_3  and  C_9
REMARK    2  A    between atoms: C_6  and  C_11
REMARK    3  A    between atoms: C_11  and  C_12
REMARK                            x       y       z     vdW  Elec       q    Type
REMARK                         _______ _______ _______ _____ _____    ______ ____
ROOT
ATOM      1  N   UNL     1     -19.374  42.285 -13.961  0.00  0.00    +0.000 NA
ATOM      2  C   UNL     1     -18.067  44.313 -13.823  0.00  0.00    +0.000 A 
ATOM      3  C   UNL     1     -17.042  43.620 -13.189  0.00  0.00    +0.000 A 
ATOM      4  C   UNL     1     -17.183  42.259 -12.939  0.00  0.00    +0.000 A 
ATOM      5  C   UNL     1     -18.358  41.644 -13.341  0.00  0.00    +0.000 A 
ATOM      6  C   UNL     1     -19.202  43.607 -14.186  0.00  0.00    +0.000 A 
ENDROOT
BRANCH   5   7
ATOM      7  N   UNL     1     -18.545  40.278 -13.114  0.00  0.00    +0.000 NA
ATOM      8  N   UNL     1     -19.854  40.827 -11.259  0.00  0.00    +0.000 N 
ATOM      9  N   UNL     1     -19.574  38.609 -11.712  0.00  0.00    +0.000 N 
ATOM     10  C   UNL     1     -19.277  39.899 -12.094  0.00  0.00    +0.000 C 
ATOM     11  H   UNL     1     -19.758  41.828 -11.387  0.00  0.00    +0.000 HD
ATOM     12  H   UNL     1     -20.418  40.531 -10.470  0.00  0.00    +0.000 HD
ATOM     13  H   UNL     1     -19.219  37.814 -12.233  0.00  0.00    +0.000 HD
ATOM     14  H   UNL     1     -20.153  38.415 -10.902  0.00  0.00    +0.000 HD
ENDBRANCH   5   7
BRANCH   2  16
ATOM     15  O   UNL     1     -18.678  46.572 -13.524  0.00  0.00    +0.000 OA
ATOM     16  C   UNL     1     -17.951  45.735 -14.098  0.00  0.00    +0.000 C 
ATOM     17  C   UNL     1     -16.927  46.244 -15.108  0.00  0.00    +0.000 C 
ENDBRANCH   2  16
TORSDOF 2
ENDMDL
