MODEL 1
REMARK VINA RESULT:    -6.463      0.000      0.000
REMARK INTER + INTRA:          -7.635
REMARK INTER:                  -7.219
REMARK INTRA:                  -0.416
REMARK UNBOUND:                -0.416
REMARK  Name = 163727827
REMARK  5 active torsions:
REMARK  status: ('A' for Active; 'I' for Inactive)
REMARK    1  A    between atoms: N_2  and  C_8
REMARK    2  A    between atoms: C_5  and  C_11
REMARK    3  A    between atoms: C_7  and  C_12
REMARK    4  A    between atoms: C_10  and  C_13
REMARK    5  A    between atoms: C_14  and  C_15
REMARK                            x       y       z     vdW  Elec       q    Type
REMARK                         _______ _______ _______ _____ _____    ______ ____
ROOT
ATOM      1  O   UNL     1     -20.398  42.343 -13.759  0.00  0.00    +0.000 OA
ATOM      2  N   UNL     1     -18.114  42.771 -13.680  0.00  0.00    +0.000 N 
ATOM      3  C   UNL     1     -19.374  42.814 -14.249  0.00  0.00    +0.000 C 
ATOM      4  H   UNL     1     -17.322  42.883 -14.308  0.00  0.00    +0.000 HD
ENDROOT
BRANCH   3   7
ATOM      5  N   UNL     1     -19.134  45.545 -16.834  0.00  0.00    +0.000 NA
ATOM      6  N   UNL     1     -19.667  45.562 -19.156  0.00  0.00    +0.000 N 
ATOM      7  C   UNL     1     -19.462  43.519 -15.554  0.00  0.00    +0.000 A 
ATOM      8  C   UNL     1     -19.925  42.867 -16.692  0.00  0.00    +0.000 A 
ATOM      9  C   UNL     1     -19.082  44.847 -15.677  0.00  0.00    +0.000 A 
ATOM     10  C   UNL     1     -19.994  43.553 -17.900  0.00  0.00    +0.000 A 
ATOM     11  C   UNL     1     -19.590  44.878 -17.917  0.00  0.00    +0.000 A 
ATOM     12  H   UNL     1     -19.365  46.529 -19.165  0.00  0.00    +0.000 HD
ATOM     13  H   UNL     1     -19.581  45.026 -20.010  0.00  0.00    +0.000 HD
ENDBRANCH   3   7
BRANCH   2  17
ATOM     14  C   UNL     1     -17.909  41.054  -9.796  0.00  0.00    +0.000 C 
ATOM     15  C   UNL     1     -17.427  40.215 -10.994  0.00  0.00    +0.000 C 
ATOM     16  C   UNL     1     -17.701  40.840 -12.349  0.00  0.00    +0.000 C 
ATOM     17  C   UNL     1     -17.856  42.180 -12.470  0.00  0.00    +0.000 C 
ATOM     18  C   UNL     1     -17.772  42.528 -10.055  0.00  0.00    +0.000 C 
ATOM     19  C   UNL     1     -17.738  43.052 -11.295  0.00  0.00    +0.000 C 
ATOM     20  C   UNL     1     -19.361  40.729  -9.431  0.00  0.00    +0.000 C 
ATOM     21  C   UNL     1     -17.743  39.841 -13.475  0.00  0.00    +0.000 C 
ATOM     22  C   UNL     1     -17.584  44.538 -11.481  0.00  0.00    +0.000 C 
ENDBRANCH   2  17
TORSDOF 2
ENDMDL
MODEL 2
REMARK VINA RESULT:    -6.223      2.501      6.851
REMARK INTER + INTRA:          -7.367
REMARK INTER:                  -6.989
REMARK INTRA:                  -0.378
REMARK UNBOUND:                -0.416
REMARK  Name = 163727827
REMARK  5 active torsions:
REMARK  status: ('A' for Active; 'I' for Inactive)
REMARK    1  A    between atoms: N_2  and  C_8
REMARK    2  A    between atoms: C_5  and  C_11
REMARK    3  A    between atoms: C_7  and  C_12
REMARK    4  A    between atoms: C_10  and  C_13
REMARK    5  A    between atoms: C_14  and  C_15
REMARK                            x       y       z     vdW  Elec       q    Type
REMARK                         _______ _______ _______ _____ _____    ______ ____
ROOT
ATOM      1  O   UNL     1     -17.071  42.066 -13.297  0.00  0.00    +0.000 OA
ATOM      2  N   UNL     1     -18.630  43.739 -12.874  0.00  0.00    +0.000 N 
ATOM      3  C   UNL     1     -17.941  42.572 -12.592  0.00  0.00    +0.000 C 
ATOM      4  H   UNL     1     -19.527  43.866 -12.411  0.00  0.00    +0.000 HD
ENDROOT
BRANCH   3   7
ATOM      5  N   UNL     1     -18.176  41.904  -8.891  0.00  0.00    +0.000 NA
ATOM      6  N   UNL     1     -19.242  40.156  -7.674  0.00  0.00    +0.000 N 
ATOM      7  C   UNL     1     -18.295  41.916 -11.306  0.00  0.00    +0.000 A 
ATOM      8  C   UNL     1     -19.051  40.749 -11.281  0.00  0.00    +0.000 A 
ATOM      9  C   UNL     1     -17.886  42.449 -10.095  0.00  0.00    +0.000 A 
ATOM     10  C   UNL     1     -19.368  40.159 -10.063  0.00  0.00    +0.000 A 
ATOM     11  C   UNL     1     -18.911  40.771  -8.907  0.00  0.00    +0.000 A 
ATOM     12  H   UNL     1     -18.911  40.611  -6.832  0.00  0.00    +0.000 HD
ATOM     13  H   UNL     1     -20.093  39.610  -7.620  0.00  0.00    +0.000 HD
ENDBRANCH   3   7
BRANCH   2  17
ATOM     14  C   UNL     1     -18.475  46.355 -16.221  0.00  0.00    +0.000 C 
ATOM     15  C   UNL     1     -17.220  46.218 -15.340  0.00  0.00    +0.000 C 
ATOM     16  C   UNL     1     -17.425  45.404 -14.076  0.00  0.00    +0.000 C 
ATOM     17  C   UNL     1     -18.415  44.483 -14.005  0.00  0.00    +0.000 C 
ATOM     18  C   UNL     1     -19.323  45.115 -16.181  0.00  0.00    +0.000 C 
ATOM     19  C   UNL     1     -19.290  44.239 -15.159  0.00  0.00    +0.000 C 
ATOM     20  C   UNL     1     -19.317  47.568 -15.815  0.00  0.00    +0.000 C 
ATOM     21  C   UNL     1     -16.427  45.713 -12.991  0.00  0.00    +0.000 C 
ATOM     22  C   UNL     1     -20.157  43.009 -15.192  0.00  0.00    +0.000 C 
ENDBRANCH   2  17
TORSDOF 2
ENDMDL
MODEL 3
REMARK VINA RESULT:    -5.955      2.718      6.706
REMARK INTER + INTRA:          -7.067
REMARK INTER:                  -6.578
REMARK INTRA:                  -0.489
REMARK UNBOUND:                -0.416
REMARK  Name = 163727827
REMARK  5 active torsions:
REMARK  status: ('A' for Active; 'I' for Inactive)
REMARK    1  A    between atoms: N_2  and  C_8
REMARK    2  A    between atoms: C_5  and  C_11
REMARK    3  A    between atoms: C_7  and  C_12
REMARK    4  A    between atoms: C_10  and  C_13
REMARK    5  A    between atoms: C_14  and  C_15
REMARK                            x       y       z     vdW  Elec       q    Type
REMARK                         _______ _______ _______ _____ _____    ______ ____
ROOT
ATOM      1  O   UNL     1     -16.615  43.111 -12.811  0.00  0.00    +0.000 OA
ATOM      2  N   UNL     1     -18.633  44.254 -12.647  0.00  0.00    +0.000 N 
ATOM      3  C   UNL     1     -17.714  43.284 -12.290  0.00  0.00    +0.000 C 
ATOM      4  H   UNL     1     -19.602  44.086 -12.390  0.00  0.00    +0.000 HD
ENDROOT
BRANCH   3   7
ATOM      5  N   UNL     1     -18.099  41.966  -8.781  0.00  0.00    +0.000 NA
ATOM      6  N   UNL     1     -19.203  40.030  -7.941  0.00  0.00    +0.000 N 
ATOM      7  C   UNL     1     -18.117  42.409 -11.158  0.00  0.00    +0.000 A 
ATOM      8  C   UNL     1     -18.864  41.256 -11.374  0.00  0.00    +0.000 A 
ATOM      9  C   UNL     1     -17.763  42.718  -9.854  0.00  0.00    +0.000 A 
ATOM     10  C   UNL     1     -19.228  40.458 -10.295  0.00  0.00    +0.000 A 
ATOM     11  C   UNL     1     -18.824  40.854  -9.030  0.00  0.00    +0.000 A 
ATOM     12  H   UNL     1     -18.911  40.326  -7.018  0.00  0.00    +0.000 HD
ATOM     13  H   UNL     1     -20.051  39.482  -8.023  0.00  0.00    +0.000 HD
ENDBRANCH   3   7
BRANCH   2  17
ATOM     14  C   UNL     1     -17.364  46.896 -15.727  0.00  0.00    +0.000 C 
ATOM     15  C   UNL     1     -18.520  45.924 -16.027  0.00  0.00    +0.000 C 
ATOM     16  C   UNL     1     -18.784  44.906 -14.933  0.00  0.00    +0.000 C 
ATOM     17  C   UNL     1     -18.416  45.159 -13.654  0.00  0.00    +0.000 C 
ATOM     18  C   UNL     1     -17.282  47.232 -14.265  0.00  0.00    +0.000 C 
ATOM     19  C   UNL     1     -17.778  46.433 -13.302  0.00  0.00    +0.000 C 
ATOM     20  C   UNL     1     -16.020  46.333 -16.201  0.00  0.00    +0.000 C 
ATOM     21  C   UNL     1     -19.492  43.669 -15.420  0.00  0.00    +0.000 C 
ATOM     22  C   UNL     1     -17.674  46.841 -11.856  0.00  0.00    +0.000 C 
ENDBRANCH   2  17
TORSDOF 2
ENDMDL
MODEL 4
REMARK VINA RESULT:    -5.728      2.169      7.000
REMARK INTER + INTRA:          -6.814
REMARK INTER:                  -6.426
REMARK INTRA:                  -0.387
REMARK UNBOUND:                -0.416
REMARK  Name = 163727827
REMARK  5 active torsions:
REMARK  status: ('A' for Active; 'I' for Inactive)
REMARK    1  A    between atoms: N_2  and  C_8
REMARK    2  A    between atoms: C_5  and  C_11
REMARK    3  A    between atoms: C_7  and  C_12
REMARK    4  A    between atoms: C_10  and  C_13
REMARK    5  A    between atoms: C_14  and  C_15
REMARK                            x       y       z     vdW  Elec       q    Type
REMARK                         _______ _______ _______ _____ _____    ______ ____
ROOT
ATOM      1  O   UNL     1     -18.963  45.632 -13.540  0.00  0.00    +0.000 OA
ATOM      2  N   UNL     1     -18.781  44.145 -15.319  0.00  0.00    +0.000 N 
ATOM      3  C   UNL     1     -18.639  44.539 -14.000  0.00  0.00    +0.000 C 
ATOM      4  H   UNL     1     -18.187  43.384 -15.638  0.00  0.00    +0.000 HD
ENDROOT
BRANCH   3   7
ATOM      5  N   UNL     1     -17.395  41.225 -12.712  0.00  0.00    +0.000 NA
ATOM      6  N   UNL     1     -16.464  40.605 -10.609  0.00  0.00    +0.000 N 
ATOM      7  C   UNL     1     -18.064  43.518 -13.087  0.00  0.00    +0.000 A 
ATOM      8  C   UNL     1     -17.658  43.854 -11.800  0.00  0.00    +0.000 A 
ATOM      9  C   UNL     1     -17.913  42.201 -13.492  0.00  0.00    +0.000 A 
ATOM     10  C   UNL     1     -17.122  42.877 -10.969  0.00  0.00    +0.000 A 
ATOM     11  C   UNL     1     -17.013  41.589 -11.468  0.00  0.00    +0.000 A 
ATOM     12  H   UNL     1     -16.381  39.666 -10.980  0.00  0.00    +0.000 HD
ATOM     13  H   UNL     1     -15.807  40.898  -9.896  0.00  0.00    +0.000 HD
ENDBRANCH   3   7
BRANCH   2  17
ATOM     14  C   UNL     1     -20.749  46.916 -17.873  0.00  0.00    +0.000 C 
ATOM     15  C   UNL     1     -19.213  46.828 -17.934  0.00  0.00    +0.000 C 
ATOM     16  C   UNL     1     -18.592  45.945 -16.868  0.00  0.00    +0.000 C 
ATOM     17  C   UNL     1     -19.312  44.953 -16.291  0.00  0.00    +0.000 C 
ATOM     18  C   UNL     1     -21.366  45.619 -17.431  0.00  0.00    +0.000 C 
ATOM     19  C   UNL     1     -20.698  44.702 -16.705  0.00  0.00    +0.000 C 
ATOM     20  C   UNL     1     -21.211  48.047 -16.949  0.00  0.00    +0.000 C 
ATOM     21  C   UNL     1     -17.151  46.273 -16.577  0.00  0.00    +0.000 C 
ATOM     22  C   UNL     1     -21.375  43.417 -16.309  0.00  0.00    +0.000 C 
ENDBRANCH   2  17
TORSDOF 2
ENDMDL
MODEL 5
REMARK VINA RESULT:    -5.718      2.963      6.520
REMARK INTER + INTRA:          -6.802
REMARK INTER:                  -6.321
REMARK INTRA:                  -0.482
REMARK UNBOUND:                -0.416
REMARK  Name = 163727827
REMARK  5 active torsions:
REMARK  status: ('A' for Active; 'I' for Inactive)
REMARK    1  A    between atoms: N_2  and  C_8
REMARK    2  A    between atoms: C_5  and  C_11
REMARK    3  A    between atoms: C_7  and  C_12
REMARK    4  A    between atoms: C_10  and  C_13
REMARK    5  A    between atoms: C_14  and  C_15
REMARK                            x       y       z     vdW  Elec       q    Type
REMARK                         _______ _______ _______ _____ _____    ______ ____
ROOT
ATOM      1  O   UNL     1     -16.626  44.203 -13.484  0.00  0.00    +0.000 OA
ATOM      2  N   UNL     1     -18.735  45.160 -13.270  0.00  0.00    +0.000 N 
ATOM      3  C   UNL     1     -17.809  44.137 -13.157  0.00  0.00    +0.000 C 
ATOM      4  H   UNL     1     -19.715  44.891 -13.290  0.00  0.00    +0.000 HD
ENDROOT
BRANCH   3   7
ATOM      5  N   UNL     1     -19.718  40.913 -12.769  0.00  0.00    +0.000 NA
ATOM      6  N   UNL     1     -19.793  39.335 -10.985  0.00  0.00    +0.000 N 
ATOM      7  C   UNL     1     -18.320  42.875 -12.563  0.00  0.00    +0.000 A 
ATOM      8  C   UNL     1     -17.911  42.460 -11.300  0.00  0.00    +0.000 A 
ATOM      9  C   UNL     1     -19.218  42.073 -13.251  0.00  0.00    +0.000 A 
ATOM     10  C   UNL     1     -18.406  41.273 -10.771  0.00  0.00    +0.000 A 
ATOM     11  C   UNL     1     -19.299  40.543 -11.539  0.00  0.00    +0.000 A 
ATOM     12  H   UNL     1     -20.441  38.802 -11.552  0.00  0.00    +0.000 HD
ATOM     13  H   UNL     1     -19.214  38.836 -10.322  0.00  0.00    +0.000 HD
ENDBRANCH   3   7
BRANCH   2  17
ATOM     14  C   UNL     1     -17.196  48.821 -14.786  0.00  0.00    +0.000 C 
ATOM     15  C   UNL     1     -18.258  48.075 -15.614  0.00  0.00    +0.000 C 
ATOM     16  C   UNL     1     -18.616  46.700 -15.083  0.00  0.00    +0.000 C 
ATOM     17  C   UNL     1     -18.430  46.396 -13.776  0.00  0.00    +0.000 C 
ATOM     18  C   UNL     1     -17.321  48.522 -13.318  0.00  0.00    +0.000 C 
ATOM     19  C   UNL     1     -17.901  47.403 -12.847  0.00  0.00    +0.000 C 
ATOM     20  C   UNL     1     -15.778  48.488 -15.260  0.00  0.00    +0.000 C 
ATOM     21  C   UNL     1     -19.197  45.783 -16.127  0.00  0.00    +0.000 C 
ATOM     22  C   UNL     1     -18.005  47.176 -11.362  0.00  0.00    +0.000 C 
ENDBRANCH   2  17
TORSDOF 2
ENDMDL
