MODEL 1
REMARK VINA RESULT:    -5.438      0.000      0.000
REMARK INTER + INTRA:          -7.173
REMARK INTER:                  -6.709
REMARK INTRA:                  -0.463
REMARK UNBOUND:                -0.463
REMARK  Name = 164071158
REMARK  6 active torsions:
REMARK  status: ('A' for Active; 'I' for Inactive)
REMARK    1  A    between atoms: N_2  and  C_5
REMARK    2  A    between atoms: N_4  and  C_14
REMARK    3  A    between atoms: C_5  and  C_6
REMARK    4  A    between atoms: C_5  and  C_7
REMARK    5  A    between atoms: C_10  and  C_13
REMARK    6  A    between atoms: C_14  and  C_15
REMARK                            x       y       z     vdW  Elec       q    Type
REMARK                         _______ _______ _______ _____ _____    ______ ____
ROOT
ATOM      1  N   UNL     1     -20.488  44.818 -16.656  0.00  0.00    +0.000 N 
ATOM      2  N   UNL     1     -20.060  42.992 -15.234  0.00  0.00    +0.000 NA
ATOM      3  C   UNL     1     -19.779  44.261 -15.606  0.00  0.00    +0.000 A 
ATOM      4  C   UNL     1     -18.816  45.052 -15.000  0.00  0.00    +0.000 A 
ATOM      5  C   UNL     1     -18.355  43.202 -13.534  0.00  0.00    +0.000 A 
ATOM      6  C   UNL     1     -18.095  44.505 -13.945  0.00  0.00    +0.000 A 
ATOM      7  C   UNL     1     -19.339  42.494 -14.205  0.00  0.00    +0.000 A 
ATOM      8  H   UNL     1     -20.485  45.831 -16.721  0.00  0.00    +0.000 HD
ENDROOT
BRANCH   5  11
ATOM      9  O   UNL     1     -16.707  43.237 -11.870  0.00  0.00    +0.000 OA
ATOM     10  N   UNL     1     -17.978  41.299 -12.066  0.00  0.00    +0.000 N 
ATOM     11  C   UNL     1     -17.620  42.604 -12.432  0.00  0.00    +0.000 C 
ATOM     12  H   UNL     1     -18.751  40.845 -12.544  0.00  0.00    +0.000 HD
BRANCH  10  13
ATOM     13  C   UNL     1     -17.381  40.582 -11.070  0.00  0.00    +0.000 C 
ATOM     14  C   UNL     1     -16.210  39.972 -11.310  0.00  0.00    +0.000 C 
BRANCH  13  15
ATOM     15  C   UNL     1     -18.016  40.486  -9.765  0.00  0.00    +0.000 C 
ATOM     16  C   UNL     1     -18.410  41.496  -8.977  0.00  0.00    +0.000 C 
ENDBRANCH  13  15
ENDBRANCH  10  13
ENDBRANCH   5  11
BRANCH   1  17
ATOM     17  C   UNL     1     -21.522  44.116 -17.387  0.00  0.00    +0.000 C 
ATOM     18  C   UNL     1     -21.208  44.168 -18.875  0.00  0.00    +0.000 C 
ATOM     19  C   UNL     1     -22.876  44.745 -17.083  0.00  0.00    +0.000 C 
ENDBRANCH   1  17
TORSDOF 4
ENDMDL
MODEL 2
REMARK VINA RESULT:    -5.186      1.678      7.051
REMARK INTER + INTRA:          -6.862
REMARK INTER:                  -6.464
REMARK INTRA:                  -0.398
REMARK UNBOUND:                -0.463
REMARK  Name = 164071158
REMARK  6 active torsions:
REMARK  status: ('A' for Active; 'I' for Inactive)
REMARK    1  A    between atoms: N_2  and  C_5
REMARK    2  A    between atoms: N_4  and  C_14
REMARK    3  A    between atoms: C_5  and  C_6
REMARK    4  A    between atoms: C_5  and  C_7
REMARK    5  A    between atoms: C_10  and  C_13
REMARK    6  A    between atoms: C_14  and  C_15
REMARK                            x       y       z     vdW  Elec       q    Type
REMARK                         _______ _______ _______ _____ _____    ______ ____
ROOT
ATOM      1  N   UNL     1     -17.987  42.124 -11.204  0.00  0.00    +0.000 N 
ATOM      2  N   UNL     1     -19.387  42.115 -13.097  0.00  0.00    +0.000 NA
ATOM      3  C   UNL     1     -18.405  42.712 -12.386  0.00  0.00    +0.000 A 
ATOM      4  C   UNL     1     -17.780  43.889 -12.764  0.00  0.00    +0.000 A 
ATOM      5  C   UNL     1     -19.198  43.907 -14.707  0.00  0.00    +0.000 A 
ATOM      6  C   UNL     1     -18.189  44.492 -13.948  0.00  0.00    +0.000 A 
ATOM      7  C   UNL     1     -19.759  42.729 -14.242  0.00  0.00    +0.000 A 
ATOM      8  H   UNL     1     -17.077  42.402 -10.854  0.00  0.00    +0.000 HD
ENDROOT
BRANCH   5  11
ATOM      9  O   UNL     1     -18.867  45.214 -16.622  0.00  0.00    +0.000 OA
ATOM     10  N   UNL     1     -20.977  44.281 -16.323  0.00  0.00    +0.000 N 
ATOM     11  C   UNL     1     -19.645  44.512 -15.949  0.00  0.00    +0.000 C 
ATOM     12  H   UNL     1     -21.555  43.676 -15.748  0.00  0.00    +0.000 HD
BRANCH  10  13
ATOM     13  C   UNL     1     -21.566  44.787 -17.446  0.00  0.00    +0.000 C 
ATOM     14  C   UNL     1     -22.307  45.903 -17.354  0.00  0.00    +0.000 C 
BRANCH  13  15
ATOM     15  C   UNL     1     -21.387  44.117 -18.724  0.00  0.00    +0.000 C 
ATOM     16  C   UNL     1     -20.771  44.597 -19.813  0.00  0.00    +0.000 C 
ENDBRANCH  13  15
ENDBRANCH  10  13
ENDBRANCH   5  11
BRANCH   1  17
ATOM     17  C   UNL     1     -18.546  40.896 -10.680  0.00  0.00    +0.000 C 
ATOM     18  C   UNL     1     -18.451  40.910  -9.161  0.00  0.00    +0.000 C 
ATOM     19  C   UNL     1     -17.803  39.705 -11.272  0.00  0.00    +0.000 C 
ENDBRANCH   1  17
TORSDOF 4
ENDMDL
MODEL 3
REMARK VINA RESULT:    -5.028      1.861      2.708
REMARK INTER + INTRA:          -6.666
REMARK INTER:                  -6.214
REMARK INTRA:                  -0.452
REMARK UNBOUND:                -0.463
REMARK  Name = 164071158
REMARK  6 active torsions:
REMARK  status: ('A' for Active; 'I' for Inactive)
REMARK    1  A    between atoms: N_2  and  C_5
REMARK    2  A    between atoms: N_4  and  C_14
REMARK    3  A    between atoms: C_5  and  C_6
REMARK    4  A    between atoms: C_5  and  C_7
REMARK    5  A    between atoms: C_10  and  C_13
REMARK    6  A    between atoms: C_14  and  C_15
REMARK                            x       y       z     vdW  Elec       q    Type
REMARK                         _______ _______ _______ _____ _____    ______ ____
ROOT
ATOM      1  N   UNL     1     -21.669  45.338 -18.274  0.00  0.00    +0.000 N 
ATOM      2  N   UNL     1     -19.787  45.183 -16.869  0.00  0.00    +0.000 NA
ATOM      3  C   UNL     1     -21.004  44.719 -17.230  0.00  0.00    +0.000 A 
ATOM      4  C   UNL     1     -21.639  43.651 -16.618  0.00  0.00    +0.000 A 
ATOM      5  C   UNL     1     -19.730  43.469 -15.166  0.00  0.00    +0.000 A 
ATOM      6  C   UNL     1     -20.985  43.019 -15.567  0.00  0.00    +0.000 A 
ATOM      7  C   UNL     1     -19.180  44.544 -15.844  0.00  0.00    +0.000 A 
ATOM      8  H   UNL     1     -22.411  44.809 -18.720  0.00  0.00    +0.000 HD
ENDROOT
BRANCH   5  11
ATOM      9  O   UNL     1     -18.058  43.399 -13.528  0.00  0.00    +0.000 OA
ATOM     10  N   UNL     1     -19.460  41.550 -13.695  0.00  0.00    +0.000 N 
ATOM     11  C   UNL     1     -19.020  42.827 -14.073  0.00  0.00    +0.000 C 
ATOM     12  H   UNL     1     -20.269  41.148 -14.159  0.00  0.00    +0.000 HD
BRANCH  10  13
ATOM     13  C   UNL     1     -18.896  40.798 -12.705  0.00  0.00    +0.000 C 
ATOM     14  C   UNL     1     -17.899  39.953 -13.009  0.00  0.00    +0.000 C 
BRANCH  13  15
ATOM     15  C   UNL     1     -19.380  40.918 -11.339  0.00  0.00    +0.000 C 
ATOM     16  C   UNL     1     -18.962  40.233 -10.266  0.00  0.00    +0.000 C 
ENDBRANCH  13  15
ENDBRANCH  10  13
ENDBRANCH   5  11
BRANCH   1  17
ATOM     17  C   UNL     1     -21.133  46.465 -19.008  0.00  0.00    +0.000 C 
ATOM     18  C   UNL     1     -22.153  47.596 -19.006  0.00  0.00    +0.000 C 
ATOM     19  C   UNL     1     -20.790  46.030 -20.427  0.00  0.00    +0.000 C 
ENDBRANCH   1  17
TORSDOF 4
ENDMDL
MODEL 4
REMARK VINA RESULT:    -4.940      3.962      4.778
REMARK INTER + INTRA:          -6.559
REMARK INTER:                  -6.135
REMARK INTRA:                  -0.424
REMARK UNBOUND:                -0.463
REMARK  Name = 164071158
REMARK  6 active torsions:
REMARK  status: ('A' for Active; 'I' for Inactive)
REMARK    1  A    between atoms: N_2  and  C_5
REMARK    2  A    between atoms: N_4  and  C_14
REMARK    3  A    between atoms: C_5  and  C_6
REMARK    4  A    between atoms: C_5  and  C_7
REMARK    5  A    between atoms: C_10  and  C_13
REMARK    6  A    between atoms: C_14  and  C_15
REMARK                            x       y       z     vdW  Elec       q    Type
REMARK                         _______ _______ _______ _____ _____    ______ ____
ROOT
ATOM      1  N   UNL     1     -14.816  46.123 -13.136  0.00  0.00    +0.000 N 
ATOM      2  N   UNL     1     -16.683  44.713 -12.879  0.00  0.00    +0.000 NA
ATOM      3  C   UNL     1     -15.370  44.947 -12.660  0.00  0.00    +0.000 A 
ATOM      4  C   UNL     1     -14.530  44.079 -11.982  0.00  0.00    +0.000 A 
ATOM      5  C   UNL     1     -16.419  42.616 -11.706  0.00  0.00    +0.000 A 
ATOM      6  C   UNL     1     -15.071  42.893 -11.500  0.00  0.00    +0.000 A 
ATOM      7  C   UNL     1     -17.175  43.550 -12.395  0.00  0.00    +0.000 A 
ATOM      8  H   UNL     1     -13.942  46.419 -12.715  0.00  0.00    +0.000 HD
ENDROOT
BRANCH   5  11
ATOM      9  O   UNL     1     -16.291  40.438 -10.856  0.00  0.00    +0.000 OA
ATOM     10  N   UNL     1     -18.415  41.330 -11.178  0.00  0.00    +0.000 N 
ATOM     11  C   UNL     1     -17.014  41.387 -11.211  0.00  0.00    +0.000 C 
ATOM     12  H   UNL     1     -18.950  42.148 -11.454  0.00  0.00    +0.000 HD
BRANCH  10  13
ATOM     13  C   UNL     1     -19.137  40.249 -10.762  0.00  0.00    +0.000 C 
ATOM     14  C   UNL     1     -19.281  39.198 -11.584  0.00  0.00    +0.000 C 
BRANCH  13  15
ATOM     15  C   UNL     1     -19.741  40.247  -9.439  0.00  0.00    +0.000 C 
ATOM     16  C   UNL     1     -19.138  40.508  -8.271  0.00  0.00    +0.000 C 
ENDBRANCH  13  15
ENDBRANCH  10  13
ENDBRANCH   5  11
BRANCH   1  17
ATOM     17  C   UNL     1     -15.567  47.126 -13.862  0.00  0.00    +0.000 C 
ATOM     18  C   UNL     1     -15.374  46.911 -15.357  0.00  0.00    +0.000 C 
ATOM     19  C   UNL     1     -15.106  48.514 -13.437  0.00  0.00    +0.000 C 
ENDBRANCH   1  17
TORSDOF 4
ENDMDL
MODEL 5
REMARK VINA RESULT:    -4.878      1.947      2.763
REMARK INTER + INTRA:          -6.482
REMARK INTER:                  -6.031
REMARK INTRA:                  -0.450
REMARK UNBOUND:                -0.463
REMARK  Name = 164071158
REMARK  6 active torsions:
REMARK  status: ('A' for Active; 'I' for Inactive)
REMARK    1  A    between atoms: N_2  and  C_5
REMARK    2  A    between atoms: N_4  and  C_14
REMARK    3  A    between atoms: C_5  and  C_6
REMARK    4  A    between atoms: C_5  and  C_7
REMARK    5  A    between atoms: C_10  and  C_13
REMARK    6  A    between atoms: C_14  and  C_15
REMARK                            x       y       z     vdW  Elec       q    Type
REMARK                         _______ _______ _______ _____ _____    ______ ____
ROOT
ATOM      1  N   UNL     1     -19.512  46.130 -16.107  0.00  0.00    +0.000 N 
ATOM      2  N   UNL     1     -18.376  45.107 -14.317  0.00  0.00    +0.000 NA
ATOM      3  C   UNL     1     -19.237  45.002 -15.354  0.00  0.00    +0.000 A 
ATOM      4  C   UNL     1     -19.870  43.825 -15.720  0.00  0.00    +0.000 A 
ATOM      5  C   UNL     1     -18.724  42.753 -13.897  0.00  0.00    +0.000 A 
ATOM      6  C   UNL     1     -19.604  42.683 -14.973  0.00  0.00    +0.000 A 
ATOM      7  C   UNL     1     -18.142  43.977 -13.614  0.00  0.00    +0.000 A 
ATOM      8  H   UNL     1     -19.901  45.977 -17.032  0.00  0.00    +0.000 HD
ENDROOT
BRANCH   5  11
ATOM      9  O   UNL     1     -18.856  40.460 -13.440  0.00  0.00    +0.000 OA
ATOM     10  N   UNL     1     -17.657  41.775 -11.942  0.00  0.00    +0.000 N 
ATOM     11  C   UNL     1     -18.424  41.576 -13.099  0.00  0.00    +0.000 C 
ATOM     12  H   UNL     1     -17.309  42.705 -11.733  0.00  0.00    +0.000 HD
BRANCH  10  13
ATOM     13  C   UNL     1     -17.300  40.787 -11.070  0.00  0.00    +0.000 C 
ATOM     14  C   UNL     1     -16.186  40.075 -11.303  0.00  0.00    +0.000 C 
BRANCH  13  15
ATOM     15  C   UNL     1     -18.125  40.517  -9.904  0.00  0.00    +0.000 C 
ATOM     16  C   UNL     1     -19.463  40.507  -9.841  0.00  0.00    +0.000 C 
ENDBRANCH  13  15
ENDBRANCH  10  13
ENDBRANCH   5  11
BRANCH   1  17
ATOM     17  C   UNL     1     -18.929  47.429 -15.846  0.00  0.00    +0.000 C 
ATOM     18  C   UNL     1     -19.979  48.506 -16.081  0.00  0.00    +0.000 C 
ATOM     19  C   UNL     1     -17.715  47.631 -16.745  0.00  0.00    +0.000 C 
ENDBRANCH   1  17
TORSDOF 4
ENDMDL
