MODEL 1
REMARK VINA RESULT:    -5.815      0.000      0.000
REMARK INTER + INTRA:          -6.634
REMARK INTER:                  -6.325
REMARK INTRA:                  -0.308
REMARK UNBOUND:                -0.308
REMARK  Name = 164046775
REMARK  2 active torsions:
REMARK  status: ('A' for Active; 'I' for Inactive)
REMARK    1  A    between atoms: N_5  and  C_12
REMARK    2  A    between atoms: C_10  and  C_11
REMARK                            x       y       z     vdW  Elec       q    Type
REMARK                         _______ _______ _______ _____ _____    ______ ____
ROOT
ATOM      1  N   UNL     1     -19.276  39.601 -10.362  0.00  0.00    +0.000 NA
ATOM      2  C   UNL     1     -17.666  41.385 -10.621  0.00  0.00    +0.000 A 
ATOM      3  C   UNL     1     -18.269  40.207 -11.029  0.00  0.00    +0.000 A 
ATOM      4  C   UNL     1     -18.126  41.980  -9.452  0.00  0.00    +0.000 A 
ATOM      5  C   UNL     1     -19.161  41.387  -8.737  0.00  0.00    +0.000 A 
ATOM      6  C   UNL     1     -19.697  40.208  -9.229  0.00  0.00    +0.000 A 
ENDROOT
BRANCH   2  14
ATOM      7  I   UNL     1     -17.704  46.596 -11.660  0.00  0.00    +0.000 I 
ATOM      8  O   UNL     1     -15.438  41.584 -11.199  0.00  0.00    +0.000 OA
ATOM      9  N   UNL     1     -16.902  43.076 -12.213  0.00  0.00    +0.000 N 
ATOM     10  C   UNL     1     -17.950  45.015 -13.094  0.00  0.00    +0.000 C 
ATOM     11  C   UNL     1     -16.654  44.750 -13.864  0.00  0.00    +0.000 C 
ATOM     12  C   UNL     1     -18.220  43.679 -12.402  0.00  0.00    +0.000 C 
ATOM     13  C   UNL     1     -15.885  43.773 -12.985  0.00  0.00    +0.000 C 
ATOM     14  C   UNL     1     -16.573  42.022 -11.373  0.00  0.00    +0.000 C 
ENDBRANCH   2  14
BRANCH   3  15
ATOM     15  N   UNL     1     -17.808  39.595 -12.222  0.00  0.00    +0.000 N 
ATOM     16  H   UNL     1     -18.485  39.167 -12.841  0.00  0.00    +0.000 HD
ATOM     17  H   UNL     1     -16.879  39.193 -12.194  0.00  0.00    +0.000 HD
ENDBRANCH   3  15
TORSDOF 2
ENDMDL
MODEL 2
REMARK VINA RESULT:    -5.149      1.333      2.071
REMARK INTER + INTRA:          -5.909
REMARK INTER:                  -5.602
REMARK INTRA:                  -0.306
REMARK UNBOUND:                -0.308
REMARK  Name = 164046775
REMARK  2 active torsions:
REMARK  status: ('A' for Active; 'I' for Inactive)
REMARK    1  A    between atoms: N_5  and  C_12
REMARK    2  A    between atoms: C_10  and  C_11
REMARK                            x       y       z     vdW  Elec       q    Type
REMARK                         _______ _______ _______ _____ _____    ______ ____
ROOT
ATOM      1  N   UNL     1     -19.011  40.401 -10.558  0.00  0.00    +0.000 NA
ATOM      2  C   UNL     1     -17.146  41.376 -11.749  0.00  0.00    +0.000 A 
ATOM      3  C   UNL     1     -17.972  41.261 -10.642  0.00  0.00    +0.000 A 
ATOM      4  C   UNL     1     -17.404  40.554 -12.840  0.00  0.00    +0.000 A 
ATOM      5  C   UNL     1     -18.464  39.656 -12.792  0.00  0.00    +0.000 A 
ATOM      6  C   UNL     1     -19.231  39.618 -11.639  0.00  0.00    +0.000 A 
ENDROOT
BRANCH   2  14
ATOM      7  I   UNL     1     -17.951  46.628 -11.836  0.00  0.00    +0.000 I 
ATOM      8  O   UNL     1     -14.991  42.010 -11.209  0.00  0.00    +0.000 OA
ATOM      9  N   UNL     1     -16.203  43.494 -12.523  0.00  0.00    +0.000 N 
ATOM     10  C   UNL     1     -17.207  45.431 -13.458  0.00  0.00    +0.000 C 
ATOM     11  C   UNL     1     -15.686  45.542 -13.586  0.00  0.00    +0.000 C 
ATOM     12  C   UNL     1     -17.424  43.942 -13.191  0.00  0.00    +0.000 C 
ATOM     13  C   UNL     1     -15.149  44.491 -12.624  0.00  0.00    +0.000 C 
ATOM     14  C   UNL     1     -16.019  42.320 -11.807  0.00  0.00    +0.000 C 
ENDBRANCH   2  14
BRANCH   3  15
ATOM     15  N   UNL     1     -17.714  42.093  -9.523  0.00  0.00    +0.000 N 
ATOM     16  H   UNL     1     -17.271  41.688  -8.709  0.00  0.00    +0.000 HD
ATOM     17  H   UNL     1     -18.357  42.861  -9.374  0.00  0.00    +0.000 HD
ENDBRANCH   3  15
TORSDOF 2
ENDMDL
MODEL 3
REMARK VINA RESULT:    -4.969      2.488      4.957
REMARK INTER + INTRA:          -5.714
REMARK INTER:                  -5.609
REMARK INTRA:                  -0.104
REMARK UNBOUND:                -0.308
REMARK  Name = 164046775
REMARK  2 active torsions:
REMARK  status: ('A' for Active; 'I' for Inactive)
REMARK    1  A    between atoms: N_5  and  C_12
REMARK    2  A    between atoms: C_10  and  C_11
REMARK                            x       y       z     vdW  Elec       q    Type
REMARK                         _______ _______ _______ _____ _____    ______ ____
ROOT
ATOM      1  N   UNL     1     -15.180  42.875 -11.901  0.00  0.00    +0.000 NA
ATOM      2  C   UNL     1     -17.561  42.567 -11.607  0.00  0.00    +0.000 A 
ATOM      3  C   UNL     1     -16.274  42.087 -11.793  0.00  0.00    +0.000 A 
ATOM      4  C   UNL     1     -17.736  43.943 -11.528  0.00  0.00    +0.000 A 
ATOM      5  C   UNL     1     -16.635  44.786 -11.634  0.00  0.00    +0.000 A 
ATOM      6  C   UNL     1     -15.390  44.208 -11.819  0.00  0.00    +0.000 A 
ENDROOT
BRANCH   2  14
ATOM      7  I   UNL     1     -20.329  42.244  -7.083  0.00  0.00    +0.000 I 
ATOM      8  O   UNL     1     -19.437  41.544 -12.486  0.00  0.00    +0.000 OA
ATOM      9  N   UNL     1     -18.956  41.078 -10.261  0.00  0.00    +0.000 N 
ATOM     10  C   UNL     1     -19.082  40.707  -7.920  0.00  0.00    +0.000 C 
ATOM     11  C   UNL     1     -19.913  39.644  -8.643  0.00  0.00    +0.000 C 
ATOM     12  C   UNL     1     -18.190  41.263  -9.029  0.00  0.00    +0.000 C 
ATOM     13  C   UNL     1     -20.095  40.199 -10.049  0.00  0.00    +0.000 C 
ATOM     14  C   UNL     1     -18.731  41.682 -11.489  0.00  0.00    +0.000 C 
ENDBRANCH   2  14
BRANCH   3  15
ATOM     15  N   UNL     1     -16.086  40.684 -11.872  0.00  0.00    +0.000 N 
ATOM     16  H   UNL     1     -15.173  40.304 -11.656  0.00  0.00    +0.000 HD
ATOM     17  H   UNL     1     -16.650  40.191 -12.553  0.00  0.00    +0.000 HD
ENDBRANCH   3  15
TORSDOF 2
ENDMDL
MODEL 4
REMARK VINA RESULT:    -4.761      2.140      2.403
REMARK INTER + INTRA:          -5.487
REMARK INTER:                  -5.177
REMARK INTRA:                  -0.310
REMARK UNBOUND:                -0.308
REMARK  Name = 164046775
REMARK  2 active torsions:
REMARK  status: ('A' for Active; 'I' for Inactive)
REMARK    1  A    between atoms: N_5  and  C_12
REMARK    2  A    between atoms: C_10  and  C_11
REMARK                            x       y       z     vdW  Elec       q    Type
REMARK                         _______ _______ _______ _____ _____    ______ ____
ROOT
ATOM      1  N   UNL     1     -17.550  39.708 -11.230  0.00  0.00    +0.000 NA
ATOM      2  C   UNL     1     -18.646  41.594 -12.273  0.00  0.00    +0.000 A 
ATOM      3  C   UNL     1     -17.614  40.676 -12.172  0.00  0.00    +0.000 A 
ATOM      4  C   UNL     1     -19.681  41.514 -11.347  0.00  0.00    +0.000 A 
ATOM      5  C   UNL     1     -19.651  40.532 -10.363  0.00  0.00    +0.000 A 
ATOM      6  C   UNL     1     -18.573  39.661 -10.348  0.00  0.00    +0.000 A 
ENDROOT
BRANCH   2  14
ATOM      7  I   UNL     1     -15.103  45.553 -12.360  0.00  0.00    +0.000 I 
ATOM      8  O   UNL     1     -19.042  42.292 -14.439  0.00  0.00    +0.000 OA
ATOM      9  N   UNL     1     -18.317  43.920 -12.949  0.00  0.00    +0.000 N 
ATOM     10  C   UNL     1     -17.195  45.733 -11.905  0.00  0.00    +0.000 C 
ATOM     11  C   UNL     1     -17.987  46.256 -13.106  0.00  0.00    +0.000 C 
ATOM     12  C   UNL     1     -17.823  44.365 -11.646  0.00  0.00    +0.000 C 
ATOM     13  C   UNL     1     -18.316  45.008 -13.914  0.00  0.00    +0.000 C 
ATOM     14  C   UNL     1     -18.688  42.634 -13.313  0.00  0.00    +0.000 C 
ENDBRANCH   2  14
BRANCH   3  15
ATOM     15  N   UNL     1     -16.556  40.749 -13.113  0.00  0.00    +0.000 N 
ATOM     16  H   UNL     1     -15.770  41.355 -12.914  0.00  0.00    +0.000 HD
ATOM     17  H   UNL     1     -16.806  40.610 -14.085  0.00  0.00    +0.000 HD
ENDBRANCH   3  15
TORSDOF 2
ENDMDL
MODEL 5
REMARK VINA RESULT:    -4.461      2.295      2.787
REMARK INTER + INTRA:          -5.160
REMARK INTER:                  -4.875
REMARK INTRA:                  -0.285
REMARK UNBOUND:                -0.308
REMARK  Name = 164046775
REMARK  2 active torsions:
REMARK  status: ('A' for Active; 'I' for Inactive)
REMARK    1  A    between atoms: N_5  and  C_12
REMARK    2  A    between atoms: C_10  and  C_11
REMARK                            x       y       z     vdW  Elec       q    Type
REMARK                         _______ _______ _______ _____ _____    ______ ____
ROOT
ATOM      1  N   UNL     1     -16.702  39.988 -12.150  0.00  0.00    +0.000 NA
ATOM      2  C   UNL     1     -17.524  42.228 -11.761  0.00  0.00    +0.000 A 
ATOM      3  C   UNL     1     -16.542  41.252 -11.699  0.00  0.00    +0.000 A 
ATOM      4  C   UNL     1     -18.748  41.885 -12.324  0.00  0.00    +0.000 A 
ATOM      5  C   UNL     1     -18.950  40.594 -12.799  0.00  0.00    +0.000 A 
ATOM      6  C   UNL     1     -17.905  39.690 -12.690  0.00  0.00    +0.000 A 
ENDROOT
BRANCH   2  14
ATOM      7  I   UNL     1     -18.268  46.445 -14.908  0.00  0.00    +0.000 I 
ATOM      8  O   UNL     1     -17.615  43.824 -10.093  0.00  0.00    +0.000 OA
ATOM      9  N   UNL     1     -16.814  44.534 -12.155  0.00  0.00    +0.000 N 
ATOM     10  C   UNL     1     -16.383  45.743 -14.152  0.00  0.00    +0.000 C 
ATOM     11  C   UNL     1     -15.916  46.571 -12.952  0.00  0.00    +0.000 C 
ATOM     12  C   UNL     1     -16.511  44.335 -13.572  0.00  0.00    +0.000 C 
ATOM     13  C   UNL     1     -16.589  45.914 -11.755  0.00  0.00    +0.000 C 
ATOM     14  C   UNL     1     -17.318  43.598 -11.264  0.00  0.00    +0.000 C 
ENDBRANCH   2  14
BRANCH   3  15
ATOM     15  N   UNL     1     -15.290  41.595 -11.130  0.00  0.00    +0.000 N 
ATOM     16  H   UNL     1     -15.202  42.483 -10.651  0.00  0.00    +0.000 HD
ATOM     17  H   UNL     1     -14.468  41.228 -11.592  0.00  0.00    +0.000 HD
ENDBRANCH   3  15
TORSDOF 2
ENDMDL
