MODEL 1
REMARK VINA RESULT:    -6.093      0.000      0.000
REMARK INTER + INTRA:          -7.895
REMARK INTER:                  -7.340
REMARK INTRA:                  -0.554
REMARK UNBOUND:                -0.554
REMARK  Name = 164005684
REMARK  6 active torsions:
REMARK  status: ('A' for Active; 'I' for Inactive)
REMARK    1  A    between atoms: N_3  and  C_10
REMARK    2  A    between atoms: N_5  and  C_16
REMARK    3  A    between atoms: C_6  and  C_9
REMARK    4  A    between atoms: C_8  and  C_13
REMARK    5  A    between atoms: C_9  and  C_14
REMARK    6  A    between atoms: C_12  and  C_15
REMARK                            x       y       z     vdW  Elec       q    Type
REMARK                         _______ _______ _______ _____ _____    ______ ____
ROOT
ATOM      1  N   UNL     1     -18.535  40.718 -13.072  0.00  0.00    +0.000 NA
ATOM      2  C   UNL     1     -17.643  42.645 -11.915  0.00  0.00    +0.000 A 
ATOM      3  C   UNL     1     -18.072  42.122 -10.700  0.00  0.00    +0.000 A 
ATOM      4  C   UNL     1     -18.731  40.898 -10.669  0.00  0.00    +0.000 A 
ATOM      5  C   UNL     1     -18.936  40.242 -11.872  0.00  0.00    +0.000 A 
ATOM      6  C   UNL     1     -17.897  41.910 -13.063  0.00  0.00    +0.000 A 
ENDROOT
BRANCH   4   9
ATOM      7  O   UNL     1     -20.320  39.887  -9.254  0.00  0.00    +0.000 OA
ATOM      8  N   UNL     1     -18.290  40.410  -8.323  0.00  0.00    +0.000 N 
ATOM      9  C   UNL     1     -19.179  40.360  -9.392  0.00  0.00    +0.000 C 
ATOM     10  H   UNL     1     -17.357  40.798  -8.416  0.00  0.00    +0.000 HD
ATOM     11  H   UNL     1     -18.552  40.054  -7.410  0.00  0.00    +0.000 HD
ENDBRANCH   4   9
BRANCH   5  12
ATOM     12  N   UNL     1     -19.608  38.993 -11.850  0.00  0.00    +0.000 N 
ATOM     13  H   UNL     1     -20.320  38.814 -12.546  0.00  0.00    +0.000 HD
ATOM     14  H   UNL     1     -19.717  38.556 -10.943  0.00  0.00    +0.000 HD
ENDBRANCH   5  12
BRANCH   2  15
ATOM     15  C   UNL     1     -16.944  43.934 -11.981  0.00  0.00    +0.000 C 
ATOM     16  C   UNL     1     -17.570  45.120 -11.887  0.00  0.00    +0.000 C 
ATOM     17  C   UNL     1     -16.943  46.479 -11.943  0.00  0.00    +0.000 C 
BRANCH  15  19
ATOM     18  N   UNL     1     -14.650  43.226 -11.505  0.00  0.00    +0.000 NA
ATOM     19  C   UNL     1     -15.466  43.979 -12.161  0.00  0.00    +0.000 C 
ATOM     20  C   UNL     1     -13.251  43.455 -11.857  0.00  0.00    +0.000 C 
ENDBRANCH  15  19
ENDBRANCH   2  15
TORSDOF 4
ENDMDL
MODEL 2
REMARK VINA RESULT:    -5.976      1.616      2.319
REMARK INTER + INTRA:          -7.753
REMARK INTER:                  -7.182
REMARK INTRA:                  -0.571
REMARK UNBOUND:                -0.554
REMARK  Name = 164005684
REMARK  6 active torsions:
REMARK  status: ('A' for Active; 'I' for Inactive)
REMARK    1  A    between atoms: N_3  and  C_10
REMARK    2  A    between atoms: N_5  and  C_16
REMARK    3  A    between atoms: C_6  and  C_9
REMARK    4  A    between atoms: C_8  and  C_13
REMARK    5  A    between atoms: C_9  and  C_14
REMARK    6  A    between atoms: C_12  and  C_15
REMARK                            x       y       z     vdW  Elec       q    Type
REMARK                         _______ _______ _______ _____ _____    ______ ____
ROOT
ATOM      1  N   UNL     1     -18.805  40.630 -13.365  0.00  0.00    +0.000 NA
ATOM      2  C   UNL     1     -17.707  42.557 -12.405  0.00  0.00    +0.000 A 
ATOM      3  C   UNL     1     -18.019  42.107 -11.127  0.00  0.00    +0.000 A 
ATOM      4  C   UNL     1     -18.723  40.919 -10.966  0.00  0.00    +0.000 A 
ATOM      5  C   UNL     1     -19.090  40.223 -12.108  0.00  0.00    +0.000 A 
ATOM      6  C   UNL     1     -18.119  41.789 -13.482  0.00  0.00    +0.000 A 
ENDROOT
BRANCH   4   9
ATOM      7  O   UNL     1     -20.195  40.082  -9.329  0.00  0.00    +0.000 OA
ATOM      8  N   UNL     1     -18.031  40.467  -8.675  0.00  0.00    +0.000 N 
ATOM      9  C   UNL     1     -19.047  40.456  -9.624  0.00  0.00    +0.000 C 
ATOM     10  H   UNL     1     -17.090  40.775  -8.896  0.00  0.00    +0.000 HD
ATOM     11  H   UNL     1     -18.203  40.160  -7.723  0.00  0.00    +0.000 HD
ENDBRANCH   4   9
BRANCH   5  12
ATOM     12  N   UNL     1     -19.808  39.011 -11.953  0.00  0.00    +0.000 N 
ATOM     13  H   UNL     1     -19.594  38.420 -11.160  0.00  0.00    +0.000 HD
ATOM     14  H   UNL     1     -20.120  38.559 -12.805  0.00  0.00    +0.000 HD
ENDBRANCH   5  12
BRANCH   2  15
ATOM     15  C   UNL     1     -16.964  43.807 -12.608  0.00  0.00    +0.000 C 
ATOM     16  C   UNL     1     -15.901  44.164 -11.866  0.00  0.00    +0.000 C 
ATOM     17  C   UNL     1     -15.085  45.413 -11.999  0.00  0.00    +0.000 C 
BRANCH  15  19
ATOM     18  N   UNL     1     -18.415  45.514 -13.595  0.00  0.00    +0.000 NA
ATOM     19  C   UNL     1     -17.372  44.759 -13.679  0.00  0.00    +0.000 C 
ATOM     20  C   UNL     1     -18.605  46.360 -14.770  0.00  0.00    +0.000 C 
ENDBRANCH  15  19
ENDBRANCH   2  15
TORSDOF 4
ENDMDL
MODEL 3
REMARK VINA RESULT:    -5.636      2.382      3.646
REMARK INTER + INTRA:          -7.344
REMARK INTER:                  -6.848
REMARK INTRA:                  -0.496
REMARK UNBOUND:                -0.554
REMARK  Name = 164005684
REMARK  6 active torsions:
REMARK  status: ('A' for Active; 'I' for Inactive)
REMARK    1  A    between atoms: N_3  and  C_10
REMARK    2  A    between atoms: N_5  and  C_16
REMARK    3  A    between atoms: C_6  and  C_9
REMARK    4  A    between atoms: C_8  and  C_13
REMARK    5  A    between atoms: C_9  and  C_14
REMARK    6  A    between atoms: C_12  and  C_15
REMARK                            x       y       z     vdW  Elec       q    Type
REMARK                         _______ _______ _______ _____ _____    ______ ____
ROOT
ATOM      1  N   UNL     1     -17.421  43.037 -10.592  0.00  0.00    +0.000 NA
ATOM      2  C   UNL     1     -18.560  42.983 -12.724  0.00  0.00    +0.000 A 
ATOM      3  C   UNL     1     -19.144  41.767 -12.389  0.00  0.00    +0.000 A 
ATOM      4  C   UNL     1     -18.870  41.185 -11.156  0.00  0.00    +0.000 A 
ATOM      5  C   UNL     1     -18.009  41.855 -10.301  0.00  0.00    +0.000 A 
ATOM      6  C   UNL     1     -17.713  43.573 -11.799  0.00  0.00    +0.000 A 
ENDROOT
BRANCH   4   9
ATOM      7  O   UNL     1     -20.020  39.727  -9.708  0.00  0.00    +0.000 OA
ATOM      8  N   UNL     1     -19.435  38.895 -11.764  0.00  0.00    +0.000 N 
ATOM      9  C   UNL     1     -19.485  39.910 -10.814  0.00  0.00    +0.000 C 
ATOM     10  H   UNL     1     -18.997  39.025 -12.669  0.00  0.00    +0.000 HD
ATOM     11  H   UNL     1     -19.843  37.985 -11.576  0.00  0.00    +0.000 HD
ENDBRANCH   4   9
BRANCH   5  12
ATOM     12  N   UNL     1     -17.722  41.269  -9.042  0.00  0.00    +0.000 N 
ATOM     13  H   UNL     1     -18.448  40.734  -8.581  0.00  0.00    +0.000 HD
ATOM     14  H   UNL     1     -17.057  41.759  -8.457  0.00  0.00    +0.000 HD
ENDBRANCH   5  12
BRANCH   2  15
ATOM     15  C   UNL     1     -18.831  43.624 -14.017  0.00  0.00    +0.000 C 
ATOM     16  C   UNL     1     -19.606  43.072 -14.967  0.00  0.00    +0.000 C 
ATOM     17  C   UNL     1     -19.938  43.648 -16.309  0.00  0.00    +0.000 C 
BRANCH  15  19
ATOM     18  N   UNL     1     -18.748  46.069 -13.936  0.00  0.00    +0.000 NA
ATOM     19  C   UNL     1     -18.239  44.953 -14.336  0.00  0.00    +0.000 C 
ATOM     20  C   UNL     1     -17.987  47.235 -14.376  0.00  0.00    +0.000 C 
ENDBRANCH  15  19
ENDBRANCH   2  15
TORSDOF 4
ENDMDL
MODEL 4
REMARK VINA RESULT:    -5.611      2.668      4.127
REMARK INTER + INTRA:          -7.313
REMARK INTER:                  -6.804
REMARK INTRA:                  -0.509
REMARK UNBOUND:                -0.554
REMARK  Name = 164005684
REMARK  6 active torsions:
REMARK  status: ('A' for Active; 'I' for Inactive)
REMARK    1  A    between atoms: N_3  and  C_10
REMARK    2  A    between atoms: N_5  and  C_16
REMARK    3  A    between atoms: C_6  and  C_9
REMARK    4  A    between atoms: C_8  and  C_13
REMARK    5  A    between atoms: C_9  and  C_14
REMARK    6  A    between atoms: C_12  and  C_15
REMARK                            x       y       z     vdW  Elec       q    Type
REMARK                         _______ _______ _______ _____ _____    ______ ____
ROOT
ATOM      1  N   UNL     1     -16.465  42.618 -11.999  0.00  0.00    +0.000 NA
ATOM      2  C   UNL     1     -18.303  43.214 -13.452  0.00  0.00    +0.000 A 
ATOM      3  C   UNL     1     -19.044  42.143 -12.967  0.00  0.00    +0.000 A 
ATOM      4  C   UNL     1     -18.498  41.309 -11.997  0.00  0.00    +0.000 A 
ATOM      5  C   UNL     1     -17.216  41.587 -11.550  0.00  0.00    +0.000 A 
ATOM      6  C   UNL     1     -17.030  43.407 -12.941  0.00  0.00    +0.000 A 
ENDROOT
BRANCH   4   9
ATOM      7  O   UNL     1     -19.450  40.011 -10.277  0.00  0.00    +0.000 OA
ATOM      8  N   UNL     1     -19.816  39.306 -12.429  0.00  0.00    +0.000 N 
ATOM      9  C   UNL     1     -19.281  40.187 -11.496  0.00  0.00    +0.000 C 
ATOM     10  H   UNL     1     -19.682  39.430 -13.427  0.00  0.00    +0.000 HD
ATOM     11  H   UNL     1     -20.365  38.505 -12.135  0.00  0.00    +0.000 HD
ENDBRANCH   4   9
BRANCH   5  12
ATOM     12  N   UNL     1     -16.651  40.742 -10.562  0.00  0.00    +0.000 N 
ATOM     13  H   UNL     1     -16.137  41.165  -9.800  0.00  0.00    +0.000 HD
ATOM     14  H   UNL     1     -16.364  39.819 -10.867  0.00  0.00    +0.000 HD
ENDBRANCH   5  12
BRANCH   2  15
ATOM     15  C   UNL     1     -18.851  44.114 -14.475  0.00  0.00    +0.000 C 
ATOM     16  C   UNL     1     -18.454  45.390 -14.627  0.00  0.00    +0.000 C 
ATOM     17  C   UNL     1     -18.954  46.377 -15.636  0.00  0.00    +0.000 C 
BRANCH  15  19
ATOM     18  N   UNL     1     -19.636  43.079 -16.550  0.00  0.00    +0.000 NA
ATOM     19  C   UNL     1     -19.902  43.632 -15.415  0.00  0.00    +0.000 C 
ATOM     20  C   UNL     1     -20.833  42.692 -17.292  0.00  0.00    +0.000 C 
ENDBRANCH  15  19
ENDBRANCH   2  15
TORSDOF 4
ENDMDL
MODEL 5
REMARK VINA RESULT:    -5.480      2.325      3.357
REMARK INTER + INTRA:          -7.156
REMARK INTER:                  -6.606
REMARK INTRA:                  -0.550
REMARK UNBOUND:                -0.554
REMARK  Name = 164005684
REMARK  6 active torsions:
REMARK  status: ('A' for Active; 'I' for Inactive)
REMARK    1  A    between atoms: N_3  and  C_10
REMARK    2  A    between atoms: N_5  and  C_16
REMARK    3  A    between atoms: C_6  and  C_9
REMARK    4  A    between atoms: C_8  and  C_13
REMARK    5  A    between atoms: C_9  and  C_14
REMARK    6  A    between atoms: C_12  and  C_15
REMARK                            x       y       z     vdW  Elec       q    Type
REMARK                         _______ _______ _______ _____ _____    ______ ____
ROOT
ATOM      1  N   UNL     1     -15.680  42.231 -11.662  0.00  0.00    +0.000 NA
ATOM      2  C   UNL     1     -17.458  43.819 -12.062  0.00  0.00    +0.000 A 
ATOM      3  C   UNL     1     -18.373  42.777 -12.175  0.00  0.00    +0.000 A 
ATOM      4  C   UNL     1     -17.943  41.463 -12.031  0.00  0.00    +0.000 A 
ATOM      5  C   UNL     1     -16.598  41.245 -11.777  0.00  0.00    +0.000 A 
ATOM      6  C   UNL     1     -16.135  43.496 -11.807  0.00  0.00    +0.000 A 
ENDROOT
BRANCH   4   9
ATOM      7  O   UNL     1     -18.987  39.698 -13.190  0.00  0.00    +0.000 OA
ATOM      8  N   UNL     1     -19.753  40.142 -11.075  0.00  0.00    +0.000 N 
ATOM      9  C   UNL     1     -18.907  40.378 -12.153  0.00  0.00    +0.000 C 
ATOM     10  H   UNL     1     -19.707  40.691 -10.223  0.00  0.00    +0.000 HD
ATOM     11  H   UNL     1     -20.447  39.402 -11.108  0.00  0.00    +0.000 HD
ENDBRANCH   4   9
BRANCH   5  12
ATOM     12  N   UNL     1     -16.151  39.907 -11.629  0.00  0.00    +0.000 N 
ATOM     13  H   UNL     1     -16.573  39.190 -12.205  0.00  0.00    +0.000 HD
ATOM     14  H   UNL     1     -15.826  39.640 -10.708  0.00  0.00    +0.000 HD
ENDBRANCH   5  12
BRANCH   2  15
ATOM     15  C   UNL     1     -17.881  45.218 -12.208  0.00  0.00    +0.000 C 
ATOM     16  C   UNL     1     -17.727  46.141 -11.242  0.00  0.00    +0.000 C 
ATOM     17  C   UNL     1     -18.125  47.583 -11.300  0.00  0.00    +0.000 C 
BRANCH  15  19
ATOM     18  N   UNL     1     -18.011  45.469 -14.639  0.00  0.00    +0.000 NA
ATOM     19  C   UNL     1     -18.516  45.684 -13.472  0.00  0.00    +0.000 C 
ATOM     20  C   UNL     1     -18.818  46.023 -15.723  0.00  0.00    +0.000 C 
ENDBRANCH  15  19
ENDBRANCH   2  15
TORSDOF 4
ENDMDL
