MODEL 1
REMARK VINA RESULT:    -5.260      0.000      0.000
REMARK INTER + INTRA:          -6.164
REMARK INTER:                  -5.875
REMARK INTRA:                  -0.289
REMARK UNBOUND:                -0.289
REMARK  Name = 164761942
REMARK  2 active torsions:
REMARK  status: ('A' for Active; 'I' for Inactive)
REMARK    1  A    between atoms: C_4  and  C_9
REMARK    2  A    between atoms: C_5  and  C_10
REMARK                            x       y       z     vdW  Elec       q    Type
REMARK                         _______ _______ _______ _____ _____    ______ ____
ROOT
ATOM      1  N   UNL     1     -19.510  39.735  -9.588  0.00  0.00    +0.000 NA
ATOM      2  N   UNL     1     -19.592  38.839 -11.778  0.00  0.00    +0.000 N 
ATOM      3  C   UNL     1     -17.982  41.885 -10.511  0.00  0.00    +0.000 A 
ATOM      4  C   UNL     1     -18.403  40.898 -11.394  0.00  0.00    +0.000 A 
ATOM      5  C   UNL     1     -19.158  39.853 -10.887  0.00  0.00    +0.000 A 
ATOM      6  C   UNL     1     -18.324  41.800  -9.166  0.00  0.00    +0.000 A 
ATOM      7  C   UNL     1     -19.083  40.714  -8.758  0.00  0.00    +0.000 A 
ATOM      8  H   UNL     1     -19.791  39.091 -12.739  0.00  0.00    +0.000 HD
ATOM      9  H   UNL     1     -20.135  38.086 -11.372  0.00  0.00    +0.000 HD
ENDROOT
BRANCH   4  11
ATOM     10  O   UNL     1     -18.893  41.175 -13.693  0.00  0.00    +0.000 OA
ATOM     11  C   UNL     1     -18.060  40.963 -12.813  0.00  0.00    +0.000 C 
ENDBRANCH   4  11
BRANCH   3  12
ATOM     12  C   UNL     1     -17.185  43.022 -10.954  0.00  0.00    +0.000 C 
ATOM     13  C   UNL     1     -17.657  44.220 -11.353  0.00  0.00    +0.000 C 
ENDBRANCH   3  12
TORSDOF 2
ENDMDL
MODEL 2
REMARK VINA RESULT:    -5.121      1.973      3.119
REMARK INTER + INTRA:          -6.009
REMARK INTER:                  -5.696
REMARK INTRA:                  -0.313
REMARK UNBOUND:                -0.289
REMARK  Name = 164761942
REMARK  2 active torsions:
REMARK  status: ('A' for Active; 'I' for Inactive)
REMARK    1  A    between atoms: C_4  and  C_9
REMARK    2  A    between atoms: C_5  and  C_10
REMARK                            x       y       z     vdW  Elec       q    Type
REMARK                         _______ _______ _______ _____ _____    ______ ____
ROOT
ATOM      1  N   UNL     1     -17.836  42.754 -12.094  0.00  0.00    +0.000 NA
ATOM      2  N   UNL     1     -18.931  41.043 -13.311  0.00  0.00    +0.000 N 
ATOM      3  C   UNL     1     -18.485  41.478  -9.693  0.00  0.00    +0.000 A 
ATOM      4  C   UNL     1     -18.879  40.926 -10.906  0.00  0.00    +0.000 A 
ATOM      5  C   UNL     1     -18.533  41.596 -12.067  0.00  0.00    +0.000 A 
ATOM      6  C   UNL     1     -17.766  42.669  -9.678  0.00  0.00    +0.000 A 
ATOM      7  C   UNL     1     -17.469  43.262 -10.895  0.00  0.00    +0.000 A 
ATOM      8  H   UNL     1     -18.994  40.035 -13.395  0.00  0.00    +0.000 HD
ATOM      9  H   UNL     1     -18.667  41.563 -14.139  0.00  0.00    +0.000 HD
ENDROOT
BRANCH   4  11
ATOM     10  O   UNL     1     -19.237  38.676 -11.551  0.00  0.00    +0.000 OA
ATOM     11  C   UNL     1     -19.634  39.675 -10.952  0.00  0.00    +0.000 C 
ENDBRANCH   4  11
BRANCH   3  12
ATOM     12  C   UNL     1     -18.804  40.843  -8.421  0.00  0.00    +0.000 C 
ATOM     13  C   UNL     1     -19.683  41.292  -7.504  0.00  0.00    +0.000 C 
ENDBRANCH   3  12
TORSDOF 2
ENDMDL
MODEL 3
REMARK VINA RESULT:    -5.105      2.027      3.338
REMARK INTER + INTRA:          -5.991
REMARK INTER:                  -5.700
REMARK INTRA:                  -0.291
REMARK UNBOUND:                -0.289
REMARK  Name = 164761942
REMARK  2 active torsions:
REMARK  status: ('A' for Active; 'I' for Inactive)
REMARK    1  A    between atoms: C_4  and  C_9
REMARK    2  A    between atoms: C_5  and  C_10
REMARK                            x       y       z     vdW  Elec       q    Type
REMARK                         _______ _______ _______ _____ _____    ______ ____
ROOT
ATOM      1  N   UNL     1     -18.748  40.331 -13.145  0.00  0.00    +0.000 NA
ATOM      2  N   UNL     1     -17.708  42.400 -13.644  0.00  0.00    +0.000 N 
ATOM      3  C   UNL     1     -18.490  40.847 -10.410  0.00  0.00    +0.000 A 
ATOM      4  C   UNL     1     -18.026  41.769 -11.341  0.00  0.00    +0.000 A 
ATOM      5  C   UNL     1     -18.177  41.467 -12.684  0.00  0.00    +0.000 A 
ATOM      6  C   UNL     1     -19.082  39.666 -10.844  0.00  0.00    +0.000 A 
ATOM      7  C   UNL     1     -19.186  39.458 -12.210  0.00  0.00    +0.000 A 
ATOM      8  H   UNL     1     -17.738  43.387 -13.415  0.00  0.00    +0.000 HD
ATOM      9  H   UNL     1     -17.828  42.144 -14.616  0.00  0.00    +0.000 HD
ENDROOT
BRANCH   4  11
ATOM     10  O   UNL     1     -17.762  44.122 -11.325  0.00  0.00    +0.000 OA
ATOM     11  C   UNL     1     -17.401  43.019 -10.914  0.00  0.00    +0.000 C 
ENDBRANCH   4  11
BRANCH   3  12
ATOM     12  C   UNL     1     -18.374  41.080  -8.976  0.00  0.00    +0.000 C 
ATOM     13  C   UNL     1     -19.272  40.726  -8.036  0.00  0.00    +0.000 C 
ENDBRANCH   3  12
TORSDOF 2
ENDMDL
MODEL 4
REMARK VINA RESULT:    -4.843      1.941      2.937
REMARK INTER + INTRA:          -5.699
REMARK INTER:                  -5.422
REMARK INTRA:                  -0.277
REMARK UNBOUND:                -0.289
REMARK  Name = 164761942
REMARK  2 active torsions:
REMARK  status: ('A' for Active; 'I' for Inactive)
REMARK    1  A    between atoms: C_4  and  C_9
REMARK    2  A    between atoms: C_5  and  C_10
REMARK                            x       y       z     vdW  Elec       q    Type
REMARK                         _______ _______ _______ _____ _____    ______ ____
ROOT
ATOM      1  N   UNL     1     -19.241  39.449 -11.840  0.00  0.00    +0.000 NA
ATOM      2  N   UNL     1     -20.206  39.945  -9.735  0.00  0.00    +0.000 N 
ATOM      3  C   UNL     1     -17.346  41.468 -11.461  0.00  0.00    +0.000 A 
ATOM      4  C   UNL     1     -18.305  41.219 -10.486  0.00  0.00    +0.000 A 
ATOM      5  C   UNL     1     -19.222  40.208 -10.722  0.00  0.00    +0.000 A 
ATOM      6  C   UNL     1     -17.333  40.709 -12.626  0.00  0.00    +0.000 A 
ATOM      7  C   UNL     1     -18.293  39.720 -12.766  0.00  0.00    +0.000 A 
ATOM      8  H   UNL     1     -19.969  40.098  -8.762  0.00  0.00    +0.000 HD
ATOM      9  H   UNL     1     -20.865  39.205  -9.943  0.00  0.00    +0.000 HD
ENDROOT
BRANCH   4  11
ATOM     10  O   UNL     1     -18.460  41.487  -8.139  0.00  0.00    +0.000 OA
ATOM     11  C   UNL     1     -18.341  42.000  -9.252  0.00  0.00    +0.000 C 
ENDBRANCH   4  11
BRANCH   3  12
ATOM     12  C   UNL     1     -16.341  42.511 -11.300  0.00  0.00    +0.000 C 
ATOM     13  C   UNL     1     -16.128  43.548 -12.134  0.00  0.00    +0.000 C 
ENDBRANCH   3  12
TORSDOF 2
ENDMDL
MODEL 5
REMARK VINA RESULT:    -4.782      1.987      2.121
REMARK INTER + INTRA:          -5.630
REMARK INTER:                  -5.326
REMARK INTRA:                  -0.305
REMARK UNBOUND:                -0.289
REMARK  Name = 164761942
REMARK  2 active torsions:
REMARK  status: ('A' for Active; 'I' for Inactive)
REMARK    1  A    between atoms: C_4  and  C_9
REMARK    2  A    between atoms: C_5  and  C_10
REMARK                            x       y       z     vdW  Elec       q    Type
REMARK                         _______ _______ _______ _____ _____    ______ ____
ROOT
ATOM      1  N   UNL     1     -17.533  39.639 -11.625  0.00  0.00    +0.000 NA
ATOM      2  N   UNL     1     -19.681  39.561 -12.619  0.00  0.00    +0.000 N 
ATOM      3  C   UNL     1     -17.385  42.384 -12.133  0.00  0.00    +0.000 A 
ATOM      4  C   UNL     1     -18.512  41.664 -12.511  0.00  0.00    +0.000 A 
ATOM      5  C   UNL     1     -18.537  40.306 -12.237  0.00  0.00    +0.000 A 
ATOM      6  C   UNL     1     -16.331  41.734 -11.501  0.00  0.00    +0.000 A 
ATOM      7  C   UNL     1     -16.453  40.373 -11.272  0.00  0.00    +0.000 A 
ATOM      8  H   UNL     1     -20.584  40.021 -12.612  0.00  0.00    +0.000 HD
ATOM      9  H   UNL     1     -19.662  38.570 -12.411  0.00  0.00    +0.000 HD
ENDROOT
BRANCH   4  11
ATOM     10  O   UNL     1     -19.922  42.124 -14.356  0.00  0.00    +0.000 OA
ATOM     11  C   UNL     1     -19.636  42.321 -13.175  0.00  0.00    +0.000 C 
ENDBRANCH   4  11
BRANCH   3  12
ATOM     12  C   UNL     1     -17.270  43.816 -12.380  0.00  0.00    +0.000 C 
ATOM     13  C   UNL     1     -17.487  44.799 -11.484  0.00  0.00    +0.000 C 
ENDBRANCH   3  12
TORSDOF 2
ENDMDL
