MODEL 1
REMARK VINA RESULT:    -6.501      0.000      0.000
REMARK INTER + INTRA:          -8.303
REMARK INTER:                  -8.022
REMARK INTRA:                  -0.281
REMARK UNBOUND:                -0.281
REMARK  Name = 16654086
REMARK  5 active torsions:
REMARK  status: ('A' for Active; 'I' for Inactive)
REMARK    1  A    between atoms: N_3  and  C_8
REMARK    2  A    between atoms: C_7  and  C_8
REMARK    3  A    between atoms: C_7  and  C_9
REMARK    4  A    between atoms: C_9  and  C_10
REMARK    5  A    between atoms: C_14  and  C_17
REMARK                            x       y       z     vdW  Elec       q    Type
REMARK                         _______ _______ _______ _____ _____    ______ ____
ROOT
ATOM      1  O   UNL     1     -20.273  42.597 -15.823  0.00  0.00    +0.000 OA
ATOM      2  N   UNL     1     -19.036  44.409 -16.553  0.00  0.00    +0.000 N 
ATOM      3  N   UNL     1     -18.633  43.565 -14.450  0.00  0.00    +0.000 N 
ATOM      4  N   UNL     1     -19.586  41.771 -13.240  0.00  0.00    +0.000 NA
ATOM      5  C   UNL     1     -19.397  43.434 -15.612  0.00  0.00    +0.000 C 
ATOM      6  C   UNL     1     -18.695  42.777 -13.276  0.00  0.00    +0.000 A 
ATOM      7  C   UNL     1     -17.829  43.109 -12.254  0.00  0.00    +0.000 A 
ATOM      8  C   UNL     1     -18.786  41.287 -11.009  0.00  0.00    +0.000 A 
ATOM      9  C   UNL     1     -17.883  42.341 -11.097  0.00  0.00    +0.000 A 
ATOM     10  C   UNL     1     -19.609  41.046 -12.098  0.00  0.00    +0.000 A 
ATOM     11  H   UNL     1     -18.307  45.072 -16.308  0.00  0.00    +0.000 HD
ATOM     12  H   UNL     1     -17.948  44.317 -14.442  0.00  0.00    +0.000 HD
ENDROOT
BRANCH   8  15
ATOM     13  O   UNL     1     -19.866  39.764  -9.574  0.00  0.00    +0.000 OA
ATOM     14  N   UNL     1     -17.779  40.475  -8.945  0.00  0.00    +0.000 N 
ATOM     15  C   UNL     1     -18.868  40.467  -9.813  0.00  0.00    +0.000 C 
ATOM     16  H   UNL     1     -17.808  39.906  -8.104  0.00  0.00    +0.000 HD
ATOM     17  H   UNL     1     -16.931  41.014  -9.067  0.00  0.00    +0.000 HD
ENDBRANCH   8  15
BRANCH   2  18
ATOM     18  C   UNL     1     -19.650  44.525 -17.847  0.00  0.00    +0.000 C 
BRANCH  18  19
ATOM     19  C   UNL     1     -20.895  45.405 -17.823  0.00  0.00    +0.000 C 
BRANCH  19  20
ATOM     20  C   UNL     1     -22.187  44.600 -17.981  0.00  0.00    +0.000 C 
ATOM     21  C   UNL     1     -23.169  44.901 -16.859  0.00  0.00    +0.000 C 
ENDBRANCH  19  20
ENDBRANCH  18  19
ENDBRANCH   2  18
TORSDOF 4
ENDMDL
MODEL 2
REMARK VINA RESULT:    -6.326      1.185      2.114
REMARK INTER + INTRA:          -8.086
REMARK INTER:                  -7.888
REMARK INTRA:                  -0.198
REMARK UNBOUND:                -0.281
REMARK  Name = 16654086
REMARK  5 active torsions:
REMARK  status: ('A' for Active; 'I' for Inactive)
REMARK    1  A    between atoms: N_3  and  C_8
REMARK    2  A    between atoms: C_7  and  C_8
REMARK    3  A    between atoms: C_7  and  C_9
REMARK    4  A    between atoms: C_9  and  C_10
REMARK    5  A    between atoms: C_14  and  C_17
REMARK                            x       y       z     vdW  Elec       q    Type
REMARK                         _______ _______ _______ _____ _____    ______ ____
ROOT
ATOM      1  O   UNL     1     -20.166  42.476 -16.016  0.00  0.00    +0.000 OA
ATOM      2  N   UNL     1     -19.051  44.401 -16.651  0.00  0.00    +0.000 N 
ATOM      3  N   UNL     1     -18.693  43.554 -14.540  0.00  0.00    +0.000 N 
ATOM      4  N   UNL     1     -19.553  41.663 -13.411  0.00  0.00    +0.000 NA
ATOM      5  C   UNL     1     -19.378  43.380 -15.745  0.00  0.00    +0.000 C 
ATOM      6  C   UNL     1     -18.751  42.742 -13.383  0.00  0.00    +0.000 A 
ATOM      7  C   UNL     1     -17.974  43.127 -12.309  0.00  0.00    +0.000 A 
ATOM      8  C   UNL     1     -18.837  41.208 -11.146  0.00  0.00    +0.000 A 
ATOM      9  C   UNL     1     -18.025  42.335 -11.168  0.00  0.00    +0.000 A 
ATOM     10  C   UNL     1     -19.575  40.917 -12.283  0.00  0.00    +0.000 A 
ATOM     11  H   UNL     1     -18.396  45.118 -16.355  0.00  0.00    +0.000 HD
ATOM     12  H   UNL     1     -18.076  44.361 -14.483  0.00  0.00    +0.000 HD
ENDROOT
BRANCH   8  15
ATOM     13  O   UNL     1     -19.838  39.542  -9.815  0.00  0.00    +0.000 OA
ATOM     14  N   UNL     1     -17.903  40.479  -9.017  0.00  0.00    +0.000 N 
ATOM     15  C   UNL     1     -18.913  40.361  -9.968  0.00  0.00    +0.000 C 
ATOM     16  H   UNL     1     -17.928  39.894  -8.187  0.00  0.00    +0.000 HD
ATOM     17  H   UNL     1     -17.117  41.115  -9.068  0.00  0.00    +0.000 HD
ENDBRANCH   8  15
BRANCH   2  18
ATOM     18  C   UNL     1     -19.601  44.488 -17.975  0.00  0.00    +0.000 C 
BRANCH  18  19
ATOM     19  C   UNL     1     -18.773  43.719 -19.000  0.00  0.00    +0.000 C 
BRANCH  19  20
ATOM     20  C   UNL     1     -18.162  44.630 -20.066  0.00  0.00    +0.000 C 
ATOM     21  C   UNL     1     -16.936  45.359 -19.538  0.00  0.00    +0.000 C 
ENDBRANCH  19  20
ENDBRANCH  18  19
ENDBRANCH   2  18
TORSDOF 4
ENDMDL
MODEL 3
REMARK VINA RESULT:    -6.289      2.082      7.282
REMARK INTER + INTRA:          -8.041
REMARK INTER:                  -7.871
REMARK INTRA:                  -0.170
REMARK UNBOUND:                -0.281
REMARK  Name = 16654086
REMARK  5 active torsions:
REMARK  status: ('A' for Active; 'I' for Inactive)
REMARK    1  A    between atoms: N_3  and  C_8
REMARK    2  A    between atoms: C_7  and  C_8
REMARK    3  A    between atoms: C_7  and  C_9
REMARK    4  A    between atoms: C_9  and  C_10
REMARK    5  A    between atoms: C_14  and  C_17
REMARK                            x       y       z     vdW  Elec       q    Type
REMARK                         _______ _______ _______ _____ _____    ______ ____
ROOT
ATOM      1  O   UNL     1     -19.894  40.588 -12.805  0.00  0.00    +0.000 OA
ATOM      2  N   UNL     1     -18.785  41.317 -10.911  0.00  0.00    +0.000 N 
ATOM      3  N   UNL     1     -18.881  42.705 -12.745  0.00  0.00    +0.000 N 
ATOM      4  N   UNL     1     -19.863  42.462 -14.882  0.00  0.00    +0.000 NA
ATOM      5  C   UNL     1     -19.251  41.462 -12.226  0.00  0.00    +0.000 C 
ATOM      6  C   UNL     1     -19.158  43.227 -14.030  0.00  0.00    +0.000 A 
ATOM      7  C   UNL     1     -18.679  44.491 -14.308  0.00  0.00    +0.000 A 
ATOM      8  C   UNL     1     -19.673  44.261 -16.486  0.00  0.00    +0.000 A 
ATOM      9  C   UNL     1     -18.947  45.012 -15.569  0.00  0.00    +0.000 A 
ATOM     10  C   UNL     1     -20.104  43.003 -16.097  0.00  0.00    +0.000 A 
ATOM     11  H   UNL     1     -18.255  42.079 -10.499  0.00  0.00    +0.000 HD
ATOM     12  H   UNL     1     -18.346  43.311 -12.127  0.00  0.00    +0.000 HD
ENDROOT
BRANCH   8  15
ATOM     13  O   UNL     1     -20.069  45.999 -18.025  0.00  0.00    +0.000 OA
ATOM     14  N   UNL     1     -20.116  43.859 -18.848  0.00  0.00    +0.000 N 
ATOM     15  C   UNL     1     -19.968  44.778 -17.812  0.00  0.00    +0.000 C 
ATOM     16  H   UNL     1     -20.317  44.194 -19.785  0.00  0.00    +0.000 HD
ATOM     17  H   UNL     1     -20.045  42.854 -18.759  0.00  0.00    +0.000 HD
ENDBRANCH   8  15
BRANCH   2  18
ATOM     18  C   UNL     1     -19.012  40.141 -10.116  0.00  0.00    +0.000 C 
BRANCH  18  19
ATOM     19  C   UNL     1     -19.929  40.411  -8.929  0.00  0.00    +0.000 C 
BRANCH  19  20
ATOM     20  C   UNL     1     -19.318  41.387  -7.922  0.00  0.00    +0.000 C 
ATOM     21  C   UNL     1     -20.358  41.890  -6.933  0.00  0.00    +0.000 C 
ENDBRANCH  19  20
ENDBRANCH  18  19
ENDBRANCH   2  18
TORSDOF 4
ENDMDL
MODEL 4
REMARK VINA RESULT:    -5.531      2.276      7.848
REMARK INTER + INTRA:          -7.106
REMARK INTER:                  -7.001
REMARK INTRA:                  -0.105
REMARK UNBOUND:                -0.281
REMARK  Name = 16654086
REMARK  5 active torsions:
REMARK  status: ('A' for Active; 'I' for Inactive)
REMARK    1  A    between atoms: N_3  and  C_8
REMARK    2  A    between atoms: C_7  and  C_8
REMARK    3  A    between atoms: C_7  and  C_9
REMARK    4  A    between atoms: C_9  and  C_10
REMARK    5  A    between atoms: C_14  and  C_17
REMARK                            x       y       z     vdW  Elec       q    Type
REMARK                         _______ _______ _______ _____ _____    ______ ____
ROOT
ATOM      1  O   UNL     1     -18.743  43.712 -13.691  0.00  0.00    +0.000 OA
ATOM      2  N   UNL     1     -19.445  41.575 -13.153  0.00  0.00    +0.000 N 
ATOM      3  N   UNL     1     -20.127  42.497 -15.149  0.00  0.00    +0.000 N 
ATOM      4  N   UNL     1     -19.710  44.592 -16.164  0.00  0.00    +0.000 NA
ATOM      5  C   UNL     1     -19.381  42.702 -13.985  0.00  0.00    +0.000 C 
ATOM      6  C   UNL     1     -20.312  43.391 -16.230  0.00  0.00    +0.000 A 
ATOM      7  C   UNL     1     -21.101  42.954 -17.273  0.00  0.00    +0.000 A 
ATOM      8  C   UNL     1     -20.688  45.078 -18.322  0.00  0.00    +0.000 A 
ATOM      9  C   UNL     1     -21.289  43.825 -18.341  0.00  0.00    +0.000 A 
ATOM     10  C   UNL     1     -19.916  45.411 -17.220  0.00  0.00    +0.000 A 
ATOM     11  H   UNL     1     -19.996  40.778 -13.459  0.00  0.00    +0.000 HD
ATOM     12  H   UNL     1     -20.596  41.599 -15.232  0.00  0.00    +0.000 HD
ENDROOT
BRANCH   8  15
ATOM     13  O   UNL     1     -19.965  46.211 -20.256  0.00  0.00    +0.000 OA
ATOM     14  N   UNL     1     -22.090  46.667 -19.524  0.00  0.00    +0.000 N 
ATOM     15  C   UNL     1     -20.866  46.012 -19.421  0.00  0.00    +0.000 C 
ATOM     16  H   UNL     1     -22.243  47.321 -20.287  0.00  0.00    +0.000 HD
ATOM     17  H   UNL     1     -22.872  46.559 -18.891  0.00  0.00    +0.000 HD
ENDBRANCH   8  15
BRANCH   2  18
ATOM     18  C   UNL     1     -18.776  41.489 -11.884  0.00  0.00    +0.000 C 
BRANCH  18  19
ATOM     19  C   UNL     1     -19.224  40.279 -11.071  0.00  0.00    +0.000 C 
BRANCH  19  20
ATOM     20  C   UNL     1     -19.066  40.491  -9.564  0.00  0.00    +0.000 C 
ATOM     21  C   UNL     1     -20.333  40.112  -8.813  0.00  0.00    +0.000 C 
ENDBRANCH  19  20
ENDBRANCH  18  19
ENDBRANCH   2  18
TORSDOF 4
ENDMDL
MODEL 5
REMARK VINA RESULT:    -5.274      1.949      2.535
REMARK INTER + INTRA:          -6.788
REMARK INTER:                  -6.525
REMARK INTRA:                  -0.263
REMARK UNBOUND:                -0.281
REMARK  Name = 16654086
REMARK  5 active torsions:
REMARK  status: ('A' for Active; 'I' for Inactive)
REMARK    1  A    between atoms: N_3  and  C_8
REMARK    2  A    between atoms: C_7  and  C_8
REMARK    3  A    between atoms: C_7  and  C_9
REMARK    4  A    between atoms: C_9  and  C_10
REMARK    5  A    between atoms: C_14  and  C_17
REMARK                            x       y       z     vdW  Elec       q    Type
REMARK                         _______ _______ _______ _____ _____    ______ ____
ROOT
ATOM      1  O   UNL     1     -19.445  44.222 -16.058  0.00  0.00    +0.000 OA
ATOM      2  N   UNL     1     -21.690  43.689 -16.212  0.00  0.00    +0.000 N 
ATOM      3  N   UNL     1     -20.424  42.702 -14.561  0.00  0.00    +0.000 N 
ATOM      4  N   UNL     1     -18.142  42.888 -13.973  0.00  0.00    +0.000 NA
ATOM      5  C   UNL     1     -20.414  43.592 -15.639  0.00  0.00    +0.000 C 
ATOM      6  C   UNL     1     -19.342  42.333 -13.728  0.00  0.00    +0.000 A 
ATOM      7  C   UNL     1     -19.608  41.426 -12.723  0.00  0.00    +0.000 A 
ATOM      8  C   UNL     1     -17.289  41.604 -12.109  0.00  0.00    +0.000 A 
ATOM      9  C   UNL     1     -18.550  41.058 -11.899  0.00  0.00    +0.000 A 
ATOM     10  C   UNL     1     -17.139  42.506 -13.151  0.00  0.00    +0.000 A 
ATOM     11  H   UNL     1     -22.442  43.134 -15.815  0.00  0.00    +0.000 HD
ATOM     12  H   UNL     1     -21.317  42.263 -14.347  0.00  0.00    +0.000 HD
ENDROOT
BRANCH   8  15
ATOM     13  O   UNL     1     -15.984  40.065 -10.896  0.00  0.00    +0.000 OA
ATOM     14  N   UNL     1     -15.274  42.245 -10.900  0.00  0.00    +0.000 N 
ATOM     15  C   UNL     1     -16.164  41.238 -11.267  0.00  0.00    +0.000 C 
ATOM     16  H   UNL     1     -14.475  42.015 -10.316  0.00  0.00    +0.000 HD
ATOM     17  H   UNL     1     -15.346  43.220 -11.162  0.00  0.00    +0.000 HD
ENDBRANCH   8  15
BRANCH   2  18
ATOM     18  C   UNL     1     -21.989  44.529 -17.339  0.00  0.00    +0.000 C 
BRANCH  18  19
ATOM     19  C   UNL     1     -21.539  43.912 -18.659  0.00  0.00    +0.000 C 
BRANCH  19  20
ATOM     20  C   UNL     1     -20.577  44.816 -19.432  0.00  0.00    +0.000 C 
ATOM     21  C   UNL     1     -20.523  46.213 -18.834  0.00  0.00    +0.000 C 
ENDBRANCH  19  20
ENDBRANCH  18  19
ENDBRANCH   2  18
TORSDOF 4
ENDMDL
