MODEL 1
REMARK VINA RESULT:    -6.152      0.000      0.000
REMARK INTER + INTRA:          -7.374
REMARK INTER:                  -7.051
REMARK INTRA:                  -0.323
REMARK UNBOUND:                -0.323
REMARK  Name = 167239622
REMARK  5 active torsions:
REMARK  status: ('A' for Active; 'I' for Inactive)
REMARK    1  A    between atoms: N_3  and  C_13
REMARK    2  A    between atoms: N_4  and  C_9
REMARK    3  A    between atoms: C_5  and  C_6
REMARK    4  A    between atoms: C_6  and  C_11
REMARK    5  A    between atoms: C_7  and  C_12
REMARK                            x       y       z     vdW  Elec       q    Type
REMARK                         _______ _______ _______ _____ _____    ______ ____
ROOT
ATOM      1  N   UNL     1     -20.351  39.594  -9.814  0.00  0.00    +0.000 NA
ATOM      2  C   UNL     1     -19.695  41.219  -8.148  0.00  0.00    +0.000 A 
ATOM      3  C   UNL     1     -18.245  40.764 -10.012  0.00  0.00    +0.000 A 
ATOM      4  C   UNL     1     -18.510  41.457  -8.836  0.00  0.00    +0.000 A 
ATOM      5  C   UNL     1     -19.188  39.851 -10.454  0.00  0.00    +0.000 A 
ATOM      6  C   UNL     1     -20.575  40.286  -8.675  0.00  0.00    +0.000 A 
ENDROOT
BRANCH   3   9
ATOM      7  O   UNL     1     -16.329  40.078 -11.178  0.00  0.00    +0.000 OA
ATOM      8  N   UNL     1     -16.630  42.359 -10.888  0.00  0.00    +0.000 N 
ATOM      9  C   UNL     1     -17.002  41.020 -10.726  0.00  0.00    +0.000 C 
ATOM     10  C   UNL     1     -15.438  42.776 -11.592  0.00  0.00    +0.000 C 
ATOM     11  H   UNL     1     -17.215  43.085 -10.485  0.00  0.00    +0.000 HD
ENDBRANCH   3   9
BRANCH   5  12
ATOM     12  N   UNL     1     -18.925  39.141 -11.652  0.00  0.00    +0.000 N 
ATOM     13  H   UNL     1     -19.698  38.702 -12.136  0.00  0.00    +0.000 HD
ATOM     14  H   UNL     1     -18.015  38.700 -11.725  0.00  0.00    +0.000 HD
ENDBRANCH   5  12
BRANCH   2  15
ATOM     15  C   UNL     1     -20.008  41.943  -6.887  0.00  0.00    +0.000 C 
ATOM     16  C   UNL     1     -21.487  42.314  -6.777  0.00  0.00    +0.000 C 
ENDBRANCH   2  15
TORSDOF 3
ENDMDL
MODEL 2
REMARK VINA RESULT:    -5.932      1.328      1.424
REMARK INTER + INTRA:          -7.122
REMARK INTER:                  -6.764
REMARK INTRA:                  -0.358
REMARK UNBOUND:                -0.323
REMARK  Name = 167239622
REMARK  5 active torsions:
REMARK  status: ('A' for Active; 'I' for Inactive)
REMARK    1  A    between atoms: N_3  and  C_13
REMARK    2  A    between atoms: N_4  and  C_9
REMARK    3  A    between atoms: C_5  and  C_6
REMARK    4  A    between atoms: C_6  and  C_11
REMARK    5  A    between atoms: C_7  and  C_12
REMARK                            x       y       z     vdW  Elec       q    Type
REMARK                         _______ _______ _______ _____ _____    ______ ____
ROOT
ATOM      1  N   UNL     1     -19.112  39.502 -10.603  0.00  0.00    +0.000 NA
ATOM      2  C   UNL     1     -19.073  41.240  -8.922  0.00  0.00    +0.000 A 
ATOM      3  C   UNL     1     -17.586  41.365 -10.809  0.00  0.00    +0.000 A 
ATOM      4  C   UNL     1     -18.069  41.902  -9.621  0.00  0.00    +0.000 A 
ATOM      5  C   UNL     1     -18.135  40.173 -11.253  0.00  0.00    +0.000 A 
ATOM      6  C   UNL     1     -19.557  40.054  -9.452  0.00  0.00    +0.000 A 
ENDROOT
BRANCH   3   9
ATOM      7  O   UNL     1     -16.682  42.352 -12.735  0.00  0.00    +0.000 OA
ATOM      8  N   UNL     1     -15.389  42.411 -10.809  0.00  0.00    +0.000 N 
ATOM      9  C   UNL     1     -16.535  42.066 -11.534  0.00  0.00    +0.000 C 
ATOM     10  C   UNL     1     -14.271  43.128 -11.380  0.00  0.00    +0.000 C 
ATOM     11  H   UNL     1     -15.323  42.139  -9.834  0.00  0.00    +0.000 HD
ENDBRANCH   3   9
BRANCH   5  12
ATOM     12  N   UNL     1     -17.648  39.619 -12.463  0.00  0.00    +0.000 N 
ATOM     13  H   UNL     1     -16.674  39.755 -12.701  0.00  0.00    +0.000 HD
ATOM     14  H   UNL     1     -18.311  39.548 -13.226  0.00  0.00    +0.000 HD
ENDBRANCH   5  12
BRANCH   2  15
ATOM     15  C   UNL     1     -19.609  41.788  -7.648  0.00  0.00    +0.000 C 
ATOM     16  C   UNL     1     -21.127  41.637  -7.540  0.00  0.00    +0.000 C 
ENDBRANCH   2  15
TORSDOF 3
ENDMDL
MODEL 3
REMARK VINA RESULT:    -5.762      2.003      2.695
REMARK INTER + INTRA:          -6.927
REMARK INTER:                  -7.340
REMARK INTRA:                   0.413
REMARK UNBOUND:                -0.323
REMARK  Name = 167239622
REMARK  5 active torsions:
REMARK  status: ('A' for Active; 'I' for Inactive)
REMARK    1  A    between atoms: N_3  and  C_13
REMARK    2  A    between atoms: N_4  and  C_9
REMARK    3  A    between atoms: C_5  and  C_6
REMARK    4  A    between atoms: C_6  and  C_11
REMARK    5  A    between atoms: C_7  and  C_12
REMARK                            x       y       z     vdW  Elec       q    Type
REMARK                         _______ _______ _______ _____ _____    ______ ____
ROOT
ATOM      1  N   UNL     1     -18.690  42.266  -7.963  0.00  0.00    +0.000 NA
ATOM      2  C   UNL     1     -20.895  41.275  -7.890  0.00  0.00    +0.000 A 
ATOM      3  C   UNL     1     -19.387  40.708  -9.676  0.00  0.00    +0.000 A 
ATOM      4  C   UNL     1     -20.623  40.567  -9.055  0.00  0.00    +0.000 A 
ATOM      5  C   UNL     1     -18.463  41.563  -9.095  0.00  0.00    +0.000 A 
ATOM      6  C   UNL     1     -19.903  42.104  -7.388  0.00  0.00    +0.000 A 
ENDROOT
BRANCH   3   9
ATOM      7  O   UNL     1     -19.445  38.769 -10.992  0.00  0.00    +0.000 OA
ATOM      8  N   UNL     1     -18.486  40.658 -11.935  0.00  0.00    +0.000 N 
ATOM      9  C   UNL     1     -19.111  39.962 -10.895  0.00  0.00    +0.000 C 
ATOM     10  C   UNL     1     -18.168  40.064 -13.214  0.00  0.00    +0.000 C 
ATOM     11  H   UNL     1     -18.227  41.629 -11.792  0.00  0.00    +0.000 HD
ENDBRANCH   3   9
BRANCH   5  12
ATOM     12  N   UNL     1     -17.201  41.711  -9.721  0.00  0.00    +0.000 N 
ATOM     13  H   UNL     1     -17.079  41.348 -10.658  0.00  0.00    +0.000 HD
ATOM     14  H   UNL     1     -16.392  41.716  -9.111  0.00  0.00    +0.000 HD
ENDBRANCH   5  12
BRANCH   2  15
ATOM     15  C   UNL     1     -22.208  41.148  -7.204  0.00  0.00    +0.000 C 
ATOM     16  C   UNL     1     -22.576  42.399  -6.407  0.00  0.00    +0.000 C 
ENDBRANCH   2  15
TORSDOF 3
ENDMDL
MODEL 4
REMARK VINA RESULT:    -5.400      2.455      4.492
REMARK INTER + INTRA:          -6.512
REMARK INTER:                  -6.182
REMARK INTRA:                  -0.330
REMARK UNBOUND:                -0.323
REMARK  Name = 167239622
REMARK  5 active torsions:
REMARK  status: ('A' for Active; 'I' for Inactive)
REMARK    1  A    between atoms: N_3  and  C_13
REMARK    2  A    between atoms: N_4  and  C_9
REMARK    3  A    between atoms: C_5  and  C_6
REMARK    4  A    between atoms: C_6  and  C_11
REMARK    5  A    between atoms: C_7  and  C_12
REMARK                            x       y       z     vdW  Elec       q    Type
REMARK                         _______ _______ _______ _____ _____    ______ ____
ROOT
ATOM      1  N   UNL     1     -18.875  42.229 -13.555  0.00  0.00    +0.000 NA
ATOM      2  C   UNL     1     -17.513  43.617 -12.118  0.00  0.00    +0.000 A 
ATOM      3  C   UNL     1     -18.585  41.658 -11.224  0.00  0.00    +0.000 A 
ATOM      4  C   UNL     1     -17.774  42.772 -11.044  0.00  0.00    +0.000 A 
ATOM      5  C   UNL     1     -19.107  41.433 -12.488  0.00  0.00    +0.000 A 
ATOM      6  C   UNL     1     -18.082  43.303 -13.342  0.00  0.00    +0.000 A 
ENDROOT
BRANCH   3   9
ATOM      7  O   UNL     1     -18.795  39.545 -10.228  0.00  0.00    +0.000 OA
ATOM      8  N   UNL     1     -19.146  41.394  -8.871  0.00  0.00    +0.000 N 
ATOM      9  C   UNL     1     -18.852  40.780 -10.094  0.00  0.00    +0.000 C 
ATOM     10  C   UNL     1     -19.410  40.660  -7.654  0.00  0.00    +0.000 C 
ATOM     11  H   UNL     1     -19.189  42.407  -8.827  0.00  0.00    +0.000 HD
ENDBRANCH   3   9
BRANCH   5  12
ATOM     12  N   UNL     1     -19.934  40.299 -12.679  0.00  0.00    +0.000 N 
ATOM     13  H   UNL     1     -20.322  39.838 -11.865  0.00  0.00    +0.000 HD
ATOM     14  H   UNL     1     -19.735  39.726 -13.491  0.00  0.00    +0.000 HD
ENDBRANCH   5  12
BRANCH   2  15
ATOM     15  C   UNL     1     -16.651  44.818 -11.957  0.00  0.00    +0.000 C 
ATOM     16  C   UNL     1     -17.440  46.050 -11.517  0.00  0.00    +0.000 C 
ENDBRANCH   2  15
TORSDOF 3
ENDMDL
MODEL 5
REMARK VINA RESULT:    -5.196      3.147      4.179
REMARK INTER + INTRA:          -6.278
REMARK INTER:                  -5.910
REMARK INTRA:                  -0.368
REMARK UNBOUND:                -0.323
REMARK  Name = 167239622
REMARK  5 active torsions:
REMARK  status: ('A' for Active; 'I' for Inactive)
REMARK    1  A    between atoms: N_3  and  C_13
REMARK    2  A    between atoms: N_4  and  C_9
REMARK    3  A    between atoms: C_5  and  C_6
REMARK    4  A    between atoms: C_6  and  C_11
REMARK    5  A    between atoms: C_7  and  C_12
REMARK                            x       y       z     vdW  Elec       q    Type
REMARK                         _______ _______ _______ _____ _____    ______ ____
ROOT
ATOM      1  N   UNL     1     -16.435  41.318 -11.355  0.00  0.00    +0.000 NA
ATOM      2  C   UNL     1     -18.707  40.803 -10.706  0.00  0.00    +0.000 A 
ATOM      3  C   UNL     1     -18.296  42.264 -12.572  0.00  0.00    +0.000 A 
ATOM      4  C   UNL     1     -19.189  41.605 -11.735  0.00  0.00    +0.000 A 
ATOM      5  C   UNL     1     -16.941  42.089 -12.342  0.00  0.00    +0.000 A 
ATOM      6  C   UNL     1     -17.333  40.693 -10.560  0.00  0.00    +0.000 A 
ENDROOT
BRANCH   3   9
ATOM      7  O   UNL     1     -18.521  44.309 -13.698  0.00  0.00    +0.000 OA
ATOM      8  N   UNL     1     -19.614  42.475 -14.607  0.00  0.00    +0.000 N 
ATOM      9  C   UNL     1     -18.811  43.101 -13.647  0.00  0.00    +0.000 C 
ATOM     10  C   UNL     1     -20.179  43.165 -15.745  0.00  0.00    +0.000 C 
ATOM     11  H   UNL     1     -19.825  41.488 -14.504  0.00  0.00    +0.000 HD
ENDBRANCH   3   9
BRANCH   5  12
ATOM     12  N   UNL     1     -16.025  42.758 -13.192  0.00  0.00    +0.000 N 
ATOM     13  H   UNL     1     -16.336  43.042 -14.112  0.00  0.00    +0.000 HD
ATOM     14  H   UNL     1     -15.047  42.515 -13.082  0.00  0.00    +0.000 HD
ENDBRANCH   5  12
BRANCH   2  15
ATOM     15  C   UNL     1     -19.636  40.086  -9.792  0.00  0.00    +0.000 C 
ATOM     16  C   UNL     1     -19.512  40.559  -8.344  0.00  0.00    +0.000 C 
ENDBRANCH   2  15
TORSDOF 3
ENDMDL
