MODEL 1
REMARK VINA RESULT:    -6.445      0.000      0.000
REMARK INTER + INTRA:          -7.105
REMARK INTER:                  -7.199
REMARK INTRA:                   0.094
REMARK UNBOUND:                 0.094
REMARK  Name = 16785637
REMARK  2 active torsions:
REMARK  status: ('A' for Active; 'I' for Inactive)
REMARK    1  A    between atoms: N_2  and  C_10
REMARK    2  A    between atoms: C_11  and  C_13
REMARK                            x       y       z     vdW  Elec       q    Type
REMARK                         _______ _______ _______ _____ _____    ______ ____
ROOT
ATOM      1  N   UNL     1     -18.471  42.202  -8.663  0.00  0.00    +0.000 NA
ATOM      2  C   UNL     1     -18.579  41.548  -9.841  0.00  0.00    +0.000 A 
ATOM      3  C   UNL     1     -19.471  40.514 -10.075  0.00  0.00    +0.000 A 
ATOM      4  C   UNL     1     -20.306  40.126  -9.032  0.00  0.00    +0.000 A 
ATOM      5  C   UNL     1     -19.298  41.798  -7.673  0.00  0.00    +0.000 A 
ATOM      6  C   UNL     1     -20.225  40.775  -7.806  0.00  0.00    +0.000 A 
ENDROOT
BRANCH   2   7
ATOM      7  N   UNL     1     -17.736  41.944 -10.886  0.00  0.00    +0.000 N 
ATOM      8  N   UNL     1     -15.861  42.850 -12.839  0.00  0.00    +0.000 NA
ATOM      9  C   UNL     1     -17.558  43.382 -11.123  0.00  0.00    +0.000 C 
ATOM     10  C   UNL     1     -16.607  41.090 -11.272  0.00  0.00    +0.000 C 
ATOM     11  C   UNL     1     -17.062  43.633 -12.546  0.00  0.00    +0.000 C 
ATOM     12  C   UNL     1     -16.144  41.422 -12.690  0.00  0.00    +0.000 C 
ATOM     13  H   UNL     1     -15.564  43.036 -13.797  0.00  0.00    +0.000 HD
ENDBRANCH   2   7
BRANCH   3  16
ATOM     14  O   UNL     1     -19.263  38.637 -11.497  0.00  0.00    +0.000 OA
ATOM     15  N   UNL     1     -20.037  40.567 -12.430  0.00  0.00    +0.000 N 
ATOM     16  C   UNL     1     -19.565  39.828 -11.357  0.00  0.00    +0.000 C 
ATOM     17  H   UNL     1     -20.298  41.544 -12.340  0.00  0.00    +0.000 HD
ATOM     18  H   UNL     1     -20.134  40.149 -13.349  0.00  0.00    +0.000 HD
ENDBRANCH   3  16
TORSDOF 2
ENDMDL
MODEL 2
REMARK VINA RESULT:    -5.998      2.095      4.767
REMARK INTER + INTRA:          -6.605
REMARK INTER:                  -6.361
REMARK INTRA:                  -0.245
REMARK UNBOUND:                 0.094
REMARK  Name = 16785637
REMARK  2 active torsions:
REMARK  status: ('A' for Active; 'I' for Inactive)
REMARK    1  A    between atoms: N_2  and  C_10
REMARK    2  A    between atoms: C_11  and  C_13
REMARK                            x       y       z     vdW  Elec       q    Type
REMARK                         _______ _______ _______ _____ _____    ______ ____
ROOT
ATOM      1  N   UNL     1     -15.766  42.369 -11.360  0.00  0.00    +0.000 NA
ATOM      2  C   UNL     1     -16.964  42.338 -11.985  0.00  0.00    +0.000 A 
ATOM      3  C   UNL     1     -17.324  43.190 -13.017  0.00  0.00    +0.000 A 
ATOM      4  C   UNL     1     -16.393  44.135 -13.433  0.00  0.00    +0.000 A 
ATOM      5  C   UNL     1     -14.888  43.301 -11.791  0.00  0.00    +0.000 A 
ATOM      6  C   UNL     1     -15.150  44.199 -12.815  0.00  0.00    +0.000 A 
ENDROOT
BRANCH   2   7
ATOM      7  N   UNL     1     -17.896  41.383 -11.560  0.00  0.00    +0.000 N 
ATOM      8  N   UNL     1     -19.600  39.311 -10.585  0.00  0.00    +0.000 NA
ATOM      9  C   UNL     1     -17.793  40.025 -12.111  0.00  0.00    +0.000 C 
ATOM     10  C   UNL     1     -18.479  41.483 -10.218  0.00  0.00    +0.000 C 
ATOM     11  C   UNL     1     -19.124  39.287 -11.967  0.00  0.00    +0.000 C 
ATOM     12  C   UNL     1     -19.785  40.693 -10.140  0.00  0.00    +0.000 C 
ATOM     13  H   UNL     1     -20.491  38.818 -10.527  0.00  0.00    +0.000 HD
ENDBRANCH   2   7
BRANCH   3  16
ATOM     14  O   UNL     1     -18.919  42.248 -14.486  0.00  0.00    +0.000 OA
ATOM     15  N   UNL     1     -19.545  44.105 -13.322  0.00  0.00    +0.000 N 
ATOM     16  C   UNL     1     -18.623  43.131 -13.671  0.00  0.00    +0.000 C 
ATOM     17  H   UNL     1     -19.331  44.837 -12.651  0.00  0.00    +0.000 HD
ATOM     18  H   UNL     1     -20.472  44.119 -13.735  0.00  0.00    +0.000 HD
ENDBRANCH   3  16
TORSDOF 2
ENDMDL
MODEL 3
REMARK VINA RESULT:    -5.788      2.439      4.457
REMARK INTER + INTRA:          -6.371
REMARK INTER:                  -6.315
REMARK INTRA:                  -0.057
REMARK UNBOUND:                 0.094
REMARK  Name = 16785637
REMARK  2 active torsions:
REMARK  status: ('A' for Active; 'I' for Inactive)
REMARK    1  A    between atoms: N_2  and  C_10
REMARK    2  A    between atoms: C_11  and  C_13
REMARK                            x       y       z     vdW  Elec       q    Type
REMARK                         _______ _______ _______ _____ _____    ______ ____
ROOT
ATOM      1  N   UNL     1     -17.412  44.066 -11.288  0.00  0.00    +0.000 NA
ATOM      2  C   UNL     1     -18.055  43.341 -12.230  0.00  0.00    +0.000 A 
ATOM      3  C   UNL     1     -18.702  43.891 -13.325  0.00  0.00    +0.000 A 
ATOM      4  C   UNL     1     -18.687  45.275 -13.462  0.00  0.00    +0.000 A 
ATOM      5  C   UNL     1     -17.419  45.407 -11.453  0.00  0.00    +0.000 A 
ATOM      6  C   UNL     1     -18.035  46.055 -12.513  0.00  0.00    +0.000 A 
ENDROOT
BRANCH   2   7
ATOM      7  N   UNL     1     -18.065  41.948 -12.086  0.00  0.00    +0.000 N 
ATOM      8  N   UNL     1     -17.893  39.136 -11.627  0.00  0.00    +0.000 NA
ATOM      9  C   UNL     1     -16.892  41.197 -12.552  0.00  0.00    +0.000 C 
ATOM     10  C   UNL     1     -18.817  41.336 -10.985  0.00  0.00    +0.000 C 
ATOM     11  C   UNL     1     -17.258  39.734 -12.801  0.00  0.00    +0.000 C 
ATOM     12  C   UNL     1     -19.113  39.869 -11.288  0.00  0.00    +0.000 C 
ATOM     13  H   UNL     1     -18.130  38.165 -11.831  0.00  0.00    +0.000 HD
ENDBRANCH   2   7
BRANCH   3  16
ATOM     14  O   UNL     1     -20.227  42.227 -14.026  0.00  0.00    +0.000 OA
ATOM     15  N   UNL     1     -19.073  43.330 -15.652  0.00  0.00    +0.000 N 
ATOM     16  C   UNL     1     -19.386  43.082 -14.325  0.00  0.00    +0.000 C 
ATOM     17  H   UNL     1     -18.392  44.032 -15.925  0.00  0.00    +0.000 HD
ATOM     18  H   UNL     1     -19.518  42.808 -16.399  0.00  0.00    +0.000 HD
ENDBRANCH   3  16
TORSDOF 2
ENDMDL
MODEL 4
REMARK VINA RESULT:    -5.526      2.588      5.266
REMARK INTER + INTRA:          -6.078
REMARK INTER:                  -6.101
REMARK INTRA:                   0.023
REMARK UNBOUND:                 0.094
REMARK  Name = 16785637
REMARK  2 active torsions:
REMARK  status: ('A' for Active; 'I' for Inactive)
REMARK    1  A    between atoms: N_2  and  C_10
REMARK    2  A    between atoms: C_11  and  C_13
REMARK                            x       y       z     vdW  Elec       q    Type
REMARK                         _______ _______ _______ _____ _____    ______ ____
ROOT
ATOM      1  N   UNL     1     -18.897  43.339 -13.980  0.00  0.00    +0.000 NA
ATOM      2  C   UNL     1     -17.842  43.012 -13.201  0.00  0.00    +0.000 A 
ATOM      3  C   UNL     1     -16.724  43.814 -13.032  0.00  0.00    +0.000 A 
ATOM      4  C   UNL     1     -16.687  45.029 -13.708  0.00  0.00    +0.000 A 
ATOM      5  C   UNL     1     -18.826  44.527 -14.621  0.00  0.00    +0.000 A 
ATOM      6  C   UNL     1     -17.754  45.400 -14.519  0.00  0.00    +0.000 A 
ENDROOT
BRANCH   2   7
ATOM      7  N   UNL     1     -17.887  41.788 -12.524  0.00  0.00    +0.000 N 
ATOM      8  N   UNL     1     -18.176  39.228 -11.292  0.00  0.00    +0.000 NA
ATOM      9  C   UNL     1     -19.066  41.498 -11.697  0.00  0.00    +0.000 C 
ATOM     10  C   UNL     1     -17.202  40.620 -13.088  0.00  0.00    +0.000 C 
ATOM     11  C   UNL     1     -18.742  40.421 -10.663  0.00  0.00    +0.000 C 
ATOM     12  C   UNL     1     -16.945  39.573 -12.005  0.00  0.00    +0.000 C 
ATOM     13  H   UNL     1     -17.965  38.536 -10.574  0.00  0.00    +0.000 HD
ENDBRANCH   2   7
BRANCH   3  16
ATOM     14  O   UNL     1     -15.745  43.102 -11.002  0.00  0.00    +0.000 OA
ATOM     15  N   UNL     1     -14.347  43.433 -12.771  0.00  0.00    +0.000 N 
ATOM     16  C   UNL     1     -15.603  43.434 -12.184  0.00  0.00    +0.000 C 
ATOM     17  H   UNL     1     -14.203  43.694 -13.741  0.00  0.00    +0.000 HD
ATOM     18  H   UNL     1     -13.523  43.172 -12.239  0.00  0.00    +0.000 HD
ENDBRANCH   3  16
TORSDOF 2
ENDMDL
MODEL 5
REMARK VINA RESULT:    -5.264      7.209      8.733
REMARK INTER + INTRA:          -5.786
REMARK INTER:                  -5.483
REMARK INTRA:                  -0.303
REMARK UNBOUND:                 0.094
REMARK  Name = 16785637
REMARK  2 active torsions:
REMARK  status: ('A' for Active; 'I' for Inactive)
REMARK    1  A    between atoms: N_2  and  C_10
REMARK    2  A    between atoms: C_11  and  C_13
REMARK                            x       y       z     vdW  Elec       q    Type
REMARK                         _______ _______ _______ _____ _____    ______ ____
ROOT
ATOM      1  N   UNL     1     -21.970  46.078 -18.441  0.00  0.00    +0.000 NA
ATOM      2  C   UNL     1     -21.116  45.075 -18.136  0.00  0.00    +0.000 A 
ATOM      3  C   UNL     1     -21.398  44.067 -17.228  0.00  0.00    +0.000 A 
ATOM      4  C   UNL     1     -22.635  44.090 -16.593  0.00  0.00    +0.000 A 
ATOM      5  C   UNL     1     -23.161  46.068 -17.804  0.00  0.00    +0.000 A 
ATOM      6  C   UNL     1     -23.539  45.105 -16.881  0.00  0.00    +0.000 A 
ENDROOT
BRANCH   2   7
ATOM      7  N   UNL     1     -19.873  45.058 -18.779  0.00  0.00    +0.000 N 
ATOM      8  N   UNL     1     -17.426  45.212 -20.242  0.00  0.00    +0.000 NA
ATOM      9  C   UNL     1     -19.830  44.644 -20.188  0.00  0.00    +0.000 C 
ATOM     10  C   UNL     1     -18.824  45.992 -18.359  0.00  0.00    +0.000 C 
ATOM     11  C   UNL     1     -18.422  44.192 -20.570  0.00  0.00    +0.000 C 
ATOM     12  C   UNL     1     -17.451  45.494 -18.806  0.00  0.00    +0.000 C 
ATOM     13  H   UNL     1     -16.500  44.874 -20.502  0.00  0.00    +0.000 HD
ENDBRANCH   2   7
BRANCH   3  16
ATOM     14  O   UNL     1     -20.512  41.888 -17.461  0.00  0.00    +0.000 OA
ATOM     15  N   UNL     1     -19.463  43.286 -15.998  0.00  0.00    +0.000 N 
ATOM     16  C   UNL     1     -20.457  42.998 -16.920  0.00  0.00    +0.000 C 
ATOM     17  H   UNL     1     -19.391  44.192 -15.545  0.00  0.00    +0.000 HD
ATOM     18  H   UNL     1     -18.771  42.589 -15.743  0.00  0.00    +0.000 HD
ENDBRANCH   3  16
TORSDOF 2
ENDMDL
