MODEL 1
REMARK VINA RESULT:    -6.168      0.000      0.000
REMARK INTER + INTRA:          -7.513
REMARK INTER:                  -7.070
REMARK INTRA:                  -0.444
REMARK UNBOUND:                -0.444
REMARK  Name = 16793970
REMARK  3 active torsions:
REMARK  status: ('A' for Active; 'I' for Inactive)
REMARK    1  A    between atoms: N_2  and  C_11
REMARK    2  A    between atoms: N_3  and  C_6
REMARK    3  A    between atoms: C_12  and  C_14
REMARK                            x       y       z     vdW  Elec       q    Type
REMARK                         _______ _______ _______ _____ _____    ______ ____
ROOT
ATOM      1  N   UNL     1     -18.120  42.260  -9.071  0.00  0.00    +0.000 NA
ATOM      2  C   UNL     1     -18.176  41.959 -10.389  0.00  0.00    +0.000 A 
ATOM      3  C   UNL     1     -18.898  40.898 -10.911  0.00  0.00    +0.000 A 
ATOM      4  C   UNL     1     -19.608  40.094 -10.026  0.00  0.00    +0.000 A 
ATOM      5  C   UNL     1     -18.823  41.457  -8.242  0.00  0.00    +0.000 A 
ATOM      6  C   UNL     1     -19.575  40.372  -8.665  0.00  0.00    +0.000 A 
ENDROOT
BRANCH   2   7
ATOM      7  N   UNL     1     -17.459  42.772 -11.275  0.00  0.00    +0.000 N 
ATOM      8  C   UNL     1     -15.986  44.565 -12.996  0.00  0.00    +0.000 C 
ATOM      9  C   UNL     1     -17.517  44.555 -12.976  0.00  0.00    +0.000 C 
ATOM     10  C   UNL     1     -15.456  43.172 -12.652  0.00  0.00    +0.000 C 
ATOM     11  C   UNL     1     -18.047  44.072 -11.625  0.00  0.00    +0.000 C 
ATOM     12  C   UNL     1     -15.995  42.690 -11.304  0.00  0.00    +0.000 C 
BRANCH   8  13
ATOM     13  N   UNL     1     -15.489  44.979 -14.307  0.00  0.00    +0.000 NA
ATOM     14  H   UNL     1     -16.110  45.684 -14.702  0.00  0.00    +0.000 HD
ATOM     15  H   UNL     1     -15.508  44.186 -14.947  0.00  0.00    +0.000 HD
ENDBRANCH   8  13
ENDBRANCH   2   7
BRANCH   3  18
ATOM     16  O   UNL     1     -19.764  41.113 -13.100  0.00  0.00    +0.000 OA
ATOM     17  N   UNL     1     -17.987  39.714 -12.818  0.00  0.00    +0.000 N 
ATOM     18  C   UNL     1     -18.940  40.599 -12.336  0.00  0.00    +0.000 C 
ATOM     19  H   UNL     1     -17.295  39.283 -12.214  0.00  0.00    +0.000 HD
ATOM     20  H   UNL     1     -17.955  39.467 -13.802  0.00  0.00    +0.000 HD
ENDBRANCH   3  18
TORSDOF 3
ENDMDL
MODEL 2
REMARK VINA RESULT:    -4.856      6.094      7.603
REMARK INTER + INTRA:          -6.009
REMARK INTER:                  -5.612
REMARK INTRA:                  -0.398
REMARK UNBOUND:                -0.444
REMARK  Name = 16793970
REMARK  3 active torsions:
REMARK  status: ('A' for Active; 'I' for Inactive)
REMARK    1  A    between atoms: N_2  and  C_11
REMARK    2  A    between atoms: N_3  and  C_6
REMARK    3  A    between atoms: C_12  and  C_14
REMARK                            x       y       z     vdW  Elec       q    Type
REMARK                         _______ _______ _______ _____ _____    ______ ____
ROOT
ATOM      1  N   UNL     1     -22.105  46.264 -17.996  0.00  0.00    +0.000 NA
ATOM      2  C   UNL     1     -21.276  45.274 -17.594  0.00  0.00    +0.000 A 
ATOM      3  C   UNL     1     -21.688  44.157 -16.886  0.00  0.00    +0.000 A 
ATOM      4  C   UNL     1     -23.038  44.047 -16.569  0.00  0.00    +0.000 A 
ATOM      5  C   UNL     1     -23.410  46.123 -17.670  0.00  0.00    +0.000 A 
ATOM      6  C   UNL     1     -23.921  45.045 -16.965  0.00  0.00    +0.000 A 
ENDROOT
BRANCH   2   7
ATOM      7  N   UNL     1     -19.918  45.390 -17.916  0.00  0.00    +0.000 N 
ATOM      8  C   UNL     1     -17.158  45.714 -18.708  0.00  0.00    +0.000 C 
ATOM      9  C   UNL     1     -18.022  44.581 -19.267  0.00  0.00    +0.000 C 
ATOM     10  C   UNL     1     -17.635  46.079 -17.300  0.00  0.00    +0.000 C 
ATOM     11  C   UNL     1     -19.504  44.961 -19.259  0.00  0.00    +0.000 C 
ATOM     12  C   UNL     1     -19.118  46.451 -17.295  0.00  0.00    +0.000 C 
BRANCH   8  13
ATOM     13  N   UNL     1     -15.750  45.322 -18.673  0.00  0.00    +0.000 NA
ATOM     14  H   UNL     1     -15.532  44.907 -17.768  0.00  0.00    +0.000 HD
ATOM     15  H   UNL     1     -15.162  46.148 -18.761  0.00  0.00    +0.000 HD
ENDBRANCH   8  13
ENDBRANCH   2   7
BRANCH   3  18
ATOM     16  O   UNL     1     -20.387  42.214 -17.231  0.00  0.00    +0.000 OA
ATOM     17  N   UNL     1     -20.315  43.158 -15.158  0.00  0.00    +0.000 N 
ATOM     18  C   UNL     1     -20.770  43.106 -16.466  0.00  0.00    +0.000 C 
ATOM     19  H   UNL     1     -20.607  43.884 -14.512  0.00  0.00    +0.000 HD
ATOM     20  H   UNL     1     -19.668  42.462 -14.802  0.00  0.00    +0.000 HD
ENDBRANCH   3  18
TORSDOF 3
ENDMDL
MODEL 3
REMARK VINA RESULT:    -4.855      1.952      2.427
REMARK INTER + INTRA:          -6.008
REMARK INTER:                  -5.797
REMARK INTRA:                  -0.211
REMARK UNBOUND:                -0.444
REMARK  Name = 16793970
REMARK  3 active torsions:
REMARK  status: ('A' for Active; 'I' for Inactive)
REMARK    1  A    between atoms: N_2  and  C_11
REMARK    2  A    between atoms: N_3  and  C_6
REMARK    3  A    between atoms: C_12  and  C_14
REMARK                            x       y       z     vdW  Elec       q    Type
REMARK                         _______ _______ _______ _____ _____    ______ ____
ROOT
ATOM      1  N   UNL     1     -17.105  41.587 -11.011  0.00  0.00    +0.000 NA
ATOM      2  C   UNL     1     -17.706  42.274 -12.008  0.00  0.00    +0.000 A 
ATOM      3  C   UNL     1     -18.762  41.786 -12.759  0.00  0.00    +0.000 A 
ATOM      4  C   UNL     1     -19.234  40.510 -12.469  0.00  0.00    +0.000 A 
ATOM      5  C   UNL     1     -17.589  40.351 -10.757  0.00  0.00    +0.000 A 
ATOM      6  C   UNL     1     -18.642  39.773 -11.451  0.00  0.00    +0.000 A 
ENDROOT
BRANCH   2   7
ATOM      7  N   UNL     1     -17.227  43.559 -12.295  0.00  0.00    +0.000 N 
ATOM      8  C   UNL     1     -16.163  46.206 -12.750  0.00  0.00    +0.000 C 
ATOM      9  C   UNL     1     -17.455  45.990 -11.958  0.00  0.00    +0.000 C 
ATOM     10  C   UNL     1     -15.998  45.090 -13.783  0.00  0.00    +0.000 C 
ATOM     11  C   UNL     1     -17.473  44.610 -11.298  0.00  0.00    +0.000 C 
ATOM     12  C   UNL     1     -16.024  43.712 -13.120  0.00  0.00    +0.000 C 
BRANCH   8  13
ATOM     13  N   UNL     1     -16.177  47.507 -13.418  0.00  0.00    +0.000 NA
ATOM     14  H   UNL     1     -15.228  47.772 -13.672  0.00  0.00    +0.000 HD
ATOM     15  H   UNL     1     -16.514  48.220 -12.773  0.00  0.00    +0.000 HD
ENDBRANCH   8  13
ENDBRANCH   2   7
BRANCH   3  18
ATOM     16  O   UNL     1     -19.336  42.206 -15.014  0.00  0.00    +0.000 OA
ATOM     17  N   UNL     1     -20.085  43.692 -13.457  0.00  0.00    +0.000 N 
ATOM     18  C   UNL     1     -19.390  42.551 -13.828  0.00  0.00    +0.000 C 
ATOM     19  H   UNL     1     -20.151  43.994 -12.490  0.00  0.00    +0.000 HD
ATOM     20  H   UNL     1     -20.552  44.268 -14.149  0.00  0.00    +0.000 HD
ENDBRANCH   3  18
TORSDOF 3
ENDMDL
MODEL 4
REMARK VINA RESULT:    -4.756      4.706      6.313
REMARK INTER + INTRA:          -5.894
REMARK INTER:                  -5.485
REMARK INTRA:                  -0.410
REMARK UNBOUND:                -0.444
REMARK  Name = 16793970
REMARK  3 active torsions:
REMARK  status: ('A' for Active; 'I' for Inactive)
REMARK    1  A    between atoms: N_2  and  C_11
REMARK    2  A    between atoms: N_3  and  C_6
REMARK    3  A    between atoms: C_12  and  C_14
REMARK                            x       y       z     vdW  Elec       q    Type
REMARK                         _______ _______ _______ _____ _____    ______ ____
ROOT
ATOM      1  N   UNL     1     -19.840  42.284 -14.473  0.00  0.00    +0.000 NA
ATOM      2  C   UNL     1     -19.509  43.464 -15.045  0.00  0.00    +0.000 A 
ATOM      3  C   UNL     1     -18.700  44.416 -14.446  0.00  0.00    +0.000 A 
ATOM      4  C   UNL     1     -18.197  44.140 -13.179  0.00  0.00    +0.000 A 
ATOM      5  C   UNL     1     -19.333  42.050 -13.242  0.00  0.00    +0.000 A 
ATOM      6  C   UNL     1     -18.515  42.937 -12.559  0.00  0.00    +0.000 A 
ENDROOT
BRANCH   2   7
ATOM      7  N   UNL     1     -20.017  43.736 -16.321  0.00  0.00    +0.000 N 
ATOM      8  C   UNL     1     -21.066  44.141 -18.983  0.00  0.00    +0.000 C 
ATOM      9  C   UNL     1     -19.561  44.034 -18.725  0.00  0.00    +0.000 C 
ATOM     10  C   UNL     1     -21.760  44.728 -17.752  0.00  0.00    +0.000 C 
ATOM     11  C   UNL     1     -19.273  43.205 -17.472  0.00  0.00    +0.000 C 
ATOM     12  C   UNL     1     -21.464  43.901 -16.500  0.00  0.00    +0.000 C 
BRANCH   8  13
ATOM     13  N   UNL     1     -21.332  44.977 -20.153  0.00  0.00    +0.000 NA
ATOM     14  H   UNL     1     -22.264  45.381 -20.081  0.00  0.00    +0.000 HD
ATOM     15  H   UNL     1     -21.330  44.401 -20.993  0.00  0.00    +0.000 HD
ENDBRANCH   8  13
ENDBRANCH   2   7
BRANCH   3  18
ATOM     16  O   UNL     1     -19.058  46.693 -14.972  0.00  0.00    +0.000 OA
ATOM     17  N   UNL     1     -17.190  45.709 -15.830  0.00  0.00    +0.000 N 
ATOM     18  C   UNL     1     -18.360  45.679 -15.088  0.00  0.00    +0.000 C 
ATOM     19  H   UNL     1     -16.595  44.893 -15.935  0.00  0.00    +0.000 HD
ATOM     20  H   UNL     1     -16.890  46.558 -16.297  0.00  0.00    +0.000 HD
ENDBRANCH   3  18
TORSDOF 3
ENDMDL
MODEL 5
REMARK VINA RESULT:    -4.480     21.565     23.921
REMARK INTER + INTRA:          -5.578
REMARK INTER:                  -5.131
REMARK INTRA:                  -0.447
REMARK UNBOUND:                -0.444
REMARK  Name = 16793970
REMARK  3 active torsions:
REMARK  status: ('A' for Active; 'I' for Inactive)
REMARK    1  A    between atoms: N_2  and  C_11
REMARK    2  A    between atoms: N_3  and  C_6
REMARK    3  A    between atoms: C_12  and  C_14
REMARK                            x       y       z     vdW  Elec       q    Type
REMARK                         _______ _______ _______ _____ _____    ______ ____
ROOT
ATOM      1  N   UNL     1     -35.573  46.115   3.579  0.00  0.00    +0.000 NA
ATOM      2  C   UNL     1     -34.456  45.875   4.303  0.00  0.00    +0.000 A 
ATOM      3  C   UNL     1     -33.200  46.357   3.973  0.00  0.00    +0.000 A 
ATOM      4  C   UNL     1     -33.081  47.135   2.827  0.00  0.00    +0.000 A 
ATOM      5  C   UNL     1     -35.419  46.876   2.473  0.00  0.00    +0.000 A 
ATOM      6  C   UNL     1     -34.206  47.404   2.057  0.00  0.00    +0.000 A 
ENDROOT
BRANCH   2   7
ATOM      7  N   UNL     1     -34.582  45.091   5.456  0.00  0.00    +0.000 N 
ATOM      8  C   UNL     1     -34.997  43.509   7.839  0.00  0.00    +0.000 C 
ATOM      9  C   UNL     1     -34.705  45.010   7.917  0.00  0.00    +0.000 C 
ATOM     10  C   UNL     1     -34.333  42.919   6.593  0.00  0.00    +0.000 C 
ATOM     11  C   UNL     1     -35.164  45.728   6.646  0.00  0.00    +0.000 C 
ATOM     12  C   UNL     1     -34.788  43.644   5.325  0.00  0.00    +0.000 C 
BRANCH   8  13
ATOM     13  N   UNL     1     -34.509  42.825   9.035  0.00  0.00    +0.000 NA
ATOM     14  H   UNL     1     -34.780  43.350   9.865  0.00  0.00    +0.000 HD
ATOM     15  H   UNL     1     -33.491  42.803   9.027  0.00  0.00    +0.000 HD
ENDBRANCH   8  13
ENDBRANCH   2   7
BRANCH   3  18
ATOM     16  O   UNL     1     -31.692  46.773   5.746  0.00  0.00    +0.000 OA
ATOM     17  N   UNL     1     -31.257  44.978   4.411  0.00  0.00    +0.000 N 
ATOM     18  C   UNL     1     -32.014  46.081   4.773  0.00  0.00    +0.000 C 
ATOM     19  H   UNL     1     -31.502  44.389   3.622  0.00  0.00    +0.000 HD
ATOM     20  H   UNL     1     -30.423  44.725   4.930  0.00  0.00    +0.000 HD
ENDBRANCH   3  18
TORSDOF 3
ENDMDL
