MODEL 1
REMARK VINA RESULT:    -7.772      0.000      0.000
REMARK INTER + INTRA:          -8.292
REMARK INTER:                  -8.226
REMARK INTRA:                  -0.066
REMARK UNBOUND:                -0.066
REMARK  Name = 168788211
REMARK  1 active torsions:
REMARK  status: ('A' for Active; 'I' for Inactive)
REMARK    1  A    between atoms: C_11  and  C_13
REMARK                            x       y       z     vdW  Elec       q    Type
REMARK                         _______ _______ _______ _____ _____    ______ ____
ROOT
ATOM      1  N   UNL     1     -17.543  41.252  -9.493  0.00  0.00    +0.000 N 
ATOM      2  N   UNL     1     -18.839  42.212  -7.769  0.00  0.00    +0.000 NA
ATOM      3  C   UNL     1     -19.874  40.658  -9.284  0.00  0.00    +0.000 A 
ATOM      4  C   UNL     1     -18.760  41.380  -8.839  0.00  0.00    +0.000 A 
ATOM      5  C   UNL     1     -17.341  40.392 -10.646  0.00  0.00    +0.000 C 
ATOM      6  C   UNL     1     -19.757  39.770 -10.440  0.00  0.00    +0.000 C 
ATOM      7  C   UNL     1     -21.089  40.802  -8.611  0.00  0.00    +0.000 A 
ATOM      8  C   UNL     1     -18.578  39.655 -11.063  0.00  0.00    +0.000 C 
ATOM      9  C   UNL     1     -21.174  41.652  -7.517  0.00  0.00    +0.000 A 
ATOM     10  C   UNL     1     -20.030  42.328  -7.139  0.00  0.00    +0.000 A 
ATOM     11  H   UNL     1     -16.761  41.791  -9.140  0.00  0.00    +0.000 HD
ENDROOT
BRANCH   9  14
ATOM     12  O   UNL     1     -23.330  40.975  -6.853  0.00  0.00    +0.000 OA
ATOM     13  N   UNL     1     -22.582  42.985  -6.042  0.00  0.00    +0.000 N 
ATOM     14  C   UNL     1     -22.421  41.824  -6.794  0.00  0.00    +0.000 C 
ATOM     15  H   UNL     1     -21.896  43.723  -5.946  0.00  0.00    +0.000 HD
ATOM     16  H   UNL     1     -23.447  43.134  -5.532  0.00  0.00    +0.000 HD
ENDBRANCH   9  14
TORSDOF 1
ENDMDL
MODEL 2
REMARK VINA RESULT:    -7.583      2.491      4.759
REMARK INTER + INTRA:          -8.092
REMARK INTER:                  -8.024
REMARK INTRA:                  -0.067
REMARK UNBOUND:                -0.066
REMARK  Name = 168788211
REMARK  1 active torsions:
REMARK  status: ('A' for Active; 'I' for Inactive)
REMARK    1  A    between atoms: C_11  and  C_13
REMARK                            x       y       z     vdW  Elec       q    Type
REMARK                         _______ _______ _______ _____ _____    ______ ____
ROOT
ATOM      1  N   UNL     1     -20.372  42.604  -6.510  0.00  0.00    +0.000 N 
ATOM      2  N   UNL     1     -18.659  42.025  -8.027  0.00  0.00    +0.000 NA
ATOM      3  C   UNL     1     -20.818  40.989  -8.249  0.00  0.00    +0.000 A 
ATOM      4  C   UNL     1     -19.940  41.869  -7.604  0.00  0.00    +0.000 A 
ATOM      5  C   UNL     1     -21.718  42.520  -5.971  0.00  0.00    +0.000 C 
ATOM      6  C   UNL     1     -22.191  40.844  -7.769  0.00  0.00    +0.000 C 
ATOM      7  C   UNL     1     -20.361  40.259  -9.348  0.00  0.00    +0.000 A 
ATOM      8  C   UNL     1     -22.597  41.559  -6.712  0.00  0.00    +0.000 C 
ATOM      9  C   UNL     1     -19.053  40.415  -9.784  0.00  0.00    +0.000 A 
ATOM     10  C   UNL     1     -18.249  41.303  -9.095  0.00  0.00    +0.000 A 
ATOM     11  H   UNL     1     -19.706  43.229  -6.072  0.00  0.00    +0.000 HD
ENDROOT
BRANCH   9  14
ATOM     12  O   UNL     1     -17.345  39.716 -11.246  0.00  0.00    +0.000 OA
ATOM     13  N   UNL     1     -19.454  38.918 -11.663  0.00  0.00    +0.000 N 
ATOM     14  C   UNL     1     -18.546  39.672 -10.923  0.00  0.00    +0.000 C 
ATOM     15  H   UNL     1     -20.444  38.833 -11.470  0.00  0.00    +0.000 HD
ATOM     16  H   UNL     1     -19.127  38.394 -12.470  0.00  0.00    +0.000 HD
ENDBRANCH   9  14
TORSDOF 1
ENDMDL
MODEL 3
REMARK VINA RESULT:    -6.729      3.116      5.523
REMARK INTER + INTRA:          -7.188
REMARK INTER:                  -7.123
REMARK INTRA:                  -0.065
REMARK UNBOUND:                -0.066
REMARK  Name = 168788211
REMARK  1 active torsions:
REMARK  status: ('A' for Active; 'I' for Inactive)
REMARK    1  A    between atoms: C_11  and  C_13
REMARK                            x       y       z     vdW  Elec       q    Type
REMARK                         _______ _______ _______ _____ _____    ______ ____
ROOT
ATOM      1  N   UNL     1     -21.139  40.262  -8.671  0.00  0.00    +0.000 N 
ATOM      2  N   UNL     1     -19.906  39.396 -10.488  0.00  0.00    +0.000 NA
ATOM      3  C   UNL     1     -18.906  41.080  -9.093  0.00  0.00    +0.000 A 
ATOM      4  C   UNL     1     -19.976  40.241  -9.428  0.00  0.00    +0.000 A 
ATOM      5  C   UNL     1     -21.325  41.122  -7.516  0.00  0.00    +0.000 C 
ATOM      6  C   UNL     1     -19.013  41.979  -7.946  0.00  0.00    +0.000 C 
ATOM      7  C   UNL     1     -17.746  41.043  -9.871  0.00  0.00    +0.000 A 
ATOM      8  C   UNL     1     -20.139  41.990  -7.222  0.00  0.00    +0.000 C 
ATOM      9  C   UNL     1     -17.671  40.181 -10.955  0.00  0.00    +0.000 A 
ATOM     10  C   UNL     1     -18.769  39.384 -11.219  0.00  0.00    +0.000 A 
ATOM     11  H   UNL     1     -21.889  39.639  -8.946  0.00  0.00    +0.000 HD
ENDROOT
BRANCH   9  14
ATOM     12  O   UNL     1     -16.531  39.739 -12.968  0.00  0.00    +0.000 OA
ATOM     13  N   UNL     1     -15.265  40.475 -11.203  0.00  0.00    +0.000 N 
ATOM     14  C   UNL     1     -16.480  40.116 -11.783  0.00  0.00    +0.000 C 
ATOM     15  H   UNL     1     -15.139  40.787 -10.248  0.00  0.00    +0.000 HD
ATOM     16  H   UNL     1     -14.416  40.432 -11.757  0.00  0.00    +0.000 HD
ENDBRANCH   9  14
TORSDOF 1
ENDMDL
MODEL 4
REMARK VINA RESULT:    -6.027      3.708      5.827
REMARK INTER + INTRA:          -6.445
REMARK INTER:                  -6.388
REMARK INTRA:                  -0.057
REMARK UNBOUND:                -0.066
REMARK  Name = 168788211
REMARK  1 active torsions:
REMARK  status: ('A' for Active; 'I' for Inactive)
REMARK    1  A    between atoms: C_11  and  C_13
REMARK                            x       y       z     vdW  Elec       q    Type
REMARK                         _______ _______ _______ _____ _____    ______ ____
ROOT
ATOM      1  N   UNL     1     -20.057  40.022 -10.226  0.00  0.00    +0.000 N 
ATOM      2  N   UNL     1     -18.887  40.717 -12.155  0.00  0.00    +0.000 NA
ATOM      3  C   UNL     1     -18.387  41.757 -10.045  0.00  0.00    +0.000 A 
ATOM      4  C   UNL     1     -19.103  40.836 -10.820  0.00  0.00    +0.000 A 
ATOM      5  C   UNL     1     -20.371  40.061  -8.809  0.00  0.00    +0.000 C 
ATOM      6  C   UNL     1     -18.645  41.862  -8.610  0.00  0.00    +0.000 C 
ATOM      7  C   UNL     1     -17.433  42.568 -10.665  0.00  0.00    +0.000 A 
ATOM      8  C   UNL     1     -19.566  41.071  -8.048  0.00  0.00    +0.000 C 
ATOM      9  C   UNL     1     -17.209  42.449 -12.029  0.00  0.00    +0.000 A 
ATOM     10  C   UNL     1     -17.955  41.516 -12.723  0.00  0.00    +0.000 A 
ATOM     11  H   UNL     1     -20.552  39.369 -10.821  0.00  0.00    +0.000 HD
ENDROOT
BRANCH   9  14
ATOM     12  O   UNL     1     -16.561  44.161 -13.510  0.00  0.00    +0.000 OA
ATOM     13  N   UNL     1     -14.879  43.033 -12.435  0.00  0.00    +0.000 N 
ATOM     14  C   UNL     1     -16.224  43.275 -12.703  0.00  0.00    +0.000 C 
ATOM     15  H   UNL     1     -14.523  42.331 -11.798  0.00  0.00    +0.000 HD
ATOM     16  H   UNL     1     -14.169  43.591 -12.899  0.00  0.00    +0.000 HD
ENDBRANCH   9  14
TORSDOF 1
ENDMDL
MODEL 5
REMARK VINA RESULT:    -5.693      4.653      6.169
REMARK INTER + INTRA:          -6.091
REMARK INTER:                  -6.035
REMARK INTRA:                  -0.056
REMARK UNBOUND:                -0.066
REMARK  Name = 168788211
REMARK  1 active torsions:
REMARK  status: ('A' for Active; 'I' for Inactive)
REMARK    1  A    between atoms: C_11  and  C_13
REMARK                            x       y       z     vdW  Elec       q    Type
REMARK                         _______ _______ _______ _____ _____    ______ ____
ROOT
ATOM      1  N   UNL     1     -19.626  40.054 -12.497  0.00  0.00    +0.000 N 
ATOM      2  N   UNL     1     -19.674  41.943 -13.911  0.00  0.00    +0.000 NA
ATOM      3  C   UNL     1     -18.409  42.042 -11.868  0.00  0.00    +0.000 A 
ATOM      4  C   UNL     1     -19.237  41.357 -12.767  0.00  0.00    +0.000 A 
ATOM      5  C   UNL     1     -19.220  39.328 -11.307  0.00  0.00    +0.000 C 
ATOM      6  C   UNL     1     -17.956  41.384 -10.644  0.00  0.00    +0.000 C 
ATOM      7  C   UNL     1     -18.030  43.355 -12.161  0.00  0.00    +0.000 A 
ATOM      8  C   UNL     1     -18.338  40.126 -10.395  0.00  0.00    +0.000 C 
ATOM      9  C   UNL     1     -18.474  43.956 -13.329  0.00  0.00    +0.000 A 
ATOM     10  C   UNL     1     -19.287  43.214 -14.164  0.00  0.00    +0.000 A 
ATOM     11  H   UNL     1     -20.225  39.594 -13.172  0.00  0.00    +0.000 HD
ENDROOT
BRANCH   9  14
ATOM     12  O   UNL     1     -18.621  46.295 -13.096  0.00  0.00    +0.000 OA
ATOM     13  N   UNL     1     -17.141  45.503 -14.658  0.00  0.00    +0.000 N 
ATOM     14  C   UNL     1     -18.098  45.318 -13.663  0.00  0.00    +0.000 C 
ATOM     15  H   UNL     1     -16.673  44.764 -15.168  0.00  0.00    +0.000 HD
ATOM     16  H   UNL     1     -16.865  46.445 -14.916  0.00  0.00    +0.000 HD
ENDBRANCH   9  14
TORSDOF 1
ENDMDL
