MODEL 1
REMARK VINA RESULT:    -5.749      0.000      0.000
REMARK INTER + INTRA:          -6.455
REMARK INTER:                  -6.421
REMARK INTRA:                  -0.034
REMARK UNBOUND:                -0.034
REMARK  Name = 168786362
REMARK  2 active torsions:
REMARK  status: ('A' for Active; 'I' for Inactive)
REMARK    1  A    between atoms: N_3  and  C_8
REMARK    2  A    between atoms: C_4  and  C_9
REMARK                            x       y       z     vdW  Elec       q    Type
REMARK                         _______ _______ _______ _____ _____    ______ ____
ROOT
ATOM      1  N   UNL     1     -18.621  41.803  -8.234  0.00  0.00    +0.000 NA
ATOM      2  C   UNL     1     -20.869  41.610  -7.366  0.00  0.00    +0.000 A 
ATOM      3  C   UNL     1     -21.168  40.656  -8.331  0.00  0.00    +0.000 A 
ATOM      4  C   UNL     1     -20.195  40.275  -9.249  0.00  0.00    +0.000 A 
ATOM      5  C   UNL     1     -19.592  42.148  -7.359  0.00  0.00    +0.000 A 
ATOM      6  C   UNL     1     -18.949  40.872  -9.159  0.00  0.00    +0.000 A 
ENDROOT
BRANCH   2   8
ATOM      7  O   UNL     1     -22.995  42.411  -6.704  0.00  0.00    +0.000 OA
ATOM      8  C   UNL     1     -21.863  42.029  -6.392  0.00  0.00    +0.000 C 
ENDBRANCH   2   8
BRANCH   6   9
ATOM      9  N   UNL     1     -17.996  40.480 -10.085  0.00  0.00    +0.000 NA
ATOM     10  C   UNL     1     -17.191  40.148 -10.870  0.00  0.00    +0.000 C 
ENDBRANCH   6   9
TORSDOF 2
ENDMDL
MODEL 2
REMARK VINA RESULT:    -4.989      2.773      4.642
REMARK INTER + INTRA:          -5.606
REMARK INTER:                  -5.572
REMARK INTRA:                  -0.035
REMARK UNBOUND:                -0.034
REMARK  Name = 168786362
REMARK  2 active torsions:
REMARK  status: ('A' for Active; 'I' for Inactive)
REMARK    1  A    between atoms: N_3  and  C_8
REMARK    2  A    between atoms: C_4  and  C_9
REMARK                            x       y       z     vdW  Elec       q    Type
REMARK                         _______ _______ _______ _____ _____    ______ ____
ROOT
ATOM      1  N   UNL     1     -21.139  40.588  -8.343  0.00  0.00    +0.000 NA
ATOM      2  C   UNL     1     -19.029  40.523  -9.522  0.00  0.00    +0.000 A 
ATOM      3  C   UNL     1     -18.535  41.539  -8.711  0.00  0.00    +0.000 A 
ATOM      4  C   UNL     1     -19.343  42.080  -7.716  0.00  0.00    +0.000 A 
ATOM      5  C   UNL     1     -20.325  40.087  -9.299  0.00  0.00    +0.000 A 
ATOM      6  C   UNL     1     -20.625  41.575  -7.574  0.00  0.00    +0.000 A 
ENDROOT
BRANCH   2   8
ATOM      7  O   UNL     1     -18.622  39.063 -11.339  0.00  0.00    +0.000 OA
ATOM      8  C   UNL     1     -18.210  39.936 -10.568  0.00  0.00    +0.000 C 
ENDBRANCH   2   8
BRANCH   6   9
ATOM      9  N   UNL     1     -21.412  42.131  -6.579  0.00  0.00    +0.000 NA
ATOM     10  C   UNL     1     -22.078  42.603  -5.737  0.00  0.00    +0.000 C 
ENDBRANCH   6   9
TORSDOF 2
ENDMDL
MODEL 3
REMARK VINA RESULT:    -4.602      1.696      2.132
REMARK INTER + INTRA:          -5.174
REMARK INTER:                  -5.139
REMARK INTRA:                  -0.035
REMARK UNBOUND:                -0.034
REMARK  Name = 168786362
REMARK  2 active torsions:
REMARK  status: ('A' for Active; 'I' for Inactive)
REMARK    1  A    between atoms: N_3  and  C_8
REMARK    2  A    between atoms: C_4  and  C_9
REMARK                            x       y       z     vdW  Elec       q    Type
REMARK                         _______ _______ _______ _____ _____    ______ ____
ROOT
ATOM      1  N   UNL     1     -17.818  41.588 -10.201  0.00  0.00    +0.000 NA
ATOM      2  C   UNL     1     -19.497  41.190  -8.508  0.00  0.00    +0.000 A 
ATOM      3  C   UNL     1     -19.992  40.116  -9.238  0.00  0.00    +0.000 A 
ATOM      4  C   UNL     1     -19.401  39.777 -10.450  0.00  0.00    +0.000 A 
ATOM      5  C   UNL     1     -18.418  41.887  -9.028  0.00  0.00    +0.000 A 
ATOM      6  C   UNL     1     -18.327  40.536 -10.884  0.00  0.00    +0.000 A 
ENDROOT
BRANCH   2   8
ATOM      7  O   UNL     1     -19.598  42.416  -6.486  0.00  0.00    +0.000 OA
ATOM      8  C   UNL     1     -20.091  41.569  -7.237  0.00  0.00    +0.000 C 
ENDBRANCH   2   8
BRANCH   6   9
ATOM      9  N   UNL     1     -17.756  40.182 -12.096  0.00  0.00    +0.000 NA
ATOM     10  C   UNL     1     -17.273  39.881 -13.121  0.00  0.00    +0.000 C 
ENDBRANCH   6   9
TORSDOF 2
ENDMDL
MODEL 4
REMARK VINA RESULT:    -4.460      3.684      4.784
REMARK INTER + INTRA:          -5.015
REMARK INTER:                  -4.982
REMARK INTRA:                  -0.033
REMARK UNBOUND:                -0.034
REMARK  Name = 168786362
REMARK  2 active torsions:
REMARK  status: ('A' for Active; 'I' for Inactive)
REMARK    1  A    between atoms: N_3  and  C_8
REMARK    2  A    between atoms: C_4  and  C_9
REMARK                            x       y       z     vdW  Elec       q    Type
REMARK                         _______ _______ _______ _____ _____    ______ ____
ROOT
ATOM      1  N   UNL     1     -19.754  40.998 -12.731  0.00  0.00    +0.000 NA
ATOM      2  C   UNL     1     -18.508  41.234 -10.673  0.00  0.00    +0.000 A 
ATOM      3  C   UNL     1     -17.930  42.406 -11.148  0.00  0.00    +0.000 A 
ATOM      4  C   UNL     1     -18.263  42.875 -12.414  0.00  0.00    +0.000 A 
ATOM      5  C   UNL     1     -19.406  40.574 -11.496  0.00  0.00    +0.000 A 
ATOM      6  C   UNL     1     -19.172  42.142 -13.159  0.00  0.00    +0.000 A 
ENDROOT
BRANCH   2   8
ATOM      7  O   UNL     1     -18.388  41.349  -8.313  0.00  0.00    +0.000 OA
ATOM      8  C   UNL     1     -18.182  40.719  -9.354  0.00  0.00    +0.000 C 
ENDBRANCH   2   8
BRANCH   6   9
ATOM      9  N   UNL     1     -19.487  42.626 -14.419  0.00  0.00    +0.000 NA
ATOM     10  C   UNL     1     -19.753  43.036 -15.484  0.00  0.00    +0.000 C 
ENDBRANCH   6   9
TORSDOF 2
ENDMDL
MODEL 5
REMARK VINA RESULT:    -4.121      2.291      2.970
REMARK INTER + INTRA:          -4.636
REMARK INTER:                  -4.605
REMARK INTRA:                  -0.032
REMARK UNBOUND:                -0.034
REMARK  Name = 168786362
REMARK  2 active torsions:
REMARK  status: ('A' for Active; 'I' for Inactive)
REMARK    1  A    between atoms: N_3  and  C_8
REMARK    2  A    between atoms: C_4  and  C_9
REMARK                            x       y       z     vdW  Elec       q    Type
REMARK                         _______ _______ _______ _____ _____    ______ ____
ROOT
ATOM      1  N   UNL     1     -17.728  42.431  -9.902  0.00  0.00    +0.000 NA
ATOM      2  C   UNL     1     -19.508  40.821  -9.609  0.00  0.00    +0.000 A 
ATOM      3  C   UNL     1     -19.536  40.590 -10.980  0.00  0.00    +0.000 A 
ATOM      4  C   UNL     1     -18.661  41.278 -11.812  0.00  0.00    +0.000 A 
ATOM      5  C   UNL     1     -18.593  41.743  -9.125  0.00  0.00    +0.000 A 
ATOM      6  C   UNL     1     -17.784  42.179 -11.230  0.00  0.00    +0.000 A 
ENDROOT
BRANCH   2   8
ATOM      7  O   UNL     1     -21.450  40.614  -8.274  0.00  0.00    +0.000 OA
ATOM      8  C   UNL     1     -20.408  40.117  -8.712  0.00  0.00    +0.000 C 
ENDBRANCH   2   8
BRANCH   6   9
ATOM      9  N   UNL     1     -16.923  42.856 -12.080  0.00  0.00    +0.000 NA
ATOM     10  C   UNL     1     -16.196  43.428 -12.799  0.00  0.00    +0.000 C 
ENDBRANCH   6   9
TORSDOF 2
ENDMDL
