MODEL 1
REMARK VINA RESULT:    -6.946      0.000      0.000
REMARK INTER + INTRA:          -6.946
REMARK INTER:                  -6.946
REMARK INTRA:                   0.000
REMARK UNBOUND:                 0.000
REMARK  Name = 168968870
REMARK  1 active torsions:
REMARK  status: ('A' for Active; 'I' for Inactive)
REMARK    1  A    between atoms: N_4  and  C_13
REMARK                            x       y       z     vdW  Elec       q    Type
REMARK                         _______ _______ _______ _____ _____    ______ ____
ROOT
ATOM      1  O   UNL     1     -19.608  38.430 -11.657  0.00  0.00    +0.000 OA
ATOM      2  N   UNL     1     -17.734  39.716 -12.055  0.00  0.00    +0.000 N 
ATOM      3  N   UNL     1     -20.529  40.622  -8.205  0.00  0.00    +0.000 NA
ATOM      4  N   UNL     1     -19.944  42.407  -6.739  0.00  0.00    +0.000 N 
ATOM      5  C   UNL     1     -18.282  41.214  -9.781  0.00  0.00    +0.000 A 
ATOM      6  C   UNL     1     -19.141  40.165 -10.125  0.00  0.00    +0.000 A 
ATOM      7  C   UNL     1     -18.557  41.964  -8.639  0.00  0.00    +0.000 A 
ATOM      8  C   UNL     1     -19.680  41.631  -7.896  0.00  0.00    +0.000 A 
ATOM      9  C   UNL     1     -17.118  41.500 -10.619  0.00  0.00    +0.000 A 
ATOM     10  C   UNL     1     -18.865  39.353 -11.338  0.00  0.00    +0.000 A 
ATOM     11  C   UNL     1     -20.240  39.909  -9.317  0.00  0.00    +0.000 A 
ATOM     12  C   UNL     1     -16.902  40.749 -11.703  0.00  0.00    +0.000 A 
ATOM     13  C   UNL     1     -21.065  42.167  -5.892  0.00  0.00    +0.000 C 
ATOM     14  H   UNL     1     -17.501  39.193 -12.894  0.00  0.00    +0.000 HD
ATOM     15  H   UNL     1     -19.446  43.286  -6.650  0.00  0.00    +0.000 HD
ENDROOT
TORSDOF 0
ENDMDL
MODEL 2
REMARK VINA RESULT:    -6.158      1.913      2.598
REMARK INTER + INTRA:          -6.158
REMARK INTER:                  -6.158
REMARK INTRA:                   0.000
REMARK UNBOUND:                 0.000
REMARK  Name = 168968870
REMARK  1 active torsions:
REMARK  status: ('A' for Active; 'I' for Inactive)
REMARK    1  A    between atoms: N_4  and  C_13
REMARK                            x       y       z     vdW  Elec       q    Type
REMARK                         _______ _______ _______ _____ _____    ______ ____
ROOT
ATOM      1  O   UNL     1     -15.741  42.458 -11.449  0.00  0.00    +0.000 OA
ATOM      2  N   UNL     1     -16.703  40.768 -12.691  0.00  0.00    +0.000 N 
ATOM      3  N   UNL     1     -18.715  42.156  -8.510  0.00  0.00    +0.000 NA
ATOM      4  N   UNL     1     -20.699  41.072  -7.759  0.00  0.00    +0.000 N 
ATOM      5  C   UNL     1     -18.707  40.509 -10.784  0.00  0.00    +0.000 A 
ATOM      6  C   UNL     1     -17.707  41.470 -10.592  0.00  0.00    +0.000 A 
ATOM      7  C   UNL     1     -19.711  40.382  -9.827  0.00  0.00    +0.000 A 
ATOM      8  C   UNL     1     -19.669  41.219  -8.722  0.00  0.00    +0.000 A 
ATOM      9  C   UNL     1     -18.679  39.665 -11.978  0.00  0.00    +0.000 A 
ATOM     10  C   UNL     1     -16.627  41.623 -11.600  0.00  0.00    +0.000 A 
ATOM     11  C   UNL     1     -17.752  42.261  -9.453  0.00  0.00    +0.000 A 
ATOM     12  C   UNL     1     -17.691  39.831 -12.864  0.00  0.00    +0.000 A 
ATOM     13  C   UNL     1     -20.769  41.870  -6.580  0.00  0.00    +0.000 C 
ATOM     14  H   UNL     1     -15.988  40.831 -13.410  0.00  0.00    +0.000 HD
ATOM     15  H   UNL     1     -21.262  40.229  -7.810  0.00  0.00    +0.000 HD
ENDROOT
TORSDOF 0
ENDMDL
MODEL 3
REMARK VINA RESULT:    -5.956      2.577      4.546
REMARK INTER + INTRA:          -5.956
REMARK INTER:                  -5.956
REMARK INTRA:                   0.000
REMARK UNBOUND:                 0.000
REMARK  Name = 168968870
REMARK  1 active torsions:
REMARK  status: ('A' for Active; 'I' for Inactive)
REMARK    1  A    between atoms: N_4  and  C_13
REMARK                            x       y       z     vdW  Elec       q    Type
REMARK                         _______ _______ _______ _____ _____    ______ ____
ROOT
ATOM      1  O   UNL     1     -19.482  39.324 -12.812  0.00  0.00    +0.000 OA
ATOM      2  N   UNL     1     -19.683  39.593 -10.529  0.00  0.00    +0.000 N 
ATOM      3  N   UNL     1     -17.167  42.802 -13.140  0.00  0.00    +0.000 NA
ATOM      4  N   UNL     1     -16.145  44.651 -12.038  0.00  0.00    +0.000 N 
ATOM      5  C   UNL     1     -18.154  41.908 -10.669  0.00  0.00    +0.000 A 
ATOM      6  C   UNL     1     -18.423  41.200 -11.846  0.00  0.00    +0.000 A 
ATOM      7  C   UNL     1     -17.388  43.069 -10.741  0.00  0.00    +0.000 A 
ATOM      8  C   UNL     1     -16.924  43.468 -11.986  0.00  0.00    +0.000 A 
ATOM      9  C   UNL     1     -18.682  41.420  -9.395  0.00  0.00    +0.000 A 
ATOM     10  C   UNL     1     -19.237  39.959 -11.791  0.00  0.00    +0.000 A 
ATOM     11  C   UNL     1     -17.913  41.679 -13.044  0.00  0.00    +0.000 A 
ATOM     12  C   UNL     1     -19.411  40.299  -9.385  0.00  0.00    +0.000 A 
ATOM     13  C   UNL     1     -15.608  45.166 -13.254  0.00  0.00    +0.000 C 
ATOM     14  H   UNL     1     -20.245  38.751 -10.437  0.00  0.00    +0.000 HD
ATOM     15  H   UNL     1     -15.781  45.003 -11.158  0.00  0.00    +0.000 HD
ENDROOT
TORSDOF 0
ENDMDL
MODEL 4
REMARK VINA RESULT:    -5.784      3.709      5.007
REMARK INTER + INTRA:          -5.784
REMARK INTER:                  -5.784
REMARK INTRA:                   0.000
REMARK UNBOUND:                 0.000
REMARK  Name = 168968870
REMARK  1 active torsions:
REMARK  status: ('A' for Active; 'I' for Inactive)
REMARK    1  A    between atoms: N_4  and  C_13
REMARK                            x       y       z     vdW  Elec       q    Type
REMARK                         _______ _______ _______ _____ _____    ______ ____
ROOT
ATOM      1  O   UNL     1     -19.852  42.249 -13.881  0.00  0.00    +0.000 OA
ATOM      2  N   UNL     1     -19.886  40.275 -12.686  0.00  0.00    +0.000 N 
ATOM      3  N   UNL     1     -16.017  43.179 -12.467  0.00  0.00    +0.000 NA
ATOM      4  N   UNL     1     -14.160  42.541 -11.117  0.00  0.00    +0.000 N 
ATOM      5  C   UNL     1     -17.344  40.824 -11.709  0.00  0.00    +0.000 A 
ATOM      6  C   UNL     1     -17.948  41.738 -12.581  0.00  0.00    +0.000 A 
ATOM      7  C   UNL     1     -16.070  41.101 -11.220  0.00  0.00    +0.000 A 
ATOM      8  C   UNL     1     -15.458  42.278 -11.625  0.00  0.00    +0.000 A 
ATOM      9  C   UNL     1     -18.058  39.605 -11.331  0.00  0.00    +0.000 A 
ATOM     10  C   UNL     1     -19.307  41.461 -13.114  0.00  0.00    +0.000 A 
ATOM     11  C   UNL     1     -17.254  42.888 -12.928  0.00  0.00    +0.000 A 
ATOM     12  C   UNL     1     -19.279  39.390 -11.831  0.00  0.00    +0.000 A 
ATOM     13  C   UNL     1     -13.425  43.714 -11.457  0.00  0.00    +0.000 C 
ATOM     14  H   UNL     1     -20.815  40.038 -13.023  0.00  0.00    +0.000 HD
ATOM     15  H   UNL     1     -13.668  41.766 -10.685  0.00  0.00    +0.000 HD
ENDROOT
TORSDOF 0
ENDMDL
MODEL 5
REMARK VINA RESULT:    -5.689      3.642      5.260
REMARK INTER + INTRA:          -5.689
REMARK INTER:                  -5.689
REMARK INTRA:                   0.000
REMARK UNBOUND:                 0.000
REMARK  Name = 168968870
REMARK  1 active torsions:
REMARK  status: ('A' for Active; 'I' for Inactive)
REMARK    1  A    between atoms: N_4  and  C_13
REMARK                            x       y       z     vdW  Elec       q    Type
REMARK                         _______ _______ _______ _____ _____    ______ ____
ROOT
ATOM      1  O   UNL     1     -15.725  40.300 -11.281  0.00  0.00    +0.000 OA
ATOM      2  N   UNL     1     -17.809  39.313 -11.350  0.00  0.00    +0.000 N 
ATOM      3  N   UNL     1     -17.146  43.718 -13.248  0.00  0.00    +0.000 NA
ATOM      4  N   UNL     1     -18.993  44.844 -14.246  0.00  0.00    +0.000 N 
ATOM      5  C   UNL     1     -18.822  41.546 -12.655  0.00  0.00    +0.000 A 
ATOM      6  C   UNL     1     -17.468  41.523 -12.301  0.00  0.00    +0.000 A 
ATOM      7  C   UNL     1     -19.328  42.666 -13.310  0.00  0.00    +0.000 A 
ATOM      8  C   UNL     1     -18.458  43.712 -13.580  0.00  0.00    +0.000 A 
ATOM      9  C   UNL     1     -19.673  40.401 -12.334  0.00  0.00    +0.000 A 
ATOM     10  C   UNL     1     -16.908  40.338 -11.601  0.00  0.00    +0.000 A 
ATOM     11  C   UNL     1     -16.678  42.619 -12.614  0.00  0.00    +0.000 A 
ATOM     12  C   UNL     1     -19.134  39.352 -11.704  0.00  0.00    +0.000 A 
ATOM     13  C   UNL     1     -18.205  45.984 -14.579  0.00  0.00    +0.000 C 
ATOM     14  H   UNL     1     -17.477  38.480 -10.873  0.00  0.00    +0.000 HD
ATOM     15  H   UNL     1     -20.004  44.925 -14.278  0.00  0.00    +0.000 HD
ENDROOT
TORSDOF 0
ENDMDL
