MODEL 1
REMARK VINA RESULT:    -6.038      0.000      0.000
REMARK INTER + INTRA:          -6.038
REMARK INTER:                  -6.038
REMARK INTRA:                   0.000
REMARK UNBOUND:                 0.000
REMARK  Name = 169148623
REMARK  0 active torsions:
REMARK  status: ('A' for Active; 'I' for Inactive)
REMARK                            x       y       z     vdW  Elec       q    Type
REMARK                         _______ _______ _______ _____ _____    ______ ____
ROOT
ATOM      1  I   UNL     1     -15.839  43.841 -12.759  0.00  0.00    +0.000 I 
ATOM      2  O   UNL     1     -19.311  39.868 -12.717  0.00  0.00    +0.000 OA
ATOM      3  N   UNL     1     -17.813  41.623 -12.579  0.00  0.00    +0.000 N 
ATOM      4  N   UNL     1     -17.331  42.705 -10.532  0.00  0.00    +0.000 NA
ATOM      5  N   UNL     1     -18.380  42.009  -8.568  0.00  0.00    +0.000 NA
ATOM      6  C   UNL     1     -18.934  40.848 -10.603  0.00  0.00    +0.000 A 
ATOM      7  C   UNL     1     -18.236  41.830  -9.902  0.00  0.00    +0.000 A 
ATOM      8  C   UNL     1     -18.722  40.715 -12.058  0.00  0.00    +0.000 A 
ATOM      9  C   UNL     1     -19.815  40.016  -9.916  0.00  0.00    +0.000 A 
ATOM     10  C   UNL     1     -17.166  42.565 -11.808  0.00  0.00    +0.000 A 
ATOM     11  C   UNL     1     -19.974  40.186  -8.547  0.00  0.00    +0.000 A 
ATOM     12  C   UNL     1     -19.242  41.186  -7.926  0.00  0.00    +0.000 A 
ATOM     13  H   UNL     1     -17.616  41.591 -13.574  0.00  0.00    +0.000 HD
ENDROOT
TORSDOF 0
ENDMDL
MODEL 2
REMARK VINA RESULT:    -5.498      2.548      3.871
REMARK INTER + INTRA:          -5.498
REMARK INTER:                  -5.498
REMARK INTRA:                   0.000
REMARK UNBOUND:                 0.000
REMARK  Name = 169148623
REMARK  0 active torsions:
REMARK  status: ('A' for Active; 'I' for Inactive)
REMARK                            x       y       z     vdW  Elec       q    Type
REMARK                         _______ _______ _______ _____ _____    ______ ____
ROOT
ATOM      1  I   UNL     1     -20.342  41.530  -7.178  0.00  0.00    +0.000 I 
ATOM      2  O   UNL     1     -19.560  38.614 -11.507  0.00  0.00    +0.000 OA
ATOM      3  N   UNL     1     -19.798  39.996  -9.669  0.00  0.00    +0.000 N 
ATOM      4  N   UNL     1     -18.602  42.025  -9.460  0.00  0.00    +0.000 NA
ATOM      5  N   UNL     1     -17.126  42.690 -11.139  0.00  0.00    +0.000 NA
ATOM      6  C   UNL     1     -18.299  40.609 -11.440  0.00  0.00    +0.000 A 
ATOM      7  C   UNL     1     -18.005  41.757 -10.705  0.00  0.00    +0.000 A 
ATOM      8  C   UNL     1     -19.270  39.637 -10.898  0.00  0.00    +0.000 A 
ATOM      9  C   UNL     1     -17.670  40.404 -12.666  0.00  0.00    +0.000 A 
ATOM     10  C   UNL     1     -19.449  41.156  -9.011  0.00  0.00    +0.000 A 
ATOM     11  C   UNL     1     -16.766  41.353 -13.126  0.00  0.00    +0.000 A 
ATOM     12  C   UNL     1     -16.531  42.466 -12.334  0.00  0.00    +0.000 A 
ATOM     13  H   UNL     1     -20.474  39.375  -9.234  0.00  0.00    +0.000 HD
ENDROOT
TORSDOF 0
ENDMDL
MODEL 3
REMARK VINA RESULT:    -5.261      2.095      2.468
REMARK INTER + INTRA:          -5.261
REMARK INTER:                  -5.261
REMARK INTRA:                   0.000
REMARK UNBOUND:                 0.000
REMARK  Name = 169148623
REMARK  0 active torsions:
REMARK  status: ('A' for Active; 'I' for Inactive)
REMARK                            x       y       z     vdW  Elec       q    Type
REMARK                         _______ _______ _______ _____ _____    ______ ____
ROOT
ATOM      1  I   UNL     1     -17.430  46.311 -12.079  0.00  0.00    +0.000 I 
ATOM      2  O   UNL     1     -19.937  42.329 -14.469  0.00  0.00    +0.000 OA
ATOM      3  N   UNL     1     -18.799  43.972 -13.307  0.00  0.00    +0.000 N 
ATOM      4  N   UNL     1     -17.707  43.532 -11.256  0.00  0.00    +0.000 NA
ATOM      5  N   UNL     1     -17.756  41.386 -10.344  0.00  0.00    +0.000 NA
ATOM      6  C   UNL     1     -18.896  41.738 -12.435  0.00  0.00    +0.000 A 
ATOM      7  C   UNL     1     -18.134  42.195 -11.359  0.00  0.00    +0.000 A 
ATOM      8  C   UNL     1     -19.270  42.684 -13.505  0.00  0.00    +0.000 A 
ATOM      9  C   UNL     1     -19.287  40.402 -12.474  0.00  0.00    +0.000 A 
ATOM     10  C   UNL     1     -18.049  44.338 -12.209  0.00  0.00    +0.000 A 
ATOM     11  C   UNL     1     -18.905  39.558 -11.439  0.00  0.00    +0.000 A 
ATOM     12  C   UNL     1     -18.149  40.092 -10.408  0.00  0.00    +0.000 A 
ATOM     13  H   UNL     1     -19.017  44.678 -14.003  0.00  0.00    +0.000 HD
ENDROOT
TORSDOF 0
ENDMDL
MODEL 4
REMARK VINA RESULT:    -5.079      2.081      3.144
REMARK INTER + INTRA:          -5.079
REMARK INTER:                  -5.079
REMARK INTRA:                   0.000
REMARK UNBOUND:                 0.000
REMARK  Name = 169148623
REMARK  0 active torsions:
REMARK  status: ('A' for Active; 'I' for Inactive)
REMARK                            x       y       z     vdW  Elec       q    Type
REMARK                         _______ _______ _______ _____ _____    ______ ____
ROOT
ATOM      1  I   UNL     1     -16.975  45.736 -11.972  0.00  0.00    +0.000 I 
ATOM      2  O   UNL     1     -18.162  41.924  -8.521  0.00  0.00    +0.000 OA
ATOM      3  N   UNL     1     -17.680  43.493 -10.149  0.00  0.00    +0.000 N 
ATOM      4  N   UNL     1     -17.916  43.023 -12.455  0.00  0.00    +0.000 NA
ATOM      5  N   UNL     1     -18.654  40.922 -13.149  0.00  0.00    +0.000 NA
ATOM      6  C   UNL     1     -18.446  41.308 -10.782  0.00  0.00    +0.000 A 
ATOM      7  C   UNL     1     -18.345  41.729 -12.108  0.00  0.00    +0.000 A 
ATOM      8  C   UNL     1     -18.090  42.248  -9.700  0.00  0.00    +0.000 A 
ATOM      9  C   UNL     1     -18.877  40.012 -10.509  0.00  0.00    +0.000 A 
ATOM     10  C   UNL     1     -17.611  43.825 -11.485  0.00  0.00    +0.000 A 
ATOM     11  C   UNL     1     -19.199  39.173 -11.567  0.00  0.00    +0.000 A 
ATOM     12  C   UNL     1     -19.072  39.669 -12.854  0.00  0.00    +0.000 A 
ATOM     13  H   UNL     1     -17.419  44.193  -9.461  0.00  0.00    +0.000 HD
ENDROOT
TORSDOF 0
ENDMDL
MODEL 5
REMARK VINA RESULT:    -4.842      3.082      3.518
REMARK INTER + INTRA:          -4.842
REMARK INTER:                  -4.842
REMARK INTRA:                   0.000
REMARK UNBOUND:                 0.000
REMARK  Name = 169148623
REMARK  0 active torsions:
REMARK  status: ('A' for Active; 'I' for Inactive)
REMARK                            x       y       z     vdW  Elec       q    Type
REMARK                         _______ _______ _______ _____ _____    ______ ____
ROOT
ATOM      1  I   UNL     1     -18.206  45.666 -14.633  0.00  0.00    +0.000 I 
ATOM      2  O   UNL     1     -15.275  42.665 -11.430  0.00  0.00    +0.000 OA
ATOM      3  N   UNL     1     -16.667  43.863 -12.834  0.00  0.00    +0.000 N 
ATOM      4  N   UNL     1     -18.743  43.006 -13.575  0.00  0.00    +0.000 NA
ATOM      5  N   UNL     1     -19.445  40.890 -12.890  0.00  0.00    +0.000 NA
ATOM      6  C   UNL     1     -17.317  41.678 -12.084  0.00  0.00    +0.000 A 
ATOM      7  C   UNL     1     -18.484  41.841 -12.831  0.00  0.00    +0.000 A 
ATOM      8  C   UNL     1     -16.315  42.762 -12.070  0.00  0.00    +0.000 A 
ATOM      9  C   UNL     1     -17.124  40.497 -11.371  0.00  0.00    +0.000 A 
ATOM     10  C   UNL     1     -17.847  43.939 -13.544  0.00  0.00    +0.000 A 
ATOM     11  C   UNL     1     -18.101  39.513 -11.420  0.00  0.00    +0.000 A 
ATOM     12  C   UNL     1     -19.231  39.754 -12.186  0.00  0.00    +0.000 A 
ATOM     13  H   UNL     1     -16.026  44.649 -12.873  0.00  0.00    +0.000 HD
ENDROOT
TORSDOF 0
ENDMDL
