MODEL 1
REMARK VINA RESULT:    -6.783      0.000      0.000
REMARK INTER + INTRA:          -8.042
REMARK INTER:                  -7.774
REMARK INTRA:                  -0.268
REMARK UNBOUND:                -0.268
REMARK  Name = 169838282
REMARK  4 active torsions:
REMARK  status: ('A' for Active; 'I' for Inactive)
REMARK    1  A    between atoms: N_3  and  C_9
REMARK    2  A    between atoms: C_6  and  C_10
REMARK    3  A    between atoms: C_8  and  C_13
REMARK    4  A    between atoms: C_10  and  C_12
REMARK                            x       y       z     vdW  Elec       q    Type
REMARK                         _______ _______ _______ _____ _____    ______ ____
ROOT
ATOM      1  N   UNL     1     -18.487  41.442  -7.965  0.00  0.00    +0.000 NA
ATOM      2  C   UNL     1     -19.572  40.498  -9.907  0.00  0.00    +0.000 A 
ATOM      3  C   UNL     1     -20.813  40.656  -9.301  0.00  0.00    +0.000 A 
ATOM      4  C   UNL     1     -20.893  41.207  -8.027  0.00  0.00    +0.000 A 
ATOM      5  C   UNL     1     -18.450  40.903  -9.204  0.00  0.00    +0.000 A 
ATOM      6  C   UNL     1     -19.711  41.581  -7.407  0.00  0.00    +0.000 A 
ENDROOT
BRANCH   4   9
ATOM      7  O   UNL     1     -23.162  40.689  -7.665  0.00  0.00    +0.000 OA
ATOM      8  N   UNL     1     -22.270  42.373  -6.390  0.00  0.00    +0.000 N 
ATOM      9  C   UNL     1     -22.173  41.384  -7.365  0.00  0.00    +0.000 C 
ATOM     10  H   UNL     1     -21.518  42.982  -6.093  0.00  0.00    +0.000 HD
ATOM     11  H   UNL     1     -23.156  42.523  -5.917  0.00  0.00    +0.000 HD
ENDBRANCH   4   9
BRANCH   2  13
ATOM     12  N   UNL     1     -19.392  38.629 -11.433  0.00  0.00    +0.000 NA
ATOM     13  C   UNL     1     -19.499  39.922 -11.244  0.00  0.00    +0.000 C 
ATOM     14  C   UNL     1     -19.565  40.816 -12.480  0.00  0.00    +0.000 C 
ATOM     15  H   UNL     1     -19.357  38.417 -12.436  0.00  0.00    +0.000 HD
ENDBRANCH   2  13
BRANCH   5  16
ATOM     16  N   UNL     1     -17.181  40.745  -9.816  0.00  0.00    +0.000 N 
ATOM     17  H   UNL     1     -16.366  41.116  -9.344  0.00  0.00    +0.000 HD
ATOM     18  H   UNL     1     -17.168  40.735 -10.829  0.00  0.00    +0.000 HD
ENDBRANCH   5  16
TORSDOF 3
ENDMDL
MODEL 2
REMARK VINA RESULT:    -6.282      1.769      4.511
REMARK INTER + INTRA:          -7.468
REMARK INTER:                  -7.340
REMARK INTRA:                  -0.128
REMARK UNBOUND:                -0.268
REMARK  Name = 169838282
REMARK  4 active torsions:
REMARK  status: ('A' for Active; 'I' for Inactive)
REMARK    1  A    between atoms: N_3  and  C_9
REMARK    2  A    between atoms: C_6  and  C_10
REMARK    3  A    between atoms: C_8  and  C_13
REMARK    4  A    between atoms: C_10  and  C_12
REMARK                            x       y       z     vdW  Elec       q    Type
REMARK                         _______ _______ _______ _____ _____    ______ ____
ROOT
ATOM      1  N   UNL     1     -18.834  41.823  -7.402  0.00  0.00    +0.000 NA
ATOM      2  C   UNL     1     -21.186  41.350  -7.705  0.00  0.00    +0.000 A 
ATOM      3  C   UNL     1     -20.904  40.657  -8.876  0.00  0.00    +0.000 A 
ATOM      4  C   UNL     1     -19.588  40.546  -9.313  0.00  0.00    +0.000 A 
ATOM      5  C   UNL     1     -20.125  41.910  -7.010  0.00  0.00    +0.000 A 
ATOM      6  C   UNL     1     -18.599  41.142  -8.546  0.00  0.00    +0.000 A 
ENDROOT
BRANCH   4   9
ATOM      7  O   UNL     1     -19.902  38.825 -10.889  0.00  0.00    +0.000 OA
ATOM      8  N   UNL     1     -18.189  40.295 -11.291  0.00  0.00    +0.000 N 
ATOM      9  C   UNL     1     -19.261  39.831 -10.533  0.00  0.00    +0.000 C 
ATOM     10  H   UNL     1     -17.616  41.099 -11.069  0.00  0.00    +0.000 HD
ATOM     11  H   UNL     1     -17.935  39.809 -12.146  0.00  0.00    +0.000 HD
ENDBRANCH   4   9
BRANCH   2  13
ATOM     12  N   UNL     1     -23.020  42.543  -6.670  0.00  0.00    +0.000 NA
ATOM     13  C   UNL     1     -22.567  41.459  -7.254  0.00  0.00    +0.000 C 
ATOM     14  C   UNL     1     -23.547  40.307  -7.467  0.00  0.00    +0.000 C 
ATOM     15  H   UNL     1     -24.010  42.430  -6.429  0.00  0.00    +0.000 HD
ENDBRANCH   2  13
BRANCH   5  16
ATOM     16  N   UNL     1     -20.405  42.618  -5.815  0.00  0.00    +0.000 N 
ATOM     17  H   UNL     1     -20.651  42.091  -4.986  0.00  0.00    +0.000 HD
ATOM     18  H   UNL     1     -20.818  43.537  -5.922  0.00  0.00    +0.000 HD
ENDBRANCH   5  16
TORSDOF 3
ENDMDL
MODEL 3
REMARK VINA RESULT:    -6.242      2.289      3.228
REMARK INTER + INTRA:          -7.422
REMARK INTER:                  -7.047
REMARK INTRA:                  -0.374
REMARK UNBOUND:                -0.268
REMARK  Name = 169838282
REMARK  4 active torsions:
REMARK  status: ('A' for Active; 'I' for Inactive)
REMARK    1  A    between atoms: N_3  and  C_9
REMARK    2  A    between atoms: C_6  and  C_10
REMARK    3  A    between atoms: C_8  and  C_13
REMARK    4  A    between atoms: C_10  and  C_12
REMARK                            x       y       z     vdW  Elec       q    Type
REMARK                         _______ _______ _______ _____ _____    ______ ____
ROOT
ATOM      1  N   UNL     1     -19.145  39.379 -10.878  0.00  0.00    +0.000 NA
ATOM      2  C   UNL     1     -17.486  41.133 -10.758  0.00  0.00    +0.000 A 
ATOM      3  C   UNL     1     -18.117  41.663  -9.638  0.00  0.00    +0.000 A 
ATOM      4  C   UNL     1     -19.261  41.054  -9.138  0.00  0.00    +0.000 A 
ATOM      5  C   UNL     1     -18.035  40.000 -11.336  0.00  0.00    +0.000 A 
ATOM      6  C   UNL     1     -19.731  39.923  -9.788  0.00  0.00    +0.000 A 
ENDROOT
BRANCH   4   9
ATOM      7  O   UNL     1     -19.347  42.279  -7.128  0.00  0.00    +0.000 OA
ATOM      8  N   UNL     1     -21.294  41.278  -7.813  0.00  0.00    +0.000 N 
ATOM      9  C   UNL     1     -19.945  41.585  -7.972  0.00  0.00    +0.000 C 
ATOM     10  H   UNL     1     -21.848  40.718  -8.448  0.00  0.00    +0.000 HD
ATOM     11  H   UNL     1     -21.794  41.630  -7.003  0.00  0.00    +0.000 HD
ENDBRANCH   4   9
BRANCH   2  13
ATOM     12  N   UNL     1     -15.106  41.210 -11.186  0.00  0.00    +0.000 NA
ATOM     13  C   UNL     1     -16.285  41.777 -11.273  0.00  0.00    +0.000 C 
ATOM     14  C   UNL     1     -16.366  43.140 -11.957  0.00  0.00    +0.000 C 
ATOM     15  H   UNL     1     -14.388  41.812 -11.604  0.00  0.00    +0.000 HD
ENDBRANCH   2  13
BRANCH   5  16
ATOM     16  N   UNL     1     -17.397  39.452 -12.477  0.00  0.00    +0.000 N 
ATOM     17  H   UNL     1     -17.963  38.965 -13.161  0.00  0.00    +0.000 HD
ATOM     18  H   UNL     1     -16.442  39.136 -12.352  0.00  0.00    +0.000 HD
ENDBRANCH   5  16
TORSDOF 3
ENDMDL
MODEL 4
REMARK VINA RESULT:    -5.981      3.471      5.212
REMARK INTER + INTRA:          -7.122
REMARK INTER:                  -6.958
REMARK INTRA:                  -0.165
REMARK UNBOUND:                -0.268
REMARK  Name = 169838282
REMARK  4 active torsions:
REMARK  status: ('A' for Active; 'I' for Inactive)
REMARK    1  A    between atoms: N_3  and  C_9
REMARK    2  A    between atoms: C_6  and  C_10
REMARK    3  A    between atoms: C_8  and  C_13
REMARK    4  A    between atoms: C_10  and  C_12
REMARK                            x       y       z     vdW  Elec       q    Type
REMARK                         _______ _______ _______ _____ _____    ______ ____
ROOT
ATOM      1  N   UNL     1     -16.691  42.099 -12.318  0.00  0.00    +0.000 NA
ATOM      2  C   UNL     1     -18.670  40.813 -11.794  0.00  0.00    +0.000 A 
ATOM      3  C   UNL     1     -19.383  41.497 -12.772  0.00  0.00    +0.000 A 
ATOM      4  C   UNL     1     -18.753  42.482 -13.523  0.00  0.00    +0.000 A 
ATOM      5  C   UNL     1     -17.338  41.148 -11.608  0.00  0.00    +0.000 A 
ATOM      6  C   UNL     1     -17.417  42.743 -13.260  0.00  0.00    +0.000 A 
ENDROOT
BRANCH   4   9
ATOM      7  O   UNL     1     -20.479  42.741 -15.105  0.00  0.00    +0.000 OA
ATOM      8  N   UNL     1     -18.984  44.470 -14.912  0.00  0.00    +0.000 N 
ATOM      9  C   UNL     1     -19.471  43.217 -14.550  0.00  0.00    +0.000 C 
ATOM     10  H   UNL     1     -18.171  44.923 -14.515  0.00  0.00    +0.000 HD
ATOM     11  H   UNL     1     -19.463  45.002 -15.633  0.00  0.00    +0.000 HD
ENDBRANCH   4   9
BRANCH   2  13
ATOM     12  N   UNL     1     -19.480  38.556 -11.465  0.00  0.00    +0.000 NA
ATOM     13  C   UNL     1     -19.339  39.780 -11.014  0.00  0.00    +0.000 C 
ATOM     14  C   UNL     1     -19.886  40.089  -9.622  0.00  0.00    +0.000 C 
ATOM     15  H   UNL     1     -19.971  37.977 -10.776  0.00  0.00    +0.000 HD
ENDBRANCH   2  13
BRANCH   5  16
ATOM     16  N   UNL     1     -16.604  40.454 -10.614  0.00  0.00    +0.000 N 
ATOM     17  H   UNL     1     -15.722  40.842 -10.305  0.00  0.00    +0.000 HD
ATOM     18  H   UNL     1     -16.698  39.445 -10.607  0.00  0.00    +0.000 HD
ENDBRANCH   5  16
TORSDOF 3
ENDMDL
MODEL 5
REMARK VINA RESULT:    -5.730      3.380      4.879
REMARK INTER + INTRA:          -6.835
REMARK INTER:                  -6.474
REMARK INTRA:                  -0.362
REMARK UNBOUND:                -0.268
REMARK  Name = 169838282
REMARK  4 active torsions:
REMARK  status: ('A' for Active; 'I' for Inactive)
REMARK    1  A    between atoms: N_3  and  C_9
REMARK    2  A    between atoms: C_6  and  C_10
REMARK    3  A    between atoms: C_8  and  C_13
REMARK    4  A    between atoms: C_10  and  C_12
REMARK                            x       y       z     vdW  Elec       q    Type
REMARK                         _______ _______ _______ _____ _____    ______ ____
ROOT
ATOM      1  N   UNL     1     -19.615  41.412 -13.383  0.00  0.00    +0.000 NA
ATOM      2  C   UNL     1     -17.989  42.951 -12.471  0.00  0.00    +0.000 A 
ATOM      3  C   UNL     1     -18.025  42.281 -11.254  0.00  0.00    +0.000 A 
ATOM      4  C   UNL     1     -18.855  41.176 -11.099  0.00  0.00    +0.000 A 
ATOM      5  C   UNL     1     -18.796  42.482 -13.495  0.00  0.00    +0.000 A 
ATOM      6  C   UNL     1     -19.623  40.785 -12.185  0.00  0.00    +0.000 A 
ENDROOT
BRANCH   4   9
ATOM      7  O   UNL     1     -19.934  39.821  -9.503  0.00  0.00    +0.000 OA
ATOM      8  N   UNL     1     -17.804  40.510  -9.005  0.00  0.00    +0.000 N 
ATOM      9  C   UNL     1     -18.917  40.455  -9.840  0.00  0.00    +0.000 C 
ATOM     10  H   UNL     1     -16.944  41.006  -9.202  0.00  0.00    +0.000 HD
ATOM     11  H   UNL     1     -17.823  40.021  -8.115  0.00  0.00    +0.000 HD
ENDBRANCH   4   9
BRANCH   2  13
ATOM     12  N   UNL     1     -16.173  44.142 -13.537  0.00  0.00    +0.000 NA
ATOM     13  C   UNL     1     -17.115  44.106 -12.625  0.00  0.00    +0.000 C 
ATOM     14  C   UNL     1     -17.281  45.333 -11.730  0.00  0.00    +0.000 C 
ATOM     15  H   UNL     1     -15.667  45.033 -13.492  0.00  0.00    +0.000 HD
ENDBRANCH   2  13
BRANCH   5  16
ATOM     16  N   UNL     1     -18.765  43.160 -14.739  0.00  0.00    +0.000 N 
ATOM     17  H   UNL     1     -19.233  42.739 -15.532  0.00  0.00    +0.000 HD
ATOM     18  H   UNL     1     -17.940  43.718 -14.928  0.00  0.00    +0.000 HD
ENDBRANCH   5  16
TORSDOF 3
ENDMDL
