MODEL 1
REMARK VINA RESULT:    -6.483      0.000      0.000
REMARK INTER + INTRA:          -7.107
REMARK INTER:                  -7.052
REMARK INTRA:                  -0.055
REMARK UNBOUND:                -0.055
REMARK  Name = 169864780
REMARK  3 active torsions:
REMARK  status: ('A' for Active; 'I' for Inactive)
REMARK    1  A    between atoms: P_1  and  N_3
REMARK    2  A    between atoms: N_3  and  C_11
REMARK    3  A    between atoms: C_7  and  C_12
REMARK                            x       y       z     vdW  Elec       q    Type
REMARK                         _______ _______ _______ _____ _____    ______ ____
ROOT
ATOM      1  N   UNL     1     -18.604  40.148 -10.536  0.00  0.00    +0.000 N 
ATOM      2  N   UNL     1     -20.651  40.198  -9.318  0.00  0.00    +0.000 NA
ATOM      3  C   UNL     1     -19.388  40.658  -9.473  0.00  0.00    +0.000 A 
ATOM      4  C   UNL     1     -20.863  41.669  -7.411  0.00  0.00    +0.000 A 
ATOM      5  C   UNL     1     -18.804  41.609  -8.653  0.00  0.00    +0.000 A 
ATOM      6  C   UNL     1     -19.563  42.119  -7.604  0.00  0.00    +0.000 A 
ATOM      7  C   UNL     1     -21.356  40.716  -8.288  0.00  0.00    +0.000 A 
ATOM      8  C   UNL     1     -19.227  39.138 -11.409  0.00  0.00    +0.000 C 
ENDROOT
BRANCH   4  11
ATOM      9  O   UNL     1     -22.897  42.400  -6.476  0.00  0.00    +0.000 OA
ATOM     10  N   UNL     1     -21.055  42.452  -5.112  0.00  0.00    +0.000 N 
ATOM     11  C   UNL     1     -21.681  42.184  -6.328  0.00  0.00    +0.000 C 
ATOM     12  H   UNL     1     -20.073  42.310  -4.912  0.00  0.00    +0.000 HD
ATOM     13  H   UNL     1     -21.602  42.819  -4.340  0.00  0.00    +0.000 HD
ENDBRANCH   4  11
BRANCH   1  14
ATOM     14  P   UNL     1     -17.035  40.549 -10.930  0.00  0.00    +0.000 P 
ATOM     15  H   UNL     1     -16.513  40.669  -9.621  0.00  0.00    +0.000 HD
ATOM     16  H   UNL     1     -16.532  39.244 -11.146  0.00  0.00    +0.000 HD
ENDBRANCH   1  14
TORSDOF 2
ENDMDL
MODEL 2
REMARK VINA RESULT:    -5.884      3.343      4.889
REMARK INTER + INTRA:          -6.455
REMARK INTER:                  -6.395
REMARK INTRA:                  -0.060
REMARK UNBOUND:                -0.055
REMARK  Name = 169864780
REMARK  3 active torsions:
REMARK  status: ('A' for Active; 'I' for Inactive)
REMARK    1  A    between atoms: P_1  and  N_3
REMARK    2  A    between atoms: N_3  and  C_11
REMARK    3  A    between atoms: C_7  and  C_12
REMARK                            x       y       z     vdW  Elec       q    Type
REMARK                         _______ _______ _______ _____ _____    ______ ____
ROOT
ATOM      1  N   UNL     1     -21.866  41.563  -7.112  0.00  0.00    +0.000 N 
ATOM      2  N   UNL     1     -21.049  40.271  -8.939  0.00  0.00    +0.000 NA
ATOM      3  C   UNL     1     -20.814  41.207  -7.991  0.00  0.00    +0.000 A 
ATOM      4  C   UNL     1     -18.761  40.554  -9.666  0.00  0.00    +0.000 A 
ATOM      5  C   UNL     1     -19.599  41.849  -7.821  0.00  0.00    +0.000 A 
ATOM      6  C   UNL     1     -18.557  41.511  -8.679  0.00  0.00    +0.000 A 
ATOM      7  C   UNL     1     -20.014  39.969  -9.754  0.00  0.00    +0.000 A 
ATOM      8  C   UNL     1     -23.157  40.878  -7.293  0.00  0.00    +0.000 C 
ENDROOT
BRANCH   4  11
ATOM      9  O   UNL     1     -17.835  39.258 -11.401  0.00  0.00    +0.000 OA
ATOM     10  N   UNL     1     -16.486  40.867 -10.480  0.00  0.00    +0.000 N 
ATOM     11  C   UNL     1     -17.692  40.178 -10.574  0.00  0.00    +0.000 C 
ATOM     12  H   UNL     1     -16.288  41.621  -9.833  0.00  0.00    +0.000 HD
ATOM     13  H   UNL     1     -15.719  40.619 -11.098  0.00  0.00    +0.000 HD
ENDBRANCH   4  11
BRANCH   1  14
ATOM     14  P   UNL     1     -21.828  42.680  -5.876  0.00  0.00    +0.000 P 
ATOM     15  H   UNL     1     -22.737  43.621  -6.415  0.00  0.00    +0.000 HD
ATOM     16  H   UNL     1     -22.772  42.073  -5.014  0.00  0.00    +0.000 HD
ENDBRANCH   1  14
TORSDOF 2
ENDMDL
MODEL 3
REMARK VINA RESULT:    -5.477      1.761      2.224
REMARK INTER + INTRA:          -6.012
REMARK INTER:                  -5.958
REMARK INTRA:                  -0.054
REMARK UNBOUND:                -0.055
REMARK  Name = 169864780
REMARK  3 active torsions:
REMARK  status: ('A' for Active; 'I' for Inactive)
REMARK    1  A    between atoms: P_1  and  N_3
REMARK    2  A    between atoms: N_3  and  C_11
REMARK    3  A    between atoms: C_7  and  C_12
REMARK                            x       y       z     vdW  Elec       q    Type
REMARK                         _______ _______ _______ _____ _____    ______ ____
ROOT
ATOM      1  N   UNL     1     -17.621  41.100 -10.863  0.00  0.00    +0.000 N 
ATOM      2  N   UNL     1     -18.271  42.245  -8.878  0.00  0.00    +0.000 NA
ATOM      3  C   UNL     1     -18.530  41.282  -9.793  0.00  0.00    +0.000 A 
ATOM      4  C   UNL     1     -20.309  41.600  -7.748  0.00  0.00    +0.000 A 
ATOM      5  C   UNL     1     -19.638  40.452  -9.752  0.00  0.00    +0.000 A 
ATOM      6  C   UNL     1     -20.540  40.621  -8.706  0.00  0.00    +0.000 A 
ATOM      7  C   UNL     1     -19.170  42.379  -7.877  0.00  0.00    +0.000 A 
ATOM      8  C   UNL     1     -16.443  41.983 -10.905  0.00  0.00    +0.000 C 
ENDROOT
BRANCH   4  11
ATOM      9  O   UNL     1     -20.824  41.964  -5.478  0.00  0.00    +0.000 OA
ATOM     10  N   UNL     1     -22.595  41.777  -6.923  0.00  0.00    +0.000 N 
ATOM     11  C   UNL     1     -21.230  41.798  -6.643  0.00  0.00    +0.000 C 
ATOM     12  H   UNL     1     -23.006  41.642  -7.839  0.00  0.00    +0.000 HD
ATOM     13  H   UNL     1     -23.261  41.906  -6.168  0.00  0.00    +0.000 HD
ENDBRANCH   4  11
BRANCH   1  14
ATOM     14  P   UNL     1     -17.718  39.995 -12.107  0.00  0.00    +0.000 P 
ATOM     15  H   UNL     1     -16.946  38.960 -11.530  0.00  0.00    +0.000 HD
ATOM     16  H   UNL     1     -18.968  39.417 -11.779  0.00  0.00    +0.000 HD
ENDBRANCH   1  14
TORSDOF 2
ENDMDL
MODEL 4
REMARK VINA RESULT:    -5.129      4.425      5.373
REMARK INTER + INTRA:          -5.634
REMARK INTER:                  -5.574
REMARK INTRA:                  -0.060
REMARK UNBOUND:                -0.055
REMARK  Name = 169864780
REMARK  3 active torsions:
REMARK  status: ('A' for Active; 'I' for Inactive)
REMARK    1  A    between atoms: P_1  and  N_3
REMARK    2  A    between atoms: N_3  and  C_11
REMARK    3  A    between atoms: C_7  and  C_12
REMARK                            x       y       z     vdW  Elec       q    Type
REMARK                         _______ _______ _______ _____ _____    ______ ____
ROOT
ATOM      1  N   UNL     1     -19.087  44.056 -14.703  0.00  0.00    +0.000 N 
ATOM      2  N   UNL     1     -19.628  41.973 -13.681  0.00  0.00    +0.000 NA
ATOM      3  C   UNL     1     -18.947  43.141 -13.631  0.00  0.00    +0.000 A 
ATOM      4  C   UNL     1     -18.647  41.407 -11.545  0.00  0.00    +0.000 A 
ATOM      5  C   UNL     1     -18.113  43.508 -12.589  0.00  0.00    +0.000 A 
ATOM      6  C   UNL     1     -17.965  42.618 -11.529  0.00  0.00    +0.000 A 
ATOM      7  C   UNL     1     -19.459  41.135 -12.634  0.00  0.00    +0.000 A 
ATOM      8  C   UNL     1     -19.976  43.665 -15.810  0.00  0.00    +0.000 C 
ENDROOT
BRANCH   4  11
ATOM      9  O   UNL     1     -19.120  39.372 -10.458  0.00  0.00    +0.000 OA
ATOM     10  N   UNL     1     -17.702  40.815  -9.379  0.00  0.00    +0.000 N 
ATOM     11  C   UNL     1     -18.515  40.460 -10.453  0.00  0.00    +0.000 C 
ATOM     12  H   UNL     1     -17.183  41.681  -9.294  0.00  0.00    +0.000 HD
ATOM     13  H   UNL     1     -17.598  40.174  -8.598  0.00  0.00    +0.000 HD
ENDBRANCH   4  11
BRANCH   1  14
ATOM     14  P   UNL     1     -18.358  45.544 -14.876  0.00  0.00    +0.000 P 
ATOM     15  H   UNL     1     -19.494  46.291 -15.267  0.00  0.00    +0.000 HD
ATOM     16  H   UNL     1     -18.395  45.956 -13.523  0.00  0.00    +0.000 HD
ENDBRANCH   1  14
TORSDOF 2
ENDMDL
MODEL 5
REMARK VINA RESULT:    -4.915      4.286      5.226
REMARK INTER + INTRA:          -5.401
REMARK INTER:                  -5.352
REMARK INTRA:                  -0.049
REMARK UNBOUND:                -0.055
REMARK  Name = 169864780
REMARK  3 active torsions:
REMARK  status: ('A' for Active; 'I' for Inactive)
REMARK    1  A    between atoms: P_1  and  N_3
REMARK    2  A    between atoms: N_3  and  C_11
REMARK    3  A    between atoms: C_7  and  C_12
REMARK                            x       y       z     vdW  Elec       q    Type
REMARK                         _______ _______ _______ _____ _____    ______ ____
ROOT
ATOM      1  N   UNL     1     -17.666  44.951 -12.899  0.00  0.00    +0.000 N 
ATOM      2  N   UNL     1     -18.896  42.922 -13.109  0.00  0.00    +0.000 NA
ATOM      3  C   UNL     1     -18.075  43.703 -12.370  0.00  0.00    +0.000 A 
ATOM      4  C   UNL     1     -18.835  41.304 -11.313  0.00  0.00    +0.000 A 
ATOM      5  C   UNL     1     -17.601  43.359 -11.115  0.00  0.00    +0.000 A 
ATOM      6  C   UNL     1     -17.994  42.135 -10.583  0.00  0.00    +0.000 A 
ATOM      7  C   UNL     1     -19.255  41.740 -12.560  0.00  0.00    +0.000 A 
ATOM      8  C   UNL     1     -18.172  45.316 -14.233  0.00  0.00    +0.000 C 
ENDROOT
BRANCH   4  11
ATOM      9  O   UNL     1     -18.889  38.949 -11.292  0.00  0.00    +0.000 OA
ATOM     10  N   UNL     1     -20.133  40.026  -9.695  0.00  0.00    +0.000 N 
ATOM     11  C   UNL     1     -19.265  40.022 -10.784  0.00  0.00    +0.000 C 
ATOM     12  H   UNL     1     -20.490  40.852  -9.230  0.00  0.00    +0.000 HD
ATOM     13  H   UNL     1     -20.455  39.144  -9.309  0.00  0.00    +0.000 HD
ENDBRANCH   4  11
BRANCH   1  14
ATOM     14  P   UNL     1     -16.665  46.080 -12.192  0.00  0.00    +0.000 P 
ATOM     15  H   UNL     1     -16.422  46.887 -13.328  0.00  0.00    +0.000 HD
ATOM     16  H   UNL     1     -17.657  46.929 -11.645  0.00  0.00    +0.000 HD
ENDBRANCH   1  14
TORSDOF 2
ENDMDL
