MODEL 1
REMARK VINA RESULT:    -5.663      0.000      0.000
REMARK INTER + INTRA:          -6.414
REMARK INTER:                  -6.656
REMARK INTRA:                   0.242
REMARK UNBOUND:                 0.242
REMARK  Name = 170052213
REMARK  7 active torsions:
REMARK  status: ('A' for Active; 'I' for Inactive)
REMARK    1  A    between atoms: N_2  and  C_5
REMARK    2  A    between atoms: N_3  and  C_10
REMARK    3  A    between atoms: N_3  and  C_15
REMARK    4  A    between atoms: C_5  and  C_7
REMARK    5  A    between atoms: C_5  and  C_8
REMARK    6  A    between atoms: C_9  and  C_11
REMARK    7  A    between atoms: C_10  and  C_16
REMARK                            x       y       z     vdW  Elec       q    Type
REMARK                         _______ _______ _______ _____ _____    ______ ____
ROOT
ATOM      1  N   UNL     1     -21.060  40.681  -8.438  0.00  0.00    +0.000 N 
ATOM      2  N   UNL     1     -19.239  42.107  -8.873  0.00  0.00    +0.000 NA
ATOM      3  C   UNL     1     -19.891  40.951  -9.128  0.00  0.00    +0.000 A 
ATOM      4  C   UNL     1     -17.591  41.441 -10.511  0.00  0.00    +0.000 A 
ATOM      5  C   UNL     1     -19.463  40.005 -10.046  0.00  0.00    +0.000 A 
ATOM      6  C   UNL     1     -18.290  40.263 -10.747  0.00  0.00    +0.000 A 
ATOM      7  C   UNL     1     -18.103  42.323  -9.572  0.00  0.00    +0.000 A 
ATOM      8  H   UNL     1     -21.679  39.986  -8.845  0.00  0.00    +0.000 HD
ENDROOT
BRANCH   4  11
ATOM      9  O   UNL     1     -15.428  40.937 -11.103  0.00  0.00    +0.000 OA
ATOM     10  N   UNL     1     -16.294  42.912 -12.006  0.00  0.00    +0.000 N 
ATOM     11  C   UNL     1     -16.364  41.740 -11.229  0.00  0.00    +0.000 C 
ATOM     12  C   UNL     1     -15.070  43.241 -12.721  0.00  0.00    +0.000 C 
BRANCH  10  13
ATOM     13  C   UNL     1     -17.393  43.863 -12.161  0.00  0.00    +0.000 C 
ATOM     14  C   UNL     1     -18.240  43.545 -13.376  0.00  0.00    +0.000 C 
ENDBRANCH  10  13
ENDBRANCH   4  11
BRANCH   1  15
ATOM     15  C   UNL     1     -21.630  41.571  -7.449  0.00  0.00    +0.000 C 
ATOM     16  C   UNL     1     -23.065  41.151  -7.156  0.00  0.00    +0.000 C 
ATOM     17  C   UNL     1     -20.774  41.537  -6.190  0.00  0.00    +0.000 C 
ENDBRANCH   1  15
TORSDOF 3
ENDMDL
MODEL 2
REMARK VINA RESULT:    -5.347      4.850      7.119
REMARK INTER + INTRA:          -6.043
REMARK INTER:                  -5.677
REMARK INTRA:                  -0.366
REMARK UNBOUND:                 0.242
REMARK  Name = 170052213
REMARK  7 active torsions:
REMARK  status: ('A' for Active; 'I' for Inactive)
REMARK    1  A    between atoms: N_2  and  C_5
REMARK    2  A    between atoms: N_3  and  C_10
REMARK    3  A    between atoms: N_3  and  C_15
REMARK    4  A    between atoms: C_5  and  C_7
REMARK    5  A    between atoms: C_5  and  C_8
REMARK    6  A    between atoms: C_9  and  C_11
REMARK    7  A    between atoms: C_10  and  C_16
REMARK                            x       y       z     vdW  Elec       q    Type
REMARK                         _______ _______ _______ _____ _____    ______ ____
ROOT
ATOM      1  N   UNL     1     -18.334  42.379 -13.112  0.00  0.00    +0.000 N 
ATOM      2  N   UNL     1     -19.781  42.464 -14.966  0.00  0.00    +0.000 NA
ATOM      3  C   UNL     1     -18.875  43.081 -14.175  0.00  0.00    +0.000 A 
ATOM      4  C   UNL     1     -19.915  44.503 -16.258  0.00  0.00    +0.000 A 
ATOM      5  C   UNL     1     -18.444  44.385 -14.359  0.00  0.00    +0.000 A 
ATOM      6  C   UNL     1     -18.980  45.103 -15.422  0.00  0.00    +0.000 A 
ATOM      7  C   UNL     1     -20.280  43.193 -15.989  0.00  0.00    +0.000 A 
ATOM      8  H   UNL     1     -17.462  42.732 -12.730  0.00  0.00    +0.000 HD
ENDROOT
BRANCH   4  11
ATOM      9  O   UNL     1     -21.466  45.952 -17.140  0.00  0.00    +0.000 OA
ATOM     10  N   UNL     1     -19.932  45.058 -18.660  0.00  0.00    +0.000 N 
ATOM     11  C   UNL     1     -20.491  45.226 -17.378  0.00  0.00    +0.000 C 
ATOM     12  C   UNL     1     -20.501  45.760 -19.801  0.00  0.00    +0.000 C 
BRANCH  10  13
ATOM     13  C   UNL     1     -18.781  44.206 -18.950  0.00  0.00    +0.000 C 
ATOM     14  C   UNL     1     -17.534  45.023 -19.223  0.00  0.00    +0.000 C 
ENDBRANCH  10  13
ENDBRANCH   4  11
BRANCH   1  15
ATOM     15  C   UNL     1     -18.684  41.011 -12.794  0.00  0.00    +0.000 C 
ATOM     16  C   UNL     1     -17.452  40.126 -12.927  0.00  0.00    +0.000 C 
ATOM     17  C   UNL     1     -19.258  40.956 -11.384  0.00  0.00    +0.000 C 
ENDBRANCH   1  15
TORSDOF 3
ENDMDL
MODEL 3
REMARK VINA RESULT:    -5.231      2.057      2.698
REMARK INTER + INTRA:          -5.906
REMARK INTER:                  -5.855
REMARK INTRA:                  -0.051
REMARK UNBOUND:                 0.242
REMARK  Name = 170052213
REMARK  7 active torsions:
REMARK  status: ('A' for Active; 'I' for Inactive)
REMARK    1  A    between atoms: N_2  and  C_5
REMARK    2  A    between atoms: N_3  and  C_10
REMARK    3  A    between atoms: N_3  and  C_15
REMARK    4  A    between atoms: C_5  and  C_7
REMARK    5  A    between atoms: C_5  and  C_8
REMARK    6  A    between atoms: C_9  and  C_11
REMARK    7  A    between atoms: C_10  and  C_16
REMARK                            x       y       z     vdW  Elec       q    Type
REMARK                         _______ _______ _______ _____ _____    ______ ____
ROOT
ATOM      1  N   UNL     1     -19.479  40.514 -10.320  0.00  0.00    +0.000 N 
ATOM      2  N   UNL     1     -18.286  42.536 -10.471  0.00  0.00    +0.000 NA
ATOM      3  C   UNL     1     -18.666  41.371 -11.040  0.00  0.00    +0.000 A 
ATOM      4  C   UNL     1     -17.062  43.029 -12.497  0.00  0.00    +0.000 A 
ATOM      5  C   UNL     1     -18.292  40.970 -12.313  0.00  0.00    +0.000 A 
ATOM      6  C   UNL     1     -17.474  41.821 -13.048  0.00  0.00    +0.000 A 
ATOM      7  C   UNL     1     -17.491  43.337 -11.216  0.00  0.00    +0.000 A 
ATOM      8  H   UNL     1     -19.990  39.816 -10.852  0.00  0.00    +0.000 HD
ENDROOT
BRANCH   4  11
ATOM      9  O   UNL     1     -14.992  43.710 -13.227  0.00  0.00    +0.000 OA
ATOM     10  N   UNL     1     -16.796  45.027 -13.917  0.00  0.00    +0.000 N 
ATOM     11  C   UNL     1     -16.210  43.940 -13.241  0.00  0.00    +0.000 C 
ATOM     12  C   UNL     1     -15.961  45.962 -14.657  0.00  0.00    +0.000 C 
BRANCH  10  13
ATOM     13  C   UNL     1     -18.231  45.303 -13.941  0.00  0.00    +0.000 C 
ATOM     14  C   UNL     1     -18.870  44.831 -15.231  0.00  0.00    +0.000 C 
ENDBRANCH  10  13
ENDBRANCH   4  11
BRANCH   1  15
ATOM     15  C   UNL     1     -19.951  40.793  -8.981  0.00  0.00    +0.000 C 
ATOM     16  C   UNL     1     -21.066  39.819  -8.621  0.00  0.00    +0.000 C 
ATOM     17  C   UNL     1     -18.786  40.688  -8.006  0.00  0.00    +0.000 C 
ENDBRANCH   1  15
TORSDOF 3
ENDMDL
MODEL 4
REMARK VINA RESULT:    -5.080      2.791      4.419
REMARK INTER + INTRA:          -5.729
REMARK INTER:                  -5.382
REMARK INTRA:                  -0.347
REMARK UNBOUND:                 0.242
REMARK  Name = 170052213
REMARK  7 active torsions:
REMARK  status: ('A' for Active; 'I' for Inactive)
REMARK    1  A    between atoms: N_2  and  C_5
REMARK    2  A    between atoms: N_3  and  C_10
REMARK    3  A    between atoms: N_3  and  C_15
REMARK    4  A    between atoms: C_5  and  C_7
REMARK    5  A    between atoms: C_5  and  C_8
REMARK    6  A    between atoms: C_9  and  C_11
REMARK    7  A    between atoms: C_10  and  C_16
REMARK                            x       y       z     vdW  Elec       q    Type
REMARK                         _______ _______ _______ _____ _____    ______ ____
ROOT
ATOM      1  N   UNL     1     -17.836  41.009 -10.905  0.00  0.00    +0.000 N 
ATOM      2  N   UNL     1     -18.340  42.834 -12.302  0.00  0.00    +0.000 NA
ATOM      3  C   UNL     1     -17.434  42.160 -11.559  0.00  0.00    +0.000 A 
ATOM      4  C   UNL     1     -16.599  44.425 -12.829  0.00  0.00    +0.000 A 
ATOM      5  C   UNL     1     -16.113  42.549 -11.405  0.00  0.00    +0.000 A 
ATOM      6  C   UNL     1     -15.696  43.705 -12.056  0.00  0.00    +0.000 A 
ATOM      7  C   UNL     1     -17.898  43.952 -12.919  0.00  0.00    +0.000 A 
ATOM      8  H   UNL     1     -17.102  40.370 -10.616  0.00  0.00    +0.000 HD
ENDROOT
BRANCH   4  11
ATOM      9  O   UNL     1     -15.817  45.513 -14.698  0.00  0.00    +0.000 OA
ATOM     10  N   UNL     1     -16.230  46.863 -12.835  0.00  0.00    +0.000 N 
ATOM     11  C   UNL     1     -16.192  45.635 -13.523  0.00  0.00    +0.000 C 
ATOM     12  C   UNL     1     -15.813  48.087 -13.504  0.00  0.00    +0.000 C 
BRANCH  10  13
ATOM     13  C   UNL     1     -16.674  47.017 -11.451  0.00  0.00    +0.000 C 
ATOM     14  C   UNL     1     -18.131  47.425 -11.372  0.00  0.00    +0.000 C 
ENDBRANCH  10  13
ENDBRANCH   4  11
BRANCH   1  15
ATOM     15  C   UNL     1     -19.181  40.478 -10.969  0.00  0.00    +0.000 C 
ATOM     16  C   UNL     1     -19.200  39.250 -11.870  0.00  0.00    +0.000 C 
ATOM     17  C   UNL     1     -19.655  40.141  -9.562  0.00  0.00    +0.000 C 
ENDBRANCH   1  15
TORSDOF 3
ENDMDL
MODEL 5
REMARK VINA RESULT:    -5.042      3.886      5.204
REMARK INTER + INTRA:          -5.684
REMARK INTER:                  -5.331
REMARK INTRA:                  -0.353
REMARK UNBOUND:                 0.242
REMARK  Name = 170052213
REMARK  7 active torsions:
REMARK  status: ('A' for Active; 'I' for Inactive)
REMARK    1  A    between atoms: N_2  and  C_5
REMARK    2  A    between atoms: N_3  and  C_10
REMARK    3  A    between atoms: N_3  and  C_15
REMARK    4  A    between atoms: C_5  and  C_7
REMARK    5  A    between atoms: C_5  and  C_8
REMARK    6  A    between atoms: C_9  and  C_11
REMARK    7  A    between atoms: C_10  and  C_16
REMARK                            x       y       z     vdW  Elec       q    Type
REMARK                         _______ _______ _______ _____ _____    ______ ____
ROOT
ATOM      1  N   UNL     1     -18.407  41.290 -12.768  0.00  0.00    +0.000 N 
ATOM      2  N   UNL     1     -17.762  43.096 -11.404  0.00  0.00    +0.000 NA
ATOM      3  C   UNL     1     -18.257  42.653 -12.581  0.00  0.00    +0.000 A 
ATOM      4  C   UNL     1     -17.977  45.347 -12.257  0.00  0.00    +0.000 A 
ATOM      5  C   UNL     1     -18.629  43.481 -13.628  0.00  0.00    +0.000 A 
ATOM      6  C   UNL     1     -18.483  44.853 -13.454  0.00  0.00    +0.000 A 
ATOM      7  C   UNL     1     -17.633  44.435 -11.272  0.00  0.00    +0.000 A 
ATOM      8  H   UNL     1     -19.043  40.999 -13.504  0.00  0.00    +0.000 HD
ENDROOT
BRANCH   4  11
ATOM      9  O   UNL     1     -18.784  47.390 -11.581  0.00  0.00    +0.000 OA
ATOM     10  N   UNL     1     -16.590  47.381 -12.386  0.00  0.00    +0.000 N 
ATOM     11  C   UNL     1     -17.814  46.775 -12.046  0.00  0.00    +0.000 C 
ATOM     12  C   UNL     1     -16.408  48.814 -12.198  0.00  0.00    +0.000 C 
BRANCH  10  13
ATOM     13  C   UNL     1     -15.440  46.663 -12.932  0.00  0.00    +0.000 C 
ATOM     14  C   UNL     1     -14.389  46.402 -11.873  0.00  0.00    +0.000 C 
ENDBRANCH  10  13
ENDBRANCH   4  11
BRANCH   1  15
ATOM     15  C   UNL     1     -18.062  40.301 -11.769  0.00  0.00    +0.000 C 
ATOM     16  C   UNL     1     -19.138  39.224 -11.727  0.00  0.00    +0.000 C 
ATOM     17  C   UNL     1     -16.698  39.711 -12.098  0.00  0.00    +0.000 C 
ENDBRANCH   1  15
TORSDOF 3
ENDMDL
