MODEL 1
REMARK VINA RESULT:    -6.394      0.000      0.000
REMARK INTER + INTRA:          -6.394
REMARK INTER:                  -6.394
REMARK INTRA:                   0.000
REMARK UNBOUND:                 0.000
REMARK  Name = 170278659
REMARK  0 active torsions:
REMARK  status: ('A' for Active; 'I' for Inactive)
REMARK                            x       y       z     vdW  Elec       q    Type
REMARK                         _______ _______ _______ _____ _____    ______ ____
ROOT
ATOM      1  O   UNL     1     -19.543  38.459 -11.619  0.00  0.00    +0.000 OA
ATOM      2  N   UNL     1     -18.918  40.340 -12.776  0.00  0.00    +0.000 N 
ATOM      3  N   UNL     1     -17.229  41.805 -10.866  0.00  0.00    +0.000 NA
ATOM      4  N   UNL     1     -18.304  42.049  -8.842  0.00  0.00    +0.000 NA
ATOM      5  C   UNL     1     -19.221  40.400 -10.343  0.00  0.00    +0.000 A 
ATOM      6  C   UNL     1     -18.710  41.768 -12.849  0.00  0.00    +0.000 C 
ATOM      7  C   UNL     1     -18.295  41.405 -10.038  0.00  0.00    +0.000 A 
ATOM      8  C   UNL     1     -19.242  39.651 -11.623  0.00  0.00    +0.000 C 
ATOM      9  C   UNL     1     -20.175  40.056  -9.378  0.00  0.00    +0.000 A 
ATOM     10  C   UNL     1     -17.414  41.981 -12.135  0.00  0.00    +0.000 C 
ATOM     11  C   UNL     1     -20.197  40.718  -8.158  0.00  0.00    +0.000 A 
ATOM     12  C   UNL     1     -19.249  41.698  -7.942  0.00  0.00    +0.000 A 
ATOM     13  H   UNL     1     -18.933  39.821 -13.649  0.00  0.00    +0.000 HD
ENDROOT
TORSDOF 0
ENDMDL
MODEL 2
REMARK VINA RESULT:    -5.818      2.183      2.900
REMARK INTER + INTRA:          -5.818
REMARK INTER:                  -5.818
REMARK INTRA:                   0.000
REMARK UNBOUND:                 0.000
REMARK  Name = 170278659
REMARK  0 active torsions:
REMARK  status: ('A' for Active; 'I' for Inactive)
REMARK                            x       y       z     vdW  Elec       q    Type
REMARK                         _______ _______ _______ _____ _____    ______ ____
ROOT
ATOM      1  O   UNL     1     -17.384  43.536 -10.458  0.00  0.00    +0.000 OA
ATOM      2  N   UNL     1     -16.345  41.662 -11.280  0.00  0.00    +0.000 N 
ATOM      3  N   UNL     1     -18.545  39.744 -11.635  0.00  0.00    +0.000 NA
ATOM      4  N   UNL     1     -19.795  39.567  -9.707  0.00  0.00    +0.000 NA
ATOM      5  C   UNL     1     -18.333  41.478  -9.856  0.00  0.00    +0.000 A 
ATOM      6  C   UNL     1     -16.143  40.232 -11.292  0.00  0.00    +0.000 C 
ATOM      7  C   UNL     1     -18.855  40.285 -10.373  0.00  0.00    +0.000 A 
ATOM      8  C   UNL     1     -17.322  42.312 -10.551  0.00  0.00    +0.000 C 
ATOM      9  C   UNL     1     -18.804  41.931  -8.619  0.00  0.00    +0.000 A 
ATOM     10  C   UNL     1     -17.319  39.707 -12.050  0.00  0.00    +0.000 C 
ATOM     11  C   UNL     1     -19.757  41.196  -7.928  0.00  0.00    +0.000 A 
ATOM     12  C   UNL     1     -20.215  40.031  -8.509  0.00  0.00    +0.000 A 
ATOM     13  H   UNL     1     -15.657  42.239 -11.756  0.00  0.00    +0.000 HD
ENDROOT
TORSDOF 0
ENDMDL
MODEL 3
REMARK VINA RESULT:    -5.585      1.840      3.643
REMARK INTER + INTRA:          -5.585
REMARK INTER:                  -5.585
REMARK INTRA:                   0.000
REMARK UNBOUND:                 0.000
REMARK  Name = 170278659
REMARK  0 active torsions:
REMARK  status: ('A' for Active; 'I' for Inactive)
REMARK                            x       y       z     vdW  Elec       q    Type
REMARK                         _______ _______ _______ _____ _____    ______ ____
ROOT
ATOM      1  O   UNL     1     -20.007  41.981 -13.877  0.00  0.00    +0.000 OA
ATOM      2  N   UNL     1     -19.829  40.155 -12.498  0.00  0.00    +0.000 N 
ATOM      3  N   UNL     1     -18.573  41.236 -10.069  0.00  0.00    +0.000 NA
ATOM      4  N   UNL     1     -16.669  42.425 -10.592  0.00  0.00    +0.000 NA
ATOM      5  C   UNL     1     -18.169  41.959 -12.421  0.00  0.00    +0.000 A 
ATOM      6  C   UNL     1     -19.076  39.337 -11.575  0.00  0.00    +0.000 C 
ATOM      7  C   UNL     1     -17.803  41.853 -11.073  0.00  0.00    +0.000 A 
ATOM      8  C   UNL     1     -19.406  41.374 -12.994  0.00  0.00    +0.000 C 
ATOM      9  C   UNL     1     -17.336  42.679 -13.284  0.00  0.00    +0.000 A 
ATOM     10  C   UNL     1     -19.140  40.093 -10.287  0.00  0.00    +0.000 C 
ATOM     11  C   UNL     1     -16.170  43.257 -12.802  0.00  0.00    +0.000 A 
ATOM     12  C   UNL     1     -15.883  43.101 -11.460  0.00  0.00    +0.000 A 
ATOM     13  H   UNL     1     -20.678  39.760 -12.893  0.00  0.00    +0.000 HD
ENDROOT
TORSDOF 0
ENDMDL
MODEL 4
REMARK VINA RESULT:    -5.540      2.217      4.348
REMARK INTER + INTRA:          -5.540
REMARK INTER:                  -5.540
REMARK INTRA:                   0.000
REMARK UNBOUND:                 0.000
REMARK  Name = 170278659
REMARK  0 active torsions:
REMARK  status: ('A' for Active; 'I' for Inactive)
REMARK                            x       y       z     vdW  Elec       q    Type
REMARK                         _______ _______ _______ _____ _____    ______ ____
ROOT
ATOM      1  O   UNL     1     -15.901  42.441 -11.091  0.00  0.00    +0.000 OA
ATOM      2  N   UNL     1     -17.303  40.766 -10.386  0.00  0.00    +0.000 N 
ATOM      3  N   UNL     1     -18.747  39.992 -12.827  0.00  0.00    +0.000 NA
ATOM      4  N   UNL     1     -19.655  41.841 -13.862  0.00  0.00    +0.000 NA
ATOM      5  C   UNL     1     -17.957  42.274 -12.206  0.00  0.00    +0.000 A 
ATOM      6  C   UNL     1     -18.600  40.131 -10.360  0.00  0.00    +0.000 C 
ATOM      7  C   UNL     1     -18.780  41.396 -12.924  0.00  0.00    +0.000 A 
ATOM      8  C   UNL     1     -16.969  41.841 -11.188  0.00  0.00    +0.000 C 
ATOM      9  C   UNL     1     -18.048  43.644 -12.475  0.00  0.00    +0.000 A 
ATOM     10  C   UNL     1     -18.678  39.416 -11.670  0.00  0.00    +0.000 C 
ATOM     11  C   UNL     1     -18.948  44.106 -13.425  0.00  0.00    +0.000 A 
ATOM     12  C   UNL     1     -19.723  43.173 -14.084  0.00  0.00    +0.000 A 
ATOM     13  H   UNL     1     -16.622  40.473  -9.692  0.00  0.00    +0.000 HD
ENDROOT
TORSDOF 0
ENDMDL
MODEL 5
REMARK VINA RESULT:    -5.261      2.814      3.510
REMARK INTER + INTRA:          -5.261
REMARK INTER:                  -5.261
REMARK INTRA:                   0.000
REMARK UNBOUND:                 0.000
REMARK  Name = 170278659
REMARK  0 active torsions:
REMARK  status: ('A' for Active; 'I' for Inactive)
REMARK                            x       y       z     vdW  Elec       q    Type
REMARK                         _______ _______ _______ _____ _____    ______ ____
ROOT
ATOM      1  O   UNL     1     -20.291  42.413 -14.544  0.00  0.00    +0.000 OA
ATOM      2  N   UNL     1     -19.068  44.100 -13.581  0.00  0.00    +0.000 N 
ATOM      3  N   UNL     1     -16.476  42.840 -13.002  0.00  0.00    +0.000 NA
ATOM      4  N   UNL     1     -16.764  40.872 -11.838  0.00  0.00    +0.000 NA
ATOM      5  C   UNL     1     -18.723  41.762 -12.926  0.00  0.00    +0.000 A 
ATOM      6  C   UNL     1     -18.173  44.586 -12.557  0.00  0.00    +0.000 C 
ATOM      7  C   UNL     1     -17.368  41.837 -12.578  0.00  0.00    +0.000 A 
ATOM      8  C   UNL     1     -19.426  42.776 -13.750  0.00  0.00    +0.000 C 
ATOM      9  C   UNL     1     -19.462  40.655 -12.495  0.00  0.00    +0.000 A 
ATOM     10  C   UNL     1     -16.831  44.085 -12.984  0.00  0.00    +0.000 C 
ATOM     11  C   UNL     1     -18.854  39.670 -11.729  0.00  0.00    +0.000 A 
ATOM     12  C   UNL     1     -17.515  39.825 -11.429  0.00  0.00    +0.000 A 
ATOM     13  H   UNL     1     -19.552  44.790 -14.150  0.00  0.00    +0.000 HD
ENDROOT
TORSDOF 0
ENDMDL
