MODEL 1
REMARK VINA RESULT:    -7.384      0.000      0.000
REMARK INTER + INTRA:          -7.874
REMARK INTER:                  -7.816
REMARK INTRA:                  -0.058
REMARK UNBOUND:                -0.058
REMARK  Name = 170568765
REMARK  1 active torsions:
REMARK  status: ('A' for Active; 'I' for Inactive)
REMARK    1  A    between atoms: C_12  and  C_14
REMARK                            x       y       z     vdW  Elec       q    Type
REMARK                         _______ _______ _______ _____ _____    ______ ____
ROOT
ATOM      1  F   UNL     1     -15.913  39.124 -12.029  0.00  0.00    +0.000 F 
ATOM      2  N   UNL     1     -18.186  40.550 -10.357  0.00  0.00    +0.000 N 
ATOM      3  N   UNL     1     -20.294  40.256  -9.318  0.00  0.00    +0.000 NA
ATOM      4  C   UNL     1     -16.854  40.075 -11.838  0.00  0.00    +0.000 C 
ATOM      5  C   UNL     1     -18.236  39.577 -11.393  0.00  0.00    +0.000 C 
ATOM      6  C   UNL     1     -16.797  40.819 -10.496  0.00  0.00    +0.000 C 
ATOM      7  C   UNL     1     -19.112  40.908  -9.367  0.00  0.00    +0.000 A 
ATOM      8  C   UNL     1     -18.747  41.920  -8.493  0.00  0.00    +0.000 A 
ATOM      9  C   UNL     1     -19.654  42.285  -7.505  0.00  0.00    +0.000 A 
ATOM     10  C   UNL     1     -20.881  41.637  -7.422  0.00  0.00    +0.000 A 
ATOM     11  C   UNL     1     -21.151  40.637  -8.344  0.00  0.00    +0.000 A 
ENDROOT
BRANCH  10  14
ATOM     12  O   UNL     1     -23.049  41.679  -6.503  0.00  0.00    +0.000 OA
ATOM     13  N   UNL     1     -21.399  42.734  -5.309  0.00  0.00    +0.000 N 
ATOM     14  C   UNL     1     -21.850  41.997  -6.402  0.00  0.00    +0.000 C 
ATOM     15  H   UNL     1     -20.446  43.036  -5.156  0.00  0.00    +0.000 HD
ATOM     16  H   UNL     1     -22.057  43.005  -4.585  0.00  0.00    +0.000 HD
ENDBRANCH  10  14
TORSDOF 1
ENDMDL
MODEL 2
REMARK VINA RESULT:    -6.952      3.736      5.939
REMARK INTER + INTRA:          -7.416
REMARK INTER:                  -7.362
REMARK INTRA:                  -0.055
REMARK UNBOUND:                -0.058
REMARK  Name = 170568765
REMARK  1 active torsions:
REMARK  status: ('A' for Active; 'I' for Inactive)
REMARK    1  A    between atoms: C_12  and  C_14
REMARK                            x       y       z     vdW  Elec       q    Type
REMARK                         _______ _______ _______ _____ _____    ______ ____
ROOT
ATOM      1  F   UNL     1     -22.893  42.541  -6.490  0.00  0.00    +0.000 F 
ATOM      2  N   UNL     1     -20.553  41.198  -8.139  0.00  0.00    +0.000 N 
ATOM      3  N   UNL     1     -20.021  39.990 -10.105  0.00  0.00    +0.000 NA
ATOM      4  C   UNL     1     -21.872  41.669  -6.645  0.00  0.00    +0.000 C 
ATOM      5  C   UNL     1     -21.903  40.813  -7.918  0.00  0.00    +0.000 C 
ATOM      6  C   UNL     1     -20.561  42.256  -7.188  0.00  0.00    +0.000 C 
ATOM      7  C   UNL     1     -19.632  40.847  -9.136  0.00  0.00    +0.000 A 
ATOM      8  C   UNL     1     -18.369  41.412  -9.061  0.00  0.00    +0.000 A 
ATOM      9  C   UNL     1     -17.445  41.074 -10.043  0.00  0.00    +0.000 A 
ATOM     10  C   UNL     1     -17.808  40.194 -11.058  0.00  0.00    +0.000 A 
ATOM     11  C   UNL     1     -19.097  39.684 -11.044  0.00  0.00    +0.000 A 
ENDROOT
BRANCH  10  14
ATOM     12  O   UNL     1     -17.234  39.622 -13.269  0.00  0.00    +0.000 OA
ATOM     13  N   UNL     1     -15.528  39.668 -11.736  0.00  0.00    +0.000 N 
ATOM     14  C   UNL     1     -16.865  39.820 -12.097  0.00  0.00    +0.000 C 
ATOM     15  H   UNL     1     -15.150  39.805 -10.808  0.00  0.00    +0.000 HD
ATOM     16  H   UNL     1     -14.849  39.401 -12.442  0.00  0.00    +0.000 HD
ENDBRANCH  10  14
TORSDOF 1
ENDMDL
MODEL 3
REMARK VINA RESULT:    -5.573      4.920      5.772
REMARK INTER + INTRA:          -5.956
REMARK INTER:                  -5.897
REMARK INTRA:                  -0.059
REMARK UNBOUND:                -0.058
REMARK  Name = 170568765
REMARK  1 active torsions:
REMARK  status: ('A' for Active; 'I' for Inactive)
REMARK    1  A    between atoms: C_12  and  C_14
REMARK                            x       y       z     vdW  Elec       q    Type
REMARK                         _______ _______ _______ _____ _____    ______ ____
ROOT
ATOM      1  F   UNL     1     -18.658  45.651 -17.326  0.00  0.00    +0.000 F 
ATOM      2  N   UNL     1     -19.017  44.091 -14.600  0.00  0.00    +0.000 N 
ATOM      3  N   UNL     1     -19.532  41.993 -13.627  0.00  0.00    +0.000 NA
ATOM      4  C   UNL     1     -19.232  45.444 -16.121  0.00  0.00    +0.000 C 
ATOM      5  C   UNL     1     -19.711  44.014 -15.838  0.00  0.00    +0.000 C 
ATOM      6  C   UNL     1     -18.271  45.253 -14.939  0.00  0.00    +0.000 C 
ATOM      7  C   UNL     1     -18.899  43.184 -13.537  0.00  0.00    +0.000 A 
ATOM      8  C   UNL     1     -18.132  43.575 -12.452  0.00  0.00    +0.000 A 
ATOM      9  C   UNL     1     -18.005  42.686 -11.390  0.00  0.00    +0.000 A 
ATOM     10  C   UNL     1     -18.641  41.450 -11.446  0.00  0.00    +0.000 A 
ATOM     11  C   UNL     1     -19.386  41.154 -12.577  0.00  0.00    +0.000 A 
ENDROOT
BRANCH  10  14
ATOM     12  O   UNL     1     -19.075  39.383 -10.403  0.00  0.00    +0.000 OA
ATOM     13  N   UNL     1     -17.807  40.890  -9.227  0.00  0.00    +0.000 N 
ATOM     14  C   UNL     1     -18.530  40.501 -10.352  0.00  0.00    +0.000 C 
ATOM     15  H   UNL     1     -17.340  41.779  -9.105  0.00  0.00    +0.000 HD
ATOM     16  H   UNL     1     -17.718  40.248  -8.445  0.00  0.00    +0.000 HD
ENDBRANCH  10  14
TORSDOF 1
ENDMDL
MODEL 4
REMARK VINA RESULT:    -5.213      4.562      5.459
REMARK INTER + INTRA:          -5.576
REMARK INTER:                  -5.527
REMARK INTRA:                  -0.049
REMARK UNBOUND:                -0.058
REMARK  Name = 170568765
REMARK  1 active torsions:
REMARK  status: ('A' for Active; 'I' for Inactive)
REMARK    1  A    between atoms: C_12  and  C_14
REMARK                            x       y       z     vdW  Elec       q    Type
REMARK                         _______ _______ _______ _____ _____    ______ ____
ROOT
ATOM      1  F   UNL     1     -15.737  46.941 -14.529  0.00  0.00    +0.000 F 
ATOM      2  N   UNL     1     -17.413  44.772 -12.953  0.00  0.00    +0.000 N 
ATOM      3  N   UNL     1     -18.716  42.805 -13.168  0.00  0.00    +0.000 NA
ATOM      4  C   UNL     1     -16.742  46.551 -13.714  0.00  0.00    +0.000 C 
ATOM      5  C   UNL     1     -17.607  45.388 -14.220  0.00  0.00    +0.000 C 
ATOM      6  C   UNL     1     -16.349  45.626 -12.553  0.00  0.00    +0.000 C 
ATOM      7  C   UNL     1     -17.903  43.575 -12.411  0.00  0.00    +0.000 A 
ATOM      8  C   UNL     1     -17.516  43.258 -11.119  0.00  0.00    +0.000 A 
ATOM      9  C   UNL     1     -17.993  42.074 -10.569  0.00  0.00    +0.000 A 
ATOM     10  C   UNL     1     -18.831  41.255 -11.316  0.00  0.00    +0.000 A 
ATOM     11  C   UNL     1     -19.160  41.662 -12.600  0.00  0.00    +0.000 A 
ENDROOT
BRANCH  10  14
ATOM     12  O   UNL     1     -19.099  38.915 -11.299  0.00  0.00    +0.000 OA
ATOM     13  N   UNL     1     -20.154  40.089  -9.635  0.00  0.00    +0.000 N 
ATOM     14  C   UNL     1     -19.348  40.013 -10.768  0.00  0.00    +0.000 C 
ATOM     15  H   UNL     1     -20.407  40.940  -9.149  0.00  0.00    +0.000 HD
ATOM     16  H   UNL     1     -20.533  39.237  -9.235  0.00  0.00    +0.000 HD
ENDBRANCH  10  14
TORSDOF 1
ENDMDL
MODEL 5
REMARK VINA RESULT:    -5.209      5.407      6.741
REMARK INTER + INTRA:          -5.572
REMARK INTER:                  -5.518
REMARK INTRA:                  -0.053
REMARK UNBOUND:                -0.058
REMARK  Name = 170568765
REMARK  1 active torsions:
REMARK  status: ('A' for Active; 'I' for Inactive)
REMARK    1  A    between atoms: C_12  and  C_14
REMARK                            x       y       z     vdW  Elec       q    Type
REMARK                         _______ _______ _______ _____ _____    ______ ____
ROOT
ATOM      1  F   UNL     1     -18.886  40.077  -9.001  0.00  0.00    +0.000 F 
ATOM      2  N   UNL     1     -18.595  41.652 -11.728  0.00  0.00    +0.000 N 
ATOM      3  N   UNL     1     -19.653  42.169 -13.783  0.00  0.00    +0.000 NA
ATOM      4  C   UNL     1     -18.272  40.361 -10.171  0.00  0.00    +0.000 C 
ATOM      5  C   UNL     1     -19.171  40.390 -11.415  0.00  0.00    +0.000 C 
ATOM      6  C   UNL     1     -18.004  41.846 -10.449  0.00  0.00    +0.000 C 
ATOM      7  C   UNL     1     -18.781  42.521 -12.812  0.00  0.00    +0.000 A 
ATOM      8  C   UNL     1     -18.050  43.697 -12.815  0.00  0.00    +0.000 A 
ATOM      9  C   UNL     1     -18.225  44.570 -13.883  0.00  0.00    +0.000 A 
ATOM     10  C   UNL     1     -19.114  44.243 -14.901  0.00  0.00    +0.000 A 
ATOM     11  C   UNL     1     -19.798  43.041 -14.805  0.00  0.00    +0.000 A 
ENDROOT
BRANCH  10  14
ATOM     12  O   UNL     1     -18.369  45.751 -16.550  0.00  0.00    +0.000 OA
ATOM     13  N   UNL     1     -20.616  45.291 -16.508  0.00  0.00    +0.000 N 
ATOM     14  C   UNL     1     -19.316  45.133 -16.031  0.00  0.00    +0.000 C 
ATOM     15  H   UNL     1     -21.438  44.830 -16.140  0.00  0.00    +0.000 HD
ATOM     16  H   UNL     1     -20.787  45.911 -17.293  0.00  0.00    +0.000 HD
ENDBRANCH  10  14
TORSDOF 1
ENDMDL
