MODEL 1
REMARK VINA RESULT:    -6.350      0.000      0.000
REMARK INTER + INTRA:          -8.883
REMARK INTER:                  -8.020
REMARK INTRA:                  -0.863
REMARK UNBOUND:                -0.863
REMARK  Name = 170943887
REMARK  5 active torsions:
REMARK  status: ('A' for Active; 'I' for Inactive)
REMARK    1  A    between atoms: N_2  and  N_4
REMARK    2  A    between atoms: N_2  and  C_9
REMARK    3  A    between atoms: N_4  and  N_5
REMARK    4  A    between atoms: N_5  and  N_7
REMARK    5  A    between atoms: C_8  and  C_12
REMARK                            x       y       z     vdW  Elec       q    Type
REMARK                         _______ _______ _______ _____ _____    ______ ____
ROOT
ATOM      1  N   UNL     1     -18.493  42.200  -8.281  0.00  0.00    +0.000 NA
ATOM      2  C   UNL     1     -19.453  40.683  -9.900  0.00  0.00    +0.000 A 
ATOM      3  C   UNL     1     -18.449  41.525  -9.452  0.00  0.00    +0.000 A 
ATOM      4  C   UNL     1     -20.575  40.521  -9.095  0.00  0.00    +0.000 A 
ATOM      5  C   UNL     1     -20.658  41.200  -7.884  0.00  0.00    +0.000 A 
ATOM      6  C   UNL     1     -19.600  42.020  -7.526  0.00  0.00    +0.000 A 
ENDROOT
BRANCH   2   9
ATOM      7  O   UNL     1     -18.696  38.932 -11.281  0.00  0.00    +0.000 OA
ATOM      8  N   UNL     1     -20.071  40.489 -12.248  0.00  0.00    +0.000 N 
ATOM      9  C   UNL     1     -19.374  39.965 -11.165  0.00  0.00    +0.000 C 
ATOM     10  H   UNL     1     -20.625  41.337 -12.175  0.00  0.00    +0.000 HD
ATOM     11  H   UNL     1     -20.047  40.034 -13.156  0.00  0.00    +0.000 HD
ENDBRANCH   2   9
BRANCH   3  12
ATOM     12  N   UNL     1     -17.300  41.691 -10.265  0.00  0.00    +0.000 N 
ATOM     13  H   UNL     1     -17.050  42.637 -10.535  0.00  0.00    +0.000 HD
BRANCH  12  14
ATOM     14  N   UNL     1     -16.327  40.727 -10.342  0.00  0.00    +0.000 NA
ATOM     15  H   UNL     1     -15.529  41.023  -9.779  0.00  0.00    +0.000 HD
BRANCH  14  16
ATOM     16  N   UNL     1     -15.902  40.563 -11.687  0.00  0.00    +0.000 NA
ATOM     17  H   UNL     1     -16.574  41.019 -12.303  0.00  0.00    +0.000 HD
BRANCH  16  18
ATOM     18  N   UNL     1     -15.830  39.183 -12.020  0.00  0.00    +0.000 NA
ATOM     19  H   UNL     1     -16.745  38.759 -11.874  0.00  0.00    +0.000 HD
ATOM     20  H   UNL     1     -15.631  39.091 -13.015  0.00  0.00    +0.000 HD
ENDBRANCH  16  18
ENDBRANCH  14  16
ENDBRANCH  12  14
ENDBRANCH   3  12
TORSDOF 5
ENDMDL
MODEL 2
REMARK VINA RESULT:    -6.204      3.106      4.528
REMARK INTER + INTRA:          -8.698
REMARK INTER:                  -7.688
REMARK INTRA:                  -1.010
REMARK UNBOUND:                -0.863
REMARK  Name = 170943887
REMARK  5 active torsions:
REMARK  status: ('A' for Active; 'I' for Inactive)
REMARK    1  A    between atoms: N_2  and  N_4
REMARK    2  A    between atoms: N_2  and  C_9
REMARK    3  A    between atoms: N_4  and  N_5
REMARK    4  A    between atoms: N_5  and  N_7
REMARK    5  A    between atoms: C_8  and  C_12
REMARK                            x       y       z     vdW  Elec       q    Type
REMARK                         _______ _______ _______ _____ _____    ______ ____
ROOT
ATOM      1  N   UNL     1     -19.126  42.126 -13.856  0.00  0.00    +0.000 NA
ATOM      2  C   UNL     1     -17.483  41.842 -12.105  0.00  0.00    +0.000 A 
ATOM      3  C   UNL     1     -18.390  41.349 -13.029  0.00  0.00    +0.000 A 
ATOM      4  C   UNL     1     -17.319  43.220 -12.025  0.00  0.00    +0.000 A 
ATOM      5  C   UNL     1     -18.059  44.053 -12.858  0.00  0.00    +0.000 A 
ATOM      6  C   UNL     1     -18.941  43.461 -13.748  0.00  0.00    +0.000 A 
ENDROOT
BRANCH   2   9
ATOM      7  O   UNL     1     -17.246  40.136 -10.499  0.00  0.00    +0.000 OA
ATOM      8  N   UNL     1     -15.321  41.142 -11.230  0.00  0.00    +0.000 N 
ATOM      9  C   UNL     1     -16.701  40.978 -11.231  0.00  0.00    +0.000 C 
ATOM     10  H   UNL     1     -14.858  41.830 -11.815  0.00  0.00    +0.000 HD
ATOM     11  H   UNL     1     -14.727  40.572 -10.635  0.00  0.00    +0.000 HD
ENDBRANCH   2   9
BRANCH   3  12
ATOM     12  N   UNL     1     -18.560  39.945 -13.121  0.00  0.00    +0.000 N 
ATOM     13  H   UNL     1     -17.722  39.376 -13.179  0.00  0.00    +0.000 HD
BRANCH  12  14
ATOM     14  N   UNL     1     -19.723  39.334 -12.725  0.00  0.00    +0.000 NA
ATOM     15  H   UNL     1     -20.427  40.052 -12.556  0.00  0.00    +0.000 HD
BRANCH  14  16
ATOM     16  N   UNL     1     -19.512  38.608 -11.522  0.00  0.00    +0.000 NA
ATOM     17  H   UNL     1     -20.048  37.742 -11.562  0.00  0.00    +0.000 HD
BRANCH  16  18
ATOM     18  N   UNL     1     -19.943  39.369 -10.402  0.00  0.00    +0.000 NA
ATOM     19  H   UNL     1     -19.153  39.517  -9.777  0.00  0.00    +0.000 HD
ATOM     20  H   UNL     1     -20.230  40.294 -10.720  0.00  0.00    +0.000 HD
ENDBRANCH  16  18
ENDBRANCH  14  16
ENDBRANCH  12  14
ENDBRANCH   3  12
TORSDOF 5
ENDMDL
MODEL 3
REMARK VINA RESULT:    -6.145      1.814      3.341
REMARK INTER + INTRA:          -8.625
REMARK INTER:                  -7.537
REMARK INTRA:                  -1.088
REMARK UNBOUND:                -0.863
REMARK  Name = 170943887
REMARK  5 active torsions:
REMARK  status: ('A' for Active; 'I' for Inactive)
REMARK    1  A    between atoms: N_2  and  N_4
REMARK    2  A    between atoms: N_2  and  C_9
REMARK    3  A    between atoms: N_4  and  N_5
REMARK    4  A    between atoms: N_5  and  N_7
REMARK    5  A    between atoms: C_8  and  C_12
REMARK                            x       y       z     vdW  Elec       q    Type
REMARK                         _______ _______ _______ _____ _____    ______ ____
ROOT
ATOM      1  N   UNL     1     -19.680  39.743  -9.727  0.00  0.00    +0.000 NA
ATOM      2  C   UNL     1     -17.796  41.077 -10.447  0.00  0.00    +0.000 A 
ATOM      3  C   UNL     1     -18.687  40.027 -10.600  0.00  0.00    +0.000 A 
ATOM      4  C   UNL     1     -17.934  41.890  -9.327  0.00  0.00    +0.000 A 
ATOM      5  C   UNL     1     -18.943  41.630  -8.406  0.00  0.00    +0.000 A 
ATOM      6  C   UNL     1     -19.782  40.554  -8.650  0.00  0.00    +0.000 A 
ENDROOT
BRANCH   2   9
ATOM      7  O   UNL     1     -16.996  41.791 -12.543  0.00  0.00    +0.000 OA
ATOM      8  N   UNL     1     -15.428  41.111 -11.016  0.00  0.00    +0.000 N 
ATOM      9  C   UNL     1     -16.739  41.360 -11.408  0.00  0.00    +0.000 C 
ATOM     10  H   UNL     1     -15.199  40.751 -10.095  0.00  0.00    +0.000 HD
ATOM     11  H   UNL     1     -14.652  41.284 -11.647  0.00  0.00    +0.000 HD
ENDBRANCH   2   9
BRANCH   3  12
ATOM     12  N   UNL     1     -18.556  39.196 -11.741  0.00  0.00    +0.000 N 
ATOM     13  H   UNL     1     -18.264  38.237 -11.590  0.00  0.00    +0.000 HD
BRANCH  12  14
ATOM     14  N   UNL     1     -19.183  39.496 -12.924  0.00  0.00    +0.000 NA
ATOM     15  H   UNL     1     -18.474  39.712 -13.623  0.00  0.00    +0.000 HD
BRANCH  14  16
ATOM     16  N   UNL     1     -20.025  40.629 -12.761  0.00  0.00    +0.000 NA
ATOM     17  H   UNL     1     -20.988  40.353 -12.950  0.00  0.00    +0.000 HD
BRANCH  16  18
ATOM     18  N   UNL     1     -19.652  41.658 -13.667  0.00  0.00    +0.000 NA
ATOM     19  H   UNL     1     -18.669  41.885 -13.524  0.00  0.00    +0.000 HD
ATOM     20  H   UNL     1     -19.725  41.304 -14.620  0.00  0.00    +0.000 HD
ENDBRANCH  16  18
ENDBRANCH  14  16
ENDBRANCH  12  14
ENDBRANCH   3  12
TORSDOF 5
ENDMDL
MODEL 4
REMARK VINA RESULT:    -6.011      2.763      3.522
REMARK INTER + INTRA:          -8.455
REMARK INTER:                  -7.583
REMARK INTRA:                  -0.872
REMARK UNBOUND:                -0.863
REMARK  Name = 170943887
REMARK  5 active torsions:
REMARK  status: ('A' for Active; 'I' for Inactive)
REMARK    1  A    between atoms: N_2  and  N_4
REMARK    2  A    between atoms: N_2  and  C_9
REMARK    3  A    between atoms: N_4  and  N_5
REMARK    4  A    between atoms: N_5  and  N_7
REMARK    5  A    between atoms: C_8  and  C_12
REMARK                            x       y       z     vdW  Elec       q    Type
REMARK                         _______ _______ _______ _____ _____    ______ ____
ROOT
ATOM      1  N   UNL     1     -16.530  42.348 -13.173  0.00  0.00    +0.000 NA
ATOM      2  C   UNL     1     -18.423  41.105 -12.325  0.00  0.00    +0.000 A 
ATOM      3  C   UNL     1     -17.108  41.201 -12.750  0.00  0.00    +0.000 A 
ATOM      4  C   UNL     1     -19.196  42.261 -12.334  0.00  0.00    +0.000 A 
ATOM      5  C   UNL     1     -18.638  43.461 -12.763  0.00  0.00    +0.000 A 
ATOM      6  C   UNL     1     -17.313  43.451 -13.169  0.00  0.00    +0.000 A 
ENDROOT
BRANCH   2   9
ATOM      7  O   UNL     1     -18.619  39.290 -10.838  0.00  0.00    +0.000 OA
ATOM      8  N   UNL     1     -20.030  39.303 -12.644  0.00  0.00    +0.000 N 
ATOM      9  C   UNL     1     -19.015  39.855 -11.871  0.00  0.00    +0.000 C 
ATOM     10  H   UNL     1     -20.362  39.746 -13.496  0.00  0.00    +0.000 HD
ATOM     11  H   UNL     1     -20.474  38.430 -12.379  0.00  0.00    +0.000 HD
ENDBRANCH   2   9
BRANCH   3  12
ATOM     12  N   UNL     1     -16.312  40.028 -12.740  0.00  0.00    +0.000 N 
ATOM     13  H   UNL     1     -16.100  39.599 -13.634  0.00  0.00    +0.000 HD
BRANCH  12  14
ATOM     14  N   UNL     1     -15.509  39.713 -11.673  0.00  0.00    +0.000 NA
ATOM     15  H   UNL     1     -16.029  39.104 -11.041  0.00  0.00    +0.000 HD
BRANCH  14  16
ATOM     16  N   UNL     1     -15.140  40.892 -10.970  0.00  0.00    +0.000 NA
ATOM     17  H   UNL     1     -15.604  41.691 -11.400  0.00  0.00    +0.000 HD
BRANCH  16  18
ATOM     18  N   UNL     1     -13.733  41.085 -11.031  0.00  0.00    +0.000 NA
ATOM     19  H   UNL     1     -13.524  41.776 -11.750  0.00  0.00    +0.000 HD
ATOM     20  H   UNL     1     -13.415  41.488 -10.151  0.00  0.00    +0.000 HD
ENDBRANCH  16  18
ENDBRANCH  14  16
ENDBRANCH  12  14
ENDBRANCH   3  12
TORSDOF 5
ENDMDL
MODEL 5
REMARK VINA RESULT:    -5.654      2.450      3.850
REMARK INTER + INTRA:          -8.005
REMARK INTER:                  -6.987
REMARK INTRA:                  -1.018
REMARK UNBOUND:                -0.863
REMARK  Name = 170943887
REMARK  5 active torsions:
REMARK  status: ('A' for Active; 'I' for Inactive)
REMARK    1  A    between atoms: N_2  and  N_4
REMARK    2  A    between atoms: N_2  and  C_9
REMARK    3  A    between atoms: N_4  and  N_5
REMARK    4  A    between atoms: N_5  and  N_7
REMARK    5  A    between atoms: C_8  and  C_12
REMARK                            x       y       z     vdW  Elec       q    Type
REMARK                         _______ _______ _______ _____ _____    ______ ____
ROOT
ATOM      1  N   UNL     1     -17.210  43.481 -11.951  0.00  0.00    +0.000 NA
ATOM      2  C   UNL     1     -18.857  41.719 -12.120  0.00  0.00    +0.000 A 
ATOM      3  C   UNL     1     -17.838  42.387 -11.462  0.00  0.00    +0.000 A 
ATOM      4  C   UNL     1     -19.260  42.204 -13.359  0.00  0.00    +0.000 A 
ATOM      5  C   UNL     1     -18.638  43.326 -13.896  0.00  0.00    +0.000 A 
ATOM      6  C   UNL     1     -17.628  43.923 -13.159  0.00  0.00    +0.000 A 
ENDROOT
BRANCH   2   9
ATOM      7  O   UNL     1     -19.926  40.528 -10.392  0.00  0.00    +0.000 OA
ATOM      8  N   UNL     1     -19.658  39.434 -12.388  0.00  0.00    +0.000 N 
ATOM      9  C   UNL     1     -19.517  40.545 -11.565  0.00  0.00    +0.000 C 
ATOM     10  H   UNL     1     -19.323  39.427 -13.347  0.00  0.00    +0.000 HD
ATOM     11  H   UNL     1     -20.104  38.587 -12.052  0.00  0.00    +0.000 HD
ENDBRANCH   2   9
BRANCH   3  12
ATOM     12  N   UNL     1     -17.424  41.902 -10.196  0.00  0.00    +0.000 N 
ATOM     13  H   UNL     1     -16.665  41.229 -10.178  0.00  0.00    +0.000 HD
BRANCH  12  14
ATOM     14  N   UNL     1     -17.702  42.585  -9.039  0.00  0.00    +0.000 NA
ATOM     15  H   UNL     1     -16.841  42.675  -8.500  0.00  0.00    +0.000 HD
BRANCH  14  16
ATOM     16  N   UNL     1     -18.654  41.871  -8.262  0.00  0.00    +0.000 NA
ATOM     17  H   UNL     1     -18.718  42.302  -7.341  0.00  0.00    +0.000 HD
BRANCH  16  18
ATOM     18  N   UNL     1     -18.256  40.515  -8.113  0.00  0.00    +0.000 NA
ATOM     19  H   UNL     1     -18.168  40.303  -7.120  0.00  0.00    +0.000 HD
ATOM     20  H   UNL     1     -18.995  39.911  -8.468  0.00  0.00    +0.000 HD
ENDBRANCH  16  18
ENDBRANCH  14  16
ENDBRANCH  12  14
ENDBRANCH   3  12
TORSDOF 5
ENDMDL
