MODEL 1
REMARK VINA RESULT:    -7.445      0.000      0.000
REMARK INTER + INTRA:          -7.748
REMARK INTER:                  -7.880
REMARK INTRA:                   0.132
REMARK UNBOUND:                 0.132
REMARK  Name = 171037195
REMARK  1 active torsions:
REMARK  status: ('A' for Active; 'I' for Inactive)
REMARK    1  A    between atoms: C_12  and  C_13
REMARK                            x       y       z     vdW  Elec       q    Type
REMARK                         _______ _______ _______ _____ _____    ______ ____
ROOT
ATOM      1  F   UNL     1     -16.585  42.596 -10.797  0.00  0.00    +0.000 F 
ATOM      2  F   UNL     1     -17.437  44.299 -11.848  0.00  0.00    +0.000 F 
ATOM      3  O   UNL     1     -19.563  38.968 -10.505  0.00  0.00    +0.000 OA
ATOM      4  N   UNL     1     -18.945  41.013 -11.460  0.00  0.00    +0.000 N 
ATOM      5  C   UNL     1     -16.985  42.366 -13.103  0.00  0.00    +0.000 C 
ATOM      6  C   UNL     1     -17.457  42.945 -11.779  0.00  0.00    +0.000 C 
ATOM      7  C   UNL     1     -17.131  40.846 -13.122  0.00  0.00    +0.000 C 
ATOM      8  C   UNL     1     -18.851  42.478 -11.397  0.00  0.00    +0.000 C 
ATOM      9  C   UNL     1     -18.546  40.419 -12.737  0.00  0.00    +0.000 C 
ATOM     10  C   UNL     1     -19.430  40.189 -10.441  0.00  0.00    +0.000 C 
ENDROOT
BRANCH  10  13
ATOM     11  N   UNL     1     -19.199  42.185  -7.276  0.00  0.00    +0.000 NA
ATOM     12  N   UNL     1     -20.810  42.624  -5.577  0.00  0.00    +0.000 N 
ATOM     13  C   UNL     1     -19.813  40.815  -9.171  0.00  0.00    +0.000 A 
ATOM     14  C   UNL     1     -21.095  40.661  -8.654  0.00  0.00    +0.000 A 
ATOM     15  C   UNL     1     -18.910  41.580  -8.450  0.00  0.00    +0.000 A 
ATOM     16  C   UNL     1     -21.430  41.268  -7.449  0.00  0.00    +0.000 A 
ATOM     17  C   UNL     1     -20.454  42.013  -6.804  0.00  0.00    +0.000 A 
ATOM     18  H   UNL     1     -21.780  42.874  -5.426  0.00  0.00    +0.000 HD
ATOM     19  H   UNL     1     -20.096  43.171  -5.112  0.00  0.00    +0.000 HD
ENDBRANCH  10  13
TORSDOF 1
ENDMDL
MODEL 2
REMARK VINA RESULT:    -7.040      1.578      2.021
REMARK INTER + INTRA:          -7.320
REMARK INTER:                  -7.107
REMARK INTRA:                  -0.213
REMARK UNBOUND:                 0.132
REMARK  Name = 171037195
REMARK  1 active torsions:
REMARK  status: ('A' for Active; 'I' for Inactive)
REMARK    1  A    between atoms: C_12  and  C_13
REMARK                            x       y       z     vdW  Elec       q    Type
REMARK                         _______ _______ _______ _____ _____    ______ ____
ROOT
ATOM      1  F   UNL     1     -17.511  44.690 -10.921  0.00  0.00    +0.000 F 
ATOM      2  F   UNL     1     -18.949  45.136 -12.491  0.00  0.00    +0.000 F 
ATOM      3  O   UNL     1     -16.931  40.072 -10.250  0.00  0.00    +0.000 OA
ATOM      4  N   UNL     1     -17.700  41.850 -11.563  0.00  0.00    +0.000 N 
ATOM      5  C   UNL     1     -16.915  44.151 -13.131  0.00  0.00    +0.000 C 
ATOM      6  C   UNL     1     -18.023  44.229 -12.093  0.00  0.00    +0.000 C 
ATOM      7  C   UNL     1     -15.926  43.036 -12.797  0.00  0.00    +0.000 C 
ATOM      8  C   UNL     1     -18.697  42.890 -11.850  0.00  0.00    +0.000 C 
ATOM      9  C   UNL     1     -16.642  41.708 -12.565  0.00  0.00    +0.000 C 
ATOM     10  C   UNL     1     -17.731  40.980 -10.470  0.00  0.00    +0.000 C 
ENDROOT
BRANCH  10  13
ATOM     11  N   UNL     1     -21.001  40.550  -8.688  0.00  0.00    +0.000 NA
ATOM     12  N   UNL     1     -21.865  41.581  -6.721  0.00  0.00    +0.000 N 
ATOM     13  C   UNL     1     -18.798  41.155  -9.479  0.00  0.00    +0.000 A 
ATOM     14  C   UNL     1     -18.654  42.045  -8.419  0.00  0.00    +0.000 A 
ATOM     15  C   UNL     1     -19.981  40.438  -9.567  0.00  0.00    +0.000 A 
ATOM     16  C   UNL     1     -19.682  42.188  -7.494  0.00  0.00    +0.000 A 
ATOM     17  C   UNL     1     -20.825  41.424  -7.671  0.00  0.00    +0.000 A 
ATOM     18  H   UNL     1     -21.618  41.863  -5.780  0.00  0.00    +0.000 HD
ATOM     19  H   UNL     1     -22.695  41.019  -6.852  0.00  0.00    +0.000 HD
ENDBRANCH  10  13
TORSDOF 1
ENDMDL
MODEL 3
REMARK VINA RESULT:    -5.986      3.491      4.787
REMARK INTER + INTRA:          -6.204
REMARK INTER:                  -6.023
REMARK INTRA:                  -0.181
REMARK UNBOUND:                 0.132
REMARK  Name = 171037195
REMARK  1 active torsions:
REMARK  status: ('A' for Active; 'I' for Inactive)
REMARK    1  A    between atoms: C_12  and  C_13
REMARK                            x       y       z     vdW  Elec       q    Type
REMARK                         _______ _______ _______ _____ _____    ______ ____
ROOT
ATOM      1  F   UNL     1     -18.471  45.354 -11.735  0.00  0.00    +0.000 F 
ATOM      2  F   UNL     1     -18.957  45.729 -13.822  0.00  0.00    +0.000 F 
ATOM      3  O   UNL     1     -14.856  42.393 -11.215  0.00  0.00    +0.000 OA
ATOM      4  N   UNL     1     -16.128  43.824 -12.560  0.00  0.00    +0.000 N 
ATOM      5  C   UNL     1     -16.918  46.570 -13.014  0.00  0.00    +0.000 C 
ATOM      6  C   UNL     1     -17.934  45.440 -12.980  0.00  0.00    +0.000 C 
ATOM      7  C   UNL     1     -15.678  46.220 -12.194  0.00  0.00    +0.000 C 
ATOM      8  C   UNL     1     -17.332  44.097 -13.356  0.00  0.00    +0.000 C 
ATOM      9  C   UNL     1     -15.102  44.868 -12.606  0.00  0.00    +0.000 C 
ATOM     10  C   UNL     1     -15.883  42.652 -11.840  0.00  0.00    +0.000 C 
ENDROOT
BRANCH  10  13
ATOM     11  N   UNL     1     -17.985  39.712 -12.837  0.00  0.00    +0.000 NA
ATOM     12  N   UNL     1     -19.873  38.705 -11.789  0.00  0.00    +0.000 N 
ATOM     13  C   UNL     1     -16.935  41.630 -11.807  0.00  0.00    +0.000 A 
ATOM     14  C   UNL     1     -17.856  41.584 -10.765  0.00  0.00    +0.000 A 
ATOM     15  C   UNL     1     -17.042  40.680 -12.810  0.00  0.00    +0.000 A 
ATOM     16  C   UNL     1     -18.841  40.603 -10.758  0.00  0.00    +0.000 A 
ATOM     17  C   UNL     1     -18.863  39.698 -11.809  0.00  0.00    +0.000 A 
ATOM     18  H   UNL     1     -20.237  38.406 -10.893  0.00  0.00    +0.000 HD
ATOM     19  H   UNL     1     -19.882  38.044 -12.555  0.00  0.00    +0.000 HD
ENDBRANCH  10  13
TORSDOF 1
ENDMDL
MODEL 4
REMARK VINA RESULT:    -5.735      3.792      6.374
REMARK INTER + INTRA:          -5.939
REMARK INTER:                  -6.895
REMARK INTRA:                   0.956
REMARK UNBOUND:                 0.132
REMARK  Name = 171037195
REMARK  1 active torsions:
REMARK  status: ('A' for Active; 'I' for Inactive)
REMARK    1  A    between atoms: C_12  and  C_13
REMARK                            x       y       z     vdW  Elec       q    Type
REMARK                         _______ _______ _______ _____ _____    ______ ____
ROOT
ATOM      1  F   UNL     1     -17.887  39.818 -13.483  0.00  0.00    +0.000 F 
ATOM      2  F   UNL     1     -19.740  38.994 -12.696  0.00  0.00    +0.000 F 
ATOM      3  O   UNL     1     -17.304  44.352 -12.383  0.00  0.00    +0.000 OA
ATOM      4  N   UNL     1     -18.388  42.307 -12.045  0.00  0.00    +0.000 N 
ATOM      5  C   UNL     1     -18.067  39.573 -11.151  0.00  0.00    +0.000 C 
ATOM      6  C   UNL     1     -18.771  39.912 -12.456  0.00  0.00    +0.000 C 
ATOM      7  C   UNL     1     -17.068  40.663 -10.766  0.00  0.00    +0.000 C 
ATOM      8  C   UNL     1     -19.382  41.303 -12.450  0.00  0.00    +0.000 C 
ATOM      9  C   UNL     1     -17.722  42.042 -10.768  0.00  0.00    +0.000 C 
ATOM     10  C   UNL     1     -18.095  43.481 -12.742  0.00  0.00    +0.000 C 
ENDROOT
BRANCH  10  13
ATOM     11  N   UNL     1     -20.227  42.884 -15.767  0.00  0.00    +0.000 NA
ATOM     12  N   UNL     1     -20.728  44.277 -17.634  0.00  0.00    +0.000 N 
ATOM     13  C   UNL     1     -18.772  43.711 -14.022  0.00  0.00    +0.000 A 
ATOM     14  C   UNL     1     -18.631  44.917 -14.701  0.00  0.00    +0.000 A 
ATOM     15  C   UNL     1     -19.575  42.735 -14.593  0.00  0.00    +0.000 A 
ATOM     16  C   UNL     1     -19.287  45.107 -15.912  0.00  0.00    +0.000 A 
ATOM     17  C   UNL     1     -20.067  44.069 -16.399  0.00  0.00    +0.000 A 
ATOM     18  H   UNL     1     -20.976  45.223 -17.894  0.00  0.00    +0.000 HD
ATOM     19  H   UNL     1     -21.300  43.518 -17.982  0.00  0.00    +0.000 HD
ENDBRANCH  10  13
TORSDOF 1
ENDMDL
MODEL 5
REMARK VINA RESULT:    -5.674      3.905      5.681
REMARK INTER + INTRA:          -5.874
REMARK INTER:                  -5.766
REMARK INTRA:                  -0.108
REMARK UNBOUND:                 0.132
REMARK  Name = 171037195
REMARK  1 active torsions:
REMARK  status: ('A' for Active; 'I' for Inactive)
REMARK    1  A    between atoms: C_12  and  C_13
REMARK                            x       y       z     vdW  Elec       q    Type
REMARK                         _______ _______ _______ _____ _____    ______ ____
ROOT
ATOM      1  F   UNL     1     -18.377  41.231 -13.877  0.00  0.00    +0.000 F 
ATOM      2  F   UNL     1     -20.174  40.963 -12.680  0.00  0.00    +0.000 F 
ATOM      3  O   UNL     1     -14.871  43.231 -11.465  0.00  0.00    +0.000 OA
ATOM      4  N   UNL     1     -16.938  42.137 -11.505  0.00  0.00    +0.000 N 
ATOM      5  C   UNL     1     -18.298  39.660 -12.128  0.00  0.00    +0.000 C 
ATOM      6  C   UNL     1     -18.819  41.004 -12.612  0.00  0.00    +0.000 C 
ATOM      7  C   UNL     1     -16.789  39.707 -11.895  0.00  0.00    +0.000 C 
ATOM      8  C   UNL     1     -18.392  42.156 -11.720  0.00  0.00    +0.000 C 
ATOM      9  C   UNL     1     -16.403  40.875 -10.992  0.00  0.00    +0.000 C 
ATOM     10  C   UNL     1     -16.079  43.222 -11.693  0.00  0.00    +0.000 C 
ENDROOT
BRANCH  10  13
ATOM     11  N   UNL     1     -17.033  45.929 -14.105  0.00  0.00    +0.000 NA
ATOM     12  N   UNL     1     -18.224  47.968 -13.786  0.00  0.00    +0.000 N 
ATOM     13  C   UNL     1     -16.646  44.469 -12.218  0.00  0.00    +0.000 A 
ATOM     14  C   UNL     1     -17.319  45.356 -11.384  0.00  0.00    +0.000 A 
ATOM     15  C   UNL     1     -16.532  44.799 -13.559  0.00  0.00    +0.000 A 
ATOM     16  C   UNL     1     -17.849  46.529 -11.910  0.00  0.00    +0.000 A 
ATOM     17  C   UNL     1     -17.680  46.768 -13.265  0.00  0.00    +0.000 A 
ATOM     18  H   UNL     1     -19.032  48.369 -13.327  0.00  0.00    +0.000 HD
ATOM     19  H   UNL     1     -18.102  48.135 -14.777  0.00  0.00    +0.000 HD
ENDBRANCH  10  13
TORSDOF 1
ENDMDL
