MODEL 1
REMARK VINA RESULT:    -7.118      0.000      0.000
REMARK INTER + INTRA:          -7.627
REMARK INTER:                  -7.534
REMARK INTRA:                  -0.094
REMARK UNBOUND:                -0.094
REMARK  Name = 171037196
REMARK  1 active torsions:
REMARK  status: ('A' for Active; 'I' for Inactive)
REMARK    1  A    between atoms: C_12  and  C_13
REMARK                            x       y       z     vdW  Elec       q    Type
REMARK                         _______ _______ _______ _____ _____    ______ ____
ROOT
ATOM      1  F   UNL     1     -19.037  40.077  -7.163  0.00  0.00    +0.000 F 
ATOM      2  F   UNL     1     -20.519  41.613  -6.743  0.00  0.00    +0.000 F 
ATOM      3  O   UNL     1     -19.830  40.900 -12.683  0.00  0.00    +0.000 OA
ATOM      4  N   UNL     1     -18.999  41.018 -10.500  0.00  0.00    +0.000 N 
ATOM      5  C   UNL     1     -19.772  41.068  -7.733  0.00  0.00    +0.000 C 
ATOM      6  C   UNL     1     -18.832  42.120  -8.303  0.00  0.00    +0.000 C 
ATOM      7  C   UNL     1     -20.683  40.467  -8.792  0.00  0.00    +0.000 C 
ATOM      8  C   UNL     1     -18.070  41.581  -9.510  0.00  0.00    +0.000 C 
ATOM      9  C   UNL     1     -19.884  39.968  -9.992  0.00  0.00    +0.000 C 
ATOM     10  C   UNL     1     -19.054  41.369 -11.851  0.00  0.00    +0.000 C 
ENDROOT
BRANCH  10  13
ATOM     11  N   UNL     1     -15.880  42.986 -13.025  0.00  0.00    +0.000 NA
ATOM     12  N   UNL     1     -15.422  45.217 -13.724  0.00  0.00    +0.000 N 
ATOM     13  C   UNL     1     -18.121  42.392 -12.340  0.00  0.00    +0.000 A 
ATOM     14  C   UNL     1     -18.550  43.692 -12.586  0.00  0.00    +0.000 A 
ATOM     15  C   UNL     1     -16.788  42.093 -12.573  0.00  0.00    +0.000 A 
ATOM     16  C   UNL     1     -17.644  44.640 -13.050  0.00  0.00    +0.000 A 
ATOM     17  C   UNL     1     -16.333  44.240 -13.252  0.00  0.00    +0.000 A 
ATOM     18  H   UNL     1     -15.781  45.978 -14.286  0.00  0.00    +0.000 HD
ATOM     19  H   UNL     1     -14.467  44.918 -13.876  0.00  0.00    +0.000 HD
ENDBRANCH  10  13
TORSDOF 1
ENDMDL
MODEL 2
REMARK VINA RESULT:    -7.000      1.821      2.182
REMARK INTER + INTRA:          -7.503
REMARK INTER:                  -7.391
REMARK INTRA:                  -0.111
REMARK UNBOUND:                -0.094
REMARK  Name = 171037196
REMARK  1 active torsions:
REMARK  status: ('A' for Active; 'I' for Inactive)
REMARK    1  A    between atoms: C_12  and  C_13
REMARK                            x       y       z     vdW  Elec       q    Type
REMARK                         _______ _______ _______ _____ _____    ______ ____
ROOT
ATOM      1  F   UNL     1     -20.858  41.174  -5.772  0.00  0.00    +0.000 F 
ATOM      2  F   UNL     1     -21.894  42.984  -6.388  0.00  0.00    +0.000 F 
ATOM      3  O   UNL     1     -19.841  39.981 -11.187  0.00  0.00    +0.000 OA
ATOM      4  N   UNL     1     -19.641  40.768  -8.993  0.00  0.00    +0.000 N 
ATOM      5  C   UNL     1     -21.092  41.987  -6.835  0.00  0.00    +0.000 C 
ATOM      6  C   UNL     1     -19.772  42.569  -7.318  0.00  0.00    +0.000 C 
ATOM      7  C   UNL     1     -21.812  41.199  -7.917  0.00  0.00    +0.000 C 
ATOM      8  C   UNL     1     -18.897  41.493  -7.953  0.00  0.00    +0.000 C 
ATOM      9  C   UNL     1     -20.893  40.155  -8.546  0.00  0.00    +0.000 C 
ATOM     10  C   UNL     1     -19.221  40.588 -10.314  0.00  0.00    +0.000 C 
ENDROOT
BRANCH  10  13
ATOM     11  N   UNL     1     -15.611  40.859 -11.292  0.00  0.00    +0.000 NA
ATOM     12  N   UNL     1     -14.280  42.749 -11.869  0.00  0.00    +0.000 N 
ATOM     13  C   UNL     1     -17.938  41.175 -10.719  0.00  0.00    +0.000 A 
ATOM     14  C   UNL     1     -17.810  42.545 -10.921  0.00  0.00    +0.000 A 
ATOM     15  C   UNL     1     -16.819  40.382 -10.916  0.00  0.00    +0.000 A 
ATOM     16  C   UNL     1     -16.583  43.073 -11.306  0.00  0.00    +0.000 A 
ATOM     17  C   UNL     1     -15.524  42.196 -11.477  0.00  0.00    +0.000 A 
ATOM     18  H   UNL     1     -14.282  43.606 -12.408  0.00  0.00    +0.000 HD
ATOM     19  H   UNL     1     -13.511  42.103 -11.999  0.00  0.00    +0.000 HD
ENDBRANCH  10  13
TORSDOF 1
ENDMDL
MODEL 3
REMARK VINA RESULT:    -5.860      3.565      6.089
REMARK INTER + INTRA:          -6.296
REMARK INTER:                  -6.155
REMARK INTRA:                  -0.141
REMARK UNBOUND:                -0.094
REMARK  Name = 171037196
REMARK  1 active torsions:
REMARK  status: ('A' for Active; 'I' for Inactive)
REMARK    1  A    between atoms: C_12  and  C_13
REMARK                            x       y       z     vdW  Elec       q    Type
REMARK                         _______ _______ _______ _____ _____    ______ ____
ROOT
ATOM      1  F   UNL     1     -17.149  46.345 -14.037  0.00  0.00    +0.000 F 
ATOM      2  F   UNL     1     -16.858  47.534 -12.239  0.00  0.00    +0.000 F 
ATOM      3  O   UNL     1     -15.331  41.793 -11.254  0.00  0.00    +0.000 OA
ATOM      4  N   UNL     1     -16.695  43.442 -12.197  0.00  0.00    +0.000 N 
ATOM      5  C   UNL     1     -16.897  46.262 -12.705  0.00  0.00    +0.000 C 
ATOM      6  C   UNL     1     -18.031  45.505 -12.030  0.00  0.00    +0.000 C 
ATOM      7  C   UNL     1     -15.546  45.598 -12.493  0.00  0.00    +0.000 C 
ATOM      8  C   UNL     1     -18.022  44.032 -12.427  0.00  0.00    +0.000 C 
ATOM      9  C   UNL     1     -15.589  44.121 -12.874  0.00  0.00    +0.000 C 
ATOM     10  C   UNL     1     -16.439  42.291 -11.448  0.00  0.00    +0.000 C 
ENDROOT
BRANCH  10  13
ATOM     11  N   UNL     1     -19.123  41.442  -8.970  0.00  0.00    +0.000 NA
ATOM     12  N   UNL     1     -20.784  39.733  -8.980  0.00  0.00    +0.000 N 
ATOM     13  C   UNL     1     -17.576  41.605 -10.820  0.00  0.00    +0.000 A 
ATOM     14  C   UNL     1     -18.183  40.516 -11.435  0.00  0.00    +0.000 A 
ATOM     15  C   UNL     1     -18.079  42.026  -9.599  0.00  0.00    +0.000 A 
ATOM     16  C   UNL     1     -19.259  39.887 -10.817  0.00  0.00    +0.000 A 
ATOM     17  C   UNL     1     -19.687  40.385  -9.597  0.00  0.00    +0.000 A 
ATOM     18  H   UNL     1     -21.461  39.267  -9.570  0.00  0.00    +0.000 HD
ATOM     19  H   UNL     1     -21.097  40.105  -8.091  0.00  0.00    +0.000 HD
ENDBRANCH  10  13
TORSDOF 1
ENDMDL
MODEL 4
REMARK VINA RESULT:    -5.760      2.247      3.124
REMARK INTER + INTRA:          -6.190
REMARK INTER:                  -6.014
REMARK INTRA:                  -0.176
REMARK UNBOUND:                -0.094
REMARK  Name = 171037196
REMARK  1 active torsions:
REMARK  status: ('A' for Active; 'I' for Inactive)
REMARK    1  A    between atoms: C_12  and  C_13
REMARK                            x       y       z     vdW  Elec       q    Type
REMARK                         _______ _______ _______ _____ _____    ______ ____
ROOT
ATOM      1  F   UNL     1     -17.911  39.318 -11.018  0.00  0.00    +0.000 F 
ATOM      2  F   UNL     1     -19.711  39.851  -9.920  0.00  0.00    +0.000 F 
ATOM      3  O   UNL     1     -18.711  43.770 -14.382  0.00  0.00    +0.000 OA
ATOM      4  N   UNL     1     -17.990  42.378 -12.646  0.00  0.00    +0.000 N 
ATOM      5  C   UNL     1     -18.832  40.301 -10.848  0.00  0.00    +0.000 C 
ATOM      6  C   UNL     1     -18.136  41.551 -10.330  0.00  0.00    +0.000 C 
ATOM      7  C   UNL     1     -19.555  40.541 -12.164  0.00  0.00    +0.000 C 
ATOM      8  C   UNL     1     -17.239  42.165 -11.400  0.00  0.00    +0.000 C 
ATOM      9  C   UNL     1     -18.631  41.182 -13.195  0.00  0.00    +0.000 C 
ATOM     10  C   UNL     1     -18.084  43.588 -13.339  0.00  0.00    +0.000 C 
ENDROOT
BRANCH  10  13
ATOM     11  N   UNL     1     -15.382  46.096 -12.651  0.00  0.00    +0.000 NA
ATOM     12  N   UNL     1     -15.362  48.043 -11.278  0.00  0.00    +0.000 N 
ATOM     13  C   UNL     1     -17.391  44.759 -12.786  0.00  0.00    +0.000 A 
ATOM     14  C   UNL     1     -18.037  45.626 -11.913  0.00  0.00    +0.000 A 
ATOM     15  C   UNL     1     -16.075  45.035 -13.121  0.00  0.00    +0.000 A 
ATOM     16  C   UNL     1     -17.357  46.728 -11.406  0.00  0.00    +0.000 A 
ATOM     17  C   UNL     1     -16.042  46.917 -11.803  0.00  0.00    +0.000 A 
ATOM     18  H   UNL     1     -15.905  48.858 -11.022  0.00  0.00    +0.000 HD
ATOM     19  H   UNL     1     -14.404  48.180 -11.575  0.00  0.00    +0.000 HD
ENDBRANCH  10  13
TORSDOF 1
ENDMDL
MODEL 5
REMARK VINA RESULT:    -5.632      2.740      3.634
REMARK INTER + INTRA:          -6.054
REMARK INTER:                  -5.974
REMARK INTRA:                  -0.080
REMARK UNBOUND:                -0.094
REMARK  Name = 171037196
REMARK  1 active torsions:
REMARK  status: ('A' for Active; 'I' for Inactive)
REMARK    1  A    between atoms: C_12  and  C_13
REMARK                            x       y       z     vdW  Elec       q    Type
REMARK                         _______ _______ _______ _____ _____    ______ ____
ROOT
ATOM      1  F   UNL     1     -19.643  39.546 -10.611  0.00  0.00    +0.000 F 
ATOM      2  F   UNL     1     -19.517  38.811 -12.653  0.00  0.00    +0.000 F 
ATOM      3  O   UNL     1     -15.200  42.874 -11.592  0.00  0.00    +0.000 OA
ATOM      4  N   UNL     1     -17.383  42.063 -11.370  0.00  0.00    +0.000 N 
ATOM      5  C   UNL     1     -19.051  39.767 -11.813  0.00  0.00    +0.000 C 
ATOM      6  C   UNL     1     -19.458  41.141 -12.324  0.00  0.00    +0.000 C 
ATOM      7  C   UNL     1     -17.545  39.625 -11.661  0.00  0.00    +0.000 C 
ATOM      8  C   UNL     1     -18.837  42.248 -11.479  0.00  0.00    +0.000 C 
ATOM      9  C   UNL     1     -16.961  40.768 -10.835  0.00  0.00    +0.000 C 
ATOM     10  C   UNL     1     -16.418  43.024 -11.682  0.00  0.00    +0.000 C 
ENDROOT
BRANCH  10  13
ATOM     11  N   UNL     1     -17.189  45.845 -14.031  0.00  0.00    +0.000 NA
ATOM     12  N   UNL     1     -18.144  47.993 -13.642  0.00  0.00    +0.000 N 
ATOM     13  C   UNL     1     -16.874  44.331 -12.172  0.00  0.00    +0.000 A 
ATOM     14  C   UNL     1     -17.414  45.273 -11.303  0.00  0.00    +0.000 A 
ATOM     15  C   UNL     1     -16.785  44.663 -13.515  0.00  0.00    +0.000 A 
ATOM     16  C   UNL     1     -17.839  46.501 -11.796  0.00  0.00    +0.000 A 
ATOM     17  C   UNL     1     -17.707  46.736 -13.156  0.00  0.00    +0.000 A 
ATOM     18  H   UNL     1     -18.885  48.471 -13.145  0.00  0.00    +0.000 HD
ATOM     19  H   UNL     1     -18.051  48.157 -14.637  0.00  0.00    +0.000 HD
ENDBRANCH  10  13
TORSDOF 1
ENDMDL
