MODEL 1
REMARK VINA RESULT:    -6.746      0.000      0.000
REMARK INTER + INTRA:          -7.195
REMARK INTER:                  -7.140
REMARK INTRA:                  -0.055
REMARK UNBOUND:                -0.055
REMARK  Name = 171501818
REMARK  2 active torsions:
REMARK  status: ('A' for Active; 'I' for Inactive)
REMARK    1  A    between atoms: C_6  and  C_10
REMARK    2  A    between atoms: C_15  and  C_16
REMARK                            x       y       z     vdW  Elec       q    Type
REMARK                         _______ _______ _______ _____ _____    ______ ____
ROOT
ATOM      1  F   UNL     1     -22.435  42.959  -7.463  0.00  0.00    +0.000 F 
ATOM      2  N   UNL     1     -20.166  41.218  -8.143  0.00  0.00    +0.000 N 
ATOM      3  N   UNL     1     -19.804  40.141 -10.198  0.00  0.00    +0.000 NA
ATOM      4  C   UNL     1     -22.132  41.727  -6.959  0.00  0.00    +0.000 C 
ATOM      5  C   UNL     1     -20.946  41.874  -6.017  0.00  0.00    +0.000 C 
ATOM      6  C   UNL     1     -21.585  40.866  -8.097  0.00  0.00    +0.000 C 
ATOM      7  C   UNL     1     -19.760  41.996  -6.974  0.00  0.00    +0.000 C 
ATOM      8  C   UNL     1     -23.375  41.166  -6.302  0.00  0.00    +0.000 C 
ATOM      9  C   UNL     1     -19.313  40.863  -9.167  0.00  0.00    +0.000 A 
ATOM     10  C   UNL     1     -17.995  41.276  -9.067  0.00  0.00    +0.000 A 
ATOM     11  C   UNL     1     -17.123  40.926 -10.092  0.00  0.00    +0.000 A 
ATOM     12  C   UNL     1     -18.928  39.819 -11.176  0.00  0.00    +0.000 A 
ATOM     13  C   UNL     1     -17.591  40.184 -11.171  0.00  0.00    +0.000 A 
ENDROOT
BRANCH  13  16
ATOM     14  O   UNL     1     -17.100  39.766 -13.436  0.00  0.00    +0.000 OA
ATOM     15  N   UNL     1     -15.395  39.452 -11.934  0.00  0.00    +0.000 N 
ATOM     16  C   UNL     1     -16.705  39.800 -12.256  0.00  0.00    +0.000 C 
ATOM     17  H   UNL     1     -15.001  39.449 -11.002  0.00  0.00    +0.000 HD
ATOM     18  H   UNL     1     -14.758  39.173 -12.673  0.00  0.00    +0.000 HD
ENDBRANCH  13  16
TORSDOF 1
ENDMDL
MODEL 2
REMARK VINA RESULT:    -6.743      3.417      6.304
REMARK INTER + INTRA:          -7.192
REMARK INTER:                  -7.132
REMARK INTRA:                  -0.060
REMARK UNBOUND:                -0.055
REMARK  Name = 171501818
REMARK  2 active torsions:
REMARK  status: ('A' for Active; 'I' for Inactive)
REMARK    1  A    between atoms: C_6  and  C_10
REMARK    2  A    between atoms: C_15  and  C_16
REMARK                            x       y       z     vdW  Elec       q    Type
REMARK                         _______ _______ _______ _____ _____    ______ ____
ROOT
ATOM      1  F   UNL     1     -16.383  39.152 -11.355  0.00  0.00    +0.000 F 
ATOM      2  N   UNL     1     -18.273  41.111 -10.247  0.00  0.00    +0.000 N 
ATOM      3  N   UNL     1     -20.360  40.639  -9.280  0.00  0.00    +0.000 NA
ATOM      4  C   UNL     1     -17.098  40.107 -12.018  0.00  0.00    +0.000 C 
ATOM      5  C   UNL     1     -16.472  41.463 -11.726  0.00  0.00    +0.000 C 
ATOM      6  C   UNL     1     -18.481  40.202 -11.374  0.00  0.00    +0.000 C 
ATOM      7  C   UNL     1     -16.974  41.777 -10.317  0.00  0.00    +0.000 C 
ATOM      8  C   UNL     1     -17.124  39.744 -13.488  0.00  0.00    +0.000 C 
ATOM      9  C   UNL     1     -19.189  41.314  -9.237  0.00  0.00    +0.000 A 
ATOM     10  C   UNL     1     -18.844  42.206  -8.236  0.00  0.00    +0.000 A 
ATOM     11  C   UNL     1     -19.758  42.419  -7.210  0.00  0.00    +0.000 A 
ATOM     12  C   UNL     1     -21.224  40.872  -8.266  0.00  0.00    +0.000 A 
ATOM     13  C   UNL     1     -20.974  41.743  -7.218  0.00  0.00    +0.000 A 
ENDROOT
BRANCH  13  16
ATOM     14  O   UNL     1     -22.997  41.276  -6.107  0.00  0.00    +0.000 OA
ATOM     15  N   UNL     1     -21.688  42.935  -5.216  0.00  0.00    +0.000 N 
ATOM     16  C   UNL     1     -21.950  41.947  -6.162  0.00  0.00    +0.000 C 
ATOM     17  H   UNL     1     -20.866  43.525  -5.195  0.00  0.00    +0.000 HD
ATOM     18  H   UNL     1     -22.358  43.103  -4.472  0.00  0.00    +0.000 HD
ENDBRANCH  13  16
TORSDOF 1
ENDMDL
MODEL 3
REMARK VINA RESULT:    -6.244      5.775      7.336
REMARK INTER + INTRA:          -6.664
REMARK INTER:                  -6.615
REMARK INTRA:                  -0.050
REMARK UNBOUND:                -0.055
REMARK  Name = 171501818
REMARK  2 active torsions:
REMARK  status: ('A' for Active; 'I' for Inactive)
REMARK    1  A    between atoms: C_6  and  C_10
REMARK    2  A    between atoms: C_15  and  C_16
REMARK                            x       y       z     vdW  Elec       q    Type
REMARK                         _______ _______ _______ _____ _____    ______ ____
ROOT
ATOM      1  F   UNL     1     -19.165  43.348 -18.034  0.00  0.00    +0.000 F 
ATOM      2  N   UNL     1     -19.462  43.717 -15.133  0.00  0.00    +0.000 N 
ATOM      3  N   UNL     1     -19.554  42.016 -13.516  0.00  0.00    +0.000 NA
ATOM      4  C   UNL     1     -20.244  43.823 -17.347  0.00  0.00    +0.000 C 
ATOM      5  C   UNL     1     -19.927  45.235 -16.875  0.00  0.00    +0.000 C 
ATOM      6  C   UNL     1     -20.373  43.028 -16.048  0.00  0.00    +0.000 C 
ATOM      7  C   UNL     1     -19.013  44.998 -15.673  0.00  0.00    +0.000 C 
ATOM      8  C   UNL     1     -21.457  43.732 -18.250  0.00  0.00    +0.000 C 
ATOM      9  C   UNL     1     -19.071  43.216 -13.909  0.00  0.00    +0.000 A 
ATOM     10  C   UNL     1     -18.199  43.986 -13.158  0.00  0.00    +0.000 A 
ATOM     11  C   UNL     1     -17.795  43.494 -11.922  0.00  0.00    +0.000 A 
ATOM     12  C   UNL     1     -19.139  41.569 -12.309  0.00  0.00    +0.000 A 
ATOM     13  C   UNL     1     -18.269  42.262 -11.482  0.00  0.00    +0.000 A 
ENDROOT
BRANCH  13  16
ATOM     14  O   UNL     1     -18.082  42.338  -9.135  0.00  0.00    +0.000 OA
ATOM     15  N   UNL     1     -17.213  40.492 -10.182  0.00  0.00    +0.000 N 
ATOM     16  C   UNL     1     -17.868  41.722 -10.195  0.00  0.00    +0.000 C 
ATOM     17  H   UNL     1     -16.996  39.934 -10.998  0.00  0.00    +0.000 HD
ATOM     18  H   UNL     1     -16.915  40.096  -9.297  0.00  0.00    +0.000 HD
ENDBRANCH  13  16
TORSDOF 1
ENDMDL
MODEL 4
REMARK VINA RESULT:    -5.704      5.611      7.015
REMARK INTER + INTRA:          -6.093
REMARK INTER:                  -6.033
REMARK INTRA:                  -0.060
REMARK UNBOUND:                -0.055
REMARK  Name = 171501818
REMARK  2 active torsions:
REMARK  status: ('A' for Active; 'I' for Inactive)
REMARK    1  A    between atoms: C_6  and  C_10
REMARK    2  A    between atoms: C_15  and  C_16
REMARK                            x       y       z     vdW  Elec       q    Type
REMARK                         _______ _______ _______ _____ _____    ______ ____
ROOT
ATOM      1  F   UNL     1     -17.625  45.698 -16.725  0.00  0.00    +0.000 F 
ATOM      2  N   UNL     1     -18.670  44.611 -14.202  0.00  0.00    +0.000 N 
ATOM      3  N   UNL     1     -19.107  42.351 -13.735  0.00  0.00    +0.000 NA
ATOM      4  C   UNL     1     -18.862  45.874 -16.175  0.00  0.00    +0.000 C 
ATOM      5  C   UNL     1     -18.732  46.829 -14.997  0.00  0.00    +0.000 C 
ATOM      6  C   UNL     1     -19.289  44.557 -15.526  0.00  0.00    +0.000 C 
ATOM      7  C   UNL     1     -18.148  45.941 -13.899  0.00  0.00    +0.000 C 
ATOM      8  C   UNL     1     -19.799  46.359 -17.262  0.00  0.00    +0.000 C 
ATOM      9  C   UNL     1     -18.586  43.536 -13.343  0.00  0.00    +0.000 A 
ATOM     10  C   UNL     1     -17.967  43.745 -12.122  0.00  0.00    +0.000 A 
ATOM     11  C   UNL     1     -17.874  42.669 -11.246  0.00  0.00    +0.000 A 
ATOM     12  C   UNL     1     -18.998  41.328 -12.857  0.00  0.00    +0.000 A 
ATOM     13  C   UNL     1     -18.397  41.434 -11.613  0.00  0.00    +0.000 A 
ENDROOT
BRANCH  13  16
ATOM     14  O   UNL     1     -18.785  39.184 -11.038  0.00  0.00    +0.000 OA
ATOM     15  N   UNL     1     -17.714  40.479  -9.478  0.00  0.00    +0.000 N 
ATOM     16  C   UNL     1     -18.318  40.292 -10.719  0.00  0.00    +0.000 C 
ATOM     17  H   UNL     1     -17.316  41.347  -9.143  0.00  0.00    +0.000 HD
ATOM     18  H   UNL     1     -17.653  39.700  -8.831  0.00  0.00    +0.000 HD
ENDBRANCH  13  16
TORSDOF 1
ENDMDL
MODEL 5
REMARK VINA RESULT:    -5.631      6.026      7.353
REMARK INTER + INTRA:          -6.015
REMARK INTER:                  -5.964
REMARK INTRA:                  -0.051
REMARK UNBOUND:                -0.055
REMARK  Name = 171501818
REMARK  2 active torsions:
REMARK  status: ('A' for Active; 'I' for Inactive)
REMARK    1  A    between atoms: C_6  and  C_10
REMARK    2  A    between atoms: C_15  and  C_16
REMARK                            x       y       z     vdW  Elec       q    Type
REMARK                         _______ _______ _______ _____ _____    ______ ____
ROOT
ATOM      1  F   UNL     1     -18.473  42.199 -10.844  0.00  0.00    +0.000 F 
ATOM      2  N   UNL     1     -18.478  42.829 -13.715  0.00  0.00    +0.000 N 
ATOM      3  N   UNL     1     -20.320  42.698 -15.166  0.00  0.00    +0.000 NA
ATOM      4  C   UNL     1     -17.844  41.535 -11.858  0.00  0.00    +0.000 C 
ATOM      5  C   UNL     1     -16.648  42.364 -12.304  0.00  0.00    +0.000 C 
ATOM      6  C   UNL     1     -18.765  41.544 -13.078  0.00  0.00    +0.000 C 
ATOM      7  C   UNL     1     -17.289  43.463 -13.150  0.00  0.00    +0.000 C 
ATOM      8  C   UNL     1     -17.485  40.149 -11.365  0.00  0.00    +0.000 C 
ATOM      9  C   UNL     1     -19.239  43.380 -14.724  0.00  0.00    +0.000 A 
ATOM     10  C   UNL     1     -18.840  44.608 -15.224  0.00  0.00    +0.000 A 
ATOM     11  C   UNL     1     -19.598  45.175 -16.241  0.00  0.00    +0.000 A 
ATOM     12  C   UNL     1     -21.034  43.280 -16.156  0.00  0.00    +0.000 A 
ATOM     13  C   UNL     1     -20.718  44.505 -16.722  0.00  0.00    +0.000 A 
ENDROOT
BRANCH  13  16
ATOM     14  O   UNL     1     -21.961  46.236 -17.725  0.00  0.00    +0.000 OA
ATOM     15  N   UNL     1     -21.829  44.258 -18.877  0.00  0.00    +0.000 N 
ATOM     16  C   UNL     1     -21.530  45.071 -17.786  0.00  0.00    +0.000 C 
ATOM     17  H   UNL     1     -21.523  43.301 -18.998  0.00  0.00    +0.000 HD
ATOM     18  H   UNL     1     -22.401  44.625 -19.630  0.00  0.00    +0.000 HD
ENDBRANCH  13  16
TORSDOF 1
ENDMDL
