MODEL 1
REMARK VINA RESULT:    -7.916      0.000      0.000
REMARK INTER + INTRA:          -8.436
REMARK INTER:                  -8.379
REMARK INTRA:                  -0.058
REMARK UNBOUND:                -0.058
REMARK  Name = 172272034
REMARK  1 active torsions:
REMARK  status: ('A' for Active; 'I' for Inactive)
REMARK    1  A    between atoms: C_13  and  C_15
REMARK                            x       y       z     vdW  Elec       q    Type
REMARK                         _______ _______ _______ _____ _____    ______ ____
ROOT
ATOM      1  F   UNL     1     -16.015  38.984 -11.683  0.00  0.00    +0.000 F 
ATOM      2  F   UNL     1     -16.826  40.249 -13.250  0.00  0.00    +0.000 F 
ATOM      3  N   UNL     1     -18.289  40.457 -10.482  0.00  0.00    +0.000 N 
ATOM      4  N   UNL     1     -20.363  40.190  -9.368  0.00  0.00    +0.000 NA
ATOM      5  C   UNL     1     -16.976  39.895 -11.955  0.00  0.00    +0.000 C 
ATOM      6  C   UNL     1     -18.398  39.505 -11.530  0.00  0.00    +0.000 C 
ATOM      7  C   UNL     1     -17.091  41.054 -10.955  0.00  0.00    +0.000 C 
ATOM      8  C   UNL     1     -19.169  40.817  -9.452  0.00  0.00    +0.000 A 
ATOM      9  C   UNL     1     -18.749  41.805  -8.575  0.00  0.00    +0.000 A 
ATOM     10  C   UNL     1     -19.610  42.173  -7.547  0.00  0.00    +0.000 A 
ATOM     11  C   UNL     1     -20.847  41.549  -7.429  0.00  0.00    +0.000 A 
ATOM     12  C   UNL     1     -21.174  40.573  -8.357  0.00  0.00    +0.000 A 
ENDROOT
BRANCH  11  15
ATOM     13  O   UNL     1     -22.984  41.658  -6.445  0.00  0.00    +0.000 OA
ATOM     14  N   UNL     1     -21.252  42.578  -5.257  0.00  0.00    +0.000 N 
ATOM     15  C   UNL     1     -21.769  41.913  -6.367  0.00  0.00    +0.000 C 
ATOM     16  H   UNL     1     -20.281  42.827  -5.120  0.00  0.00    +0.000 HD
ATOM     17  H   UNL     1     -21.875  42.850  -4.504  0.00  0.00    +0.000 HD
ENDBRANCH  11  15
TORSDOF 1
ENDMDL
MODEL 2
REMARK VINA RESULT:    -7.676      4.204      6.179
REMARK INTER + INTRA:          -8.182
REMARK INTER:                  -8.130
REMARK INTRA:                  -0.052
REMARK UNBOUND:                -0.058
REMARK  Name = 172272034
REMARK  1 active torsions:
REMARK  status: ('A' for Active; 'I' for Inactive)
REMARK    1  A    between atoms: C_13  and  C_15
REMARK                            x       y       z     vdW  Elec       q    Type
REMARK                         _______ _______ _______ _____ _____    ______ ____
ROOT
ATOM      1  F   UNL     1     -22.592  43.043  -7.039  0.00  0.00    +0.000 F 
ATOM      2  F   UNL     1     -22.073  41.564  -5.534  0.00  0.00    +0.000 F 
ATOM      3  N   UNL     1     -20.442  41.370  -8.208  0.00  0.00    +0.000 N 
ATOM      4  N   UNL     1     -19.894  39.970 -10.040  0.00  0.00    +0.000 NA
ATOM      5  C   UNL     1     -21.781  41.991  -6.783  0.00  0.00    +0.000 C 
ATOM      6  C   UNL     1     -21.740  40.906  -7.867  0.00  0.00    +0.000 C 
ATOM      7  C   UNL     1     -20.291  42.217  -7.078  0.00  0.00    +0.000 C 
ATOM      8  C   UNL     1     -19.540  40.973  -9.206  0.00  0.00    +0.000 A 
ATOM      9  C   UNL     1     -18.331  41.645  -9.271  0.00  0.00    +0.000 A 
ATOM     10  C   UNL     1     -17.425  41.263 -10.255  0.00  0.00    +0.000 A 
ATOM     11  C   UNL     1     -17.755  40.237 -11.133  0.00  0.00    +0.000 A 
ATOM     12  C   UNL     1     -18.991  39.627 -10.984  0.00  0.00    +0.000 A 
ENDROOT
BRANCH  11  15
ATOM     13  O   UNL     1     -17.208  39.621 -13.339  0.00  0.00    +0.000 OA
ATOM     14  N   UNL     1     -15.499  39.611 -11.810  0.00  0.00    +0.000 N 
ATOM     15  C   UNL     1     -16.830  39.814 -12.170  0.00  0.00    +0.000 C 
ATOM     16  H   UNL     1     -15.114  39.740 -10.883  0.00  0.00    +0.000 HD
ATOM     17  H   UNL     1     -14.833  39.309 -12.514  0.00  0.00    +0.000 HD
ENDBRANCH  11  15
TORSDOF 1
ENDMDL
MODEL 3
REMARK VINA RESULT:    -5.787      4.953      6.080
REMARK INTER + INTRA:          -6.183
REMARK INTER:                  -6.136
REMARK INTRA:                  -0.048
REMARK UNBOUND:                -0.058
REMARK  Name = 172272034
REMARK  1 active torsions:
REMARK  status: ('A' for Active; 'I' for Inactive)
REMARK    1  A    between atoms: C_13  and  C_15
REMARK                            x       y       z     vdW  Elec       q    Type
REMARK                         _______ _______ _______ _____ _____    ______ ____
ROOT
ATOM      1  F   UNL     1     -19.305  43.893 -18.168  0.00  0.00    +0.000 F 
ATOM      2  F   UNL     1     -21.069  44.998 -17.548  0.00  0.00    +0.000 F 
ATOM      3  N   UNL     1     -19.506  43.576 -15.228  0.00  0.00    +0.000 N 
ATOM      4  N   UNL     1     -19.667  41.978 -13.485  0.00  0.00    +0.000 NA
ATOM      5  C   UNL     1     -20.051  44.234 -17.093  0.00  0.00    +0.000 C 
ATOM      6  C   UNL     1     -20.447  43.076 -16.166  0.00  0.00    +0.000 C 
ATOM      7  C   UNL     1     -19.271  44.804 -15.900  0.00  0.00    +0.000 C 
ATOM      8  C   UNL     1     -19.104  43.108 -13.969  0.00  0.00    +0.000 A 
ATOM      9  C   UNL     1     -18.143  43.844 -13.296  0.00  0.00    +0.000 A 
ATOM     10  C   UNL     1     -17.733  43.393 -12.046  0.00  0.00    +0.000 A 
ATOM     11  C   UNL     1     -18.288  42.233 -11.517  0.00  0.00    +0.000 A 
ATOM     12  C   UNL     1     -19.244  41.568 -12.269  0.00  0.00    +0.000 A 
ENDROOT
BRANCH  11  15
ATOM     13  O   UNL     1     -18.114  42.378  -9.172  0.00  0.00    +0.000 OA
ATOM     14  N   UNL     1     -17.203  40.521 -10.164  0.00  0.00    +0.000 N 
ATOM     15  C   UNL     1     -17.882  41.737 -10.214  0.00  0.00    +0.000 C 
ATOM     16  H   UNL     1     -16.971  39.944 -10.962  0.00  0.00    +0.000 HD
ATOM     17  H   UNL     1     -16.901  40.155  -9.267  0.00  0.00    +0.000 HD
ENDBRANCH  11  15
TORSDOF 1
ENDMDL
MODEL 4
REMARK VINA RESULT:    -5.514      4.818      6.059
REMARK INTER + INTRA:          -5.894
REMARK INTER:                  -5.836
REMARK INTRA:                  -0.058
REMARK UNBOUND:                -0.058
REMARK  Name = 172272034
REMARK  1 active torsions:
REMARK  status: ('A' for Active; 'I' for Inactive)
REMARK    1  A    between atoms: C_13  and  C_15
REMARK                            x       y       z     vdW  Elec       q    Type
REMARK                         _______ _______ _______ _____ _____    ______ ____
ROOT
ATOM      1  F   UNL     1     -19.578  46.897 -15.588  0.00  0.00    +0.000 F 
ATOM      2  F   UNL     1     -18.000  46.129 -16.869  0.00  0.00    +0.000 F 
ATOM      3  N   UNL     1     -18.601  44.404 -14.317  0.00  0.00    +0.000 N 
ATOM      4  N   UNL     1     -17.675  43.511 -12.327  0.00  0.00    +0.000 NA
ATOM      5  C   UNL     1     -18.684  45.891 -15.728  0.00  0.00    +0.000 C 
ATOM      6  C   UNL     1     -17.832  45.585 -14.489  0.00  0.00    +0.000 C 
ATOM      7  C   UNL     1     -19.255  44.474 -15.576  0.00  0.00    +0.000 C 
ATOM      8  C   UNL     1     -18.572  43.406 -13.334  0.00  0.00    +0.000 A 
ATOM      9  C   UNL     1     -19.476  42.364 -13.460  0.00  0.00    +0.000 A 
ATOM     10  C   UNL     1     -19.460  41.365 -12.492  0.00  0.00    +0.000 A 
ATOM     11  C   UNL     1     -18.553  41.440 -11.441  0.00  0.00    +0.000 A 
ATOM     12  C   UNL     1     -17.689  42.524 -11.404  0.00  0.00    +0.000 A 
ENDROOT
BRANCH  11  15
ATOM     13  O   UNL     1     -19.073  39.314 -10.572  0.00  0.00    +0.000 OA
ATOM     14  N   UNL     1     -17.831  40.701  -9.234  0.00  0.00    +0.000 N 
ATOM     15  C   UNL     1     -18.510  40.413 -10.416  0.00  0.00    +0.000 C 
ATOM     16  H   UNL     1     -17.353  41.570  -9.027  0.00  0.00    +0.000 HD
ATOM     17  H   UNL     1     -17.791  40.004  -8.498  0.00  0.00    +0.000 HD
ENDBRANCH  11  15
TORSDOF 1
ENDMDL
MODEL 5
REMARK VINA RESULT:    -5.492      5.417      6.993
REMARK INTER + INTRA:          -5.870
REMARK INTER:                  -5.824
REMARK INTRA:                  -0.046
REMARK UNBOUND:                -0.058
REMARK  Name = 172272034
REMARK  1 active torsions:
REMARK  status: ('A' for Active; 'I' for Inactive)
REMARK    1  A    between atoms: C_13  and  C_15
REMARK                            x       y       z     vdW  Elec       q    Type
REMARK                         _______ _______ _______ _____ _____    ______ ____
ROOT
ATOM      1  F   UNL     1     -19.253  41.307  -9.246  0.00  0.00    +0.000 F 
ATOM      2  F   UNL     1     -17.515  40.171  -9.884  0.00  0.00    +0.000 F 
ATOM      3  N   UNL     1     -18.693  42.124 -12.040  0.00  0.00    +0.000 N 
ATOM      4  N   UNL     1     -19.628  42.265 -14.213  0.00  0.00    +0.000 NA
ATOM      5  C   UNL     1     -18.416  41.094 -10.287  0.00  0.00    +0.000 C 
ATOM      6  C   UNL     1     -19.093  40.822 -11.637  0.00  0.00    +0.000 C 
ATOM      7  C   UNL     1     -17.832  42.358 -10.935  0.00  0.00    +0.000 C 
ATOM      8  C   UNL     1     -18.913  42.844 -13.222  0.00  0.00    +0.000 A 
ATOM      9  C   UNL     1     -18.375  44.118 -13.298  0.00  0.00    +0.000 A 
ATOM     10  C   UNL     1     -18.584  44.846 -14.464  0.00  0.00    +0.000 A 
ATOM     11  C   UNL     1     -19.317  44.285 -15.504  0.00  0.00    +0.000 A 
ATOM     12  C   UNL     1     -19.813  43.002 -15.330  0.00  0.00    +0.000 A 
ENDROOT
BRANCH  11  15
ATOM     13  O   UNL     1     -20.587  45.686 -16.908  0.00  0.00    +0.000 OA
ATOM     14  N   UNL     1     -18.583  44.938 -17.734  0.00  0.00    +0.000 N 
ATOM     15  C   UNL     1     -19.551  45.018 -16.735  0.00  0.00    +0.000 C 
ATOM     16  H   UNL     1     -17.719  44.414 -17.675  0.00  0.00    +0.000 HD
ATOM     17  H   UNL     1     -18.725  45.436 -18.607  0.00  0.00    +0.000 HD
ENDBRANCH  11  15
TORSDOF 1
ENDMDL
