MODEL 1
REMARK VINA RESULT:    -7.291      0.000      0.000
REMARK INTER + INTRA:          -8.900
REMARK INTER:                  -8.783
REMARK INTRA:                  -0.117
REMARK UNBOUND:                -0.117
REMARK  Name = 17856504
REMARK  4 active torsions:
REMARK  status: ('A' for Active; 'I' for Inactive)
REMARK    1  A    between atoms: N_2  and  C_6
REMARK    2  A    between atoms: N_4  and  C_7
REMARK    3  A    between atoms: C_6  and  C_7
REMARK    4  A    between atoms: C_10  and  C_13
REMARK                            x       y       z     vdW  Elec       q    Type
REMARK                         _______ _______ _______ _____ _____    ______ ____
ROOT
ATOM      1  N   UNL     1     -17.713  41.003  -9.478  0.00  0.00    +0.000 N 
ATOM      2  N   UNL     1     -18.877  42.094  -7.769  0.00  0.00    +0.000 NA
ATOM      3  C   UNL     1     -18.875  41.212  -8.794  0.00  0.00    +0.000 A 
ATOM      4  C   UNL     1     -19.990  40.497  -9.204  0.00  0.00    +0.000 A 
ATOM      5  C   UNL     1     -21.223  41.598  -7.458  0.00  0.00    +0.000 A 
ATOM      6  C   UNL     1     -21.181  40.700  -8.519  0.00  0.00    +0.000 A 
ATOM      7  C   UNL     1     -20.054  42.264  -7.126  0.00  0.00    +0.000 A 
ATOM      8  H   UNL     1     -16.904  41.532  -9.171  0.00  0.00    +0.000 HD
ENDROOT
BRANCH   5  11
ATOM      9  O   UNL     1     -23.385  41.005  -6.734  0.00  0.00    +0.000 OA
ATOM     10  N   UNL     1     -22.552  43.004  -5.978  0.00  0.00    +0.000 N 
ATOM     11  C   UNL     1     -22.453  41.830  -6.721  0.00  0.00    +0.000 C 
ATOM     12  H   UNL     1     -21.842  43.721  -5.910  0.00  0.00    +0.000 HD
ATOM     13  H   UNL     1     -23.399  43.188  -5.447  0.00  0.00    +0.000 HD
ENDBRANCH   5  11
BRANCH   1  14
ATOM     14  C   UNL     1     -17.567  40.095 -10.590  0.00  0.00    +0.000 C 
BRANCH  14  15
ATOM     15  C   UNL     1     -16.631  40.702 -11.628  0.00  0.00    +0.000 C 
BRANCH  15  16
ATOM     16  N   UNL     1     -15.242  40.464 -11.258  0.00  0.00    +0.000 NA
ATOM     17  H   UNL     1     -14.651  41.195 -11.651  0.00  0.00    +0.000 HD
ATOM     18  H   UNL     1     -14.927  39.588 -11.673  0.00  0.00    +0.000 HD
ENDBRANCH  15  16
ENDBRANCH  14  15
ENDBRANCH   1  14
TORSDOF 4
ENDMDL
MODEL 2
REMARK VINA RESULT:    -6.770      2.809      5.521
REMARK INTER + INTRA:          -8.272
REMARK INTER:                  -8.333
REMARK INTRA:                   0.062
REMARK UNBOUND:                -0.117
REMARK  Name = 17856504
REMARK  4 active torsions:
REMARK  status: ('A' for Active; 'I' for Inactive)
REMARK    1  A    between atoms: N_2  and  C_6
REMARK    2  A    between atoms: N_4  and  C_7
REMARK    3  A    between atoms: C_6  and  C_7
REMARK    4  A    between atoms: C_10  and  C_13
REMARK                            x       y       z     vdW  Elec       q    Type
REMARK                         _______ _______ _______ _____ _____    ______ ____
ROOT
ATOM      1  N   UNL     1     -19.876  42.267  -6.735  0.00  0.00    +0.000 N 
ATOM      2  N   UNL     1     -18.503  42.141  -8.622  0.00  0.00    +0.000 NA
ATOM      3  C   UNL     1     -19.551  41.663  -7.915  0.00  0.00    +0.000 A 
ATOM      4  C   UNL     1     -20.328  40.585  -8.311  0.00  0.00    +0.000 A 
ATOM      5  C   UNL     1     -18.937  40.422 -10.266  0.00  0.00    +0.000 A 
ATOM      6  C   UNL     1     -20.008  39.959  -9.510  0.00  0.00    +0.000 A 
ATOM      7  C   UNL     1     -18.223  41.506  -9.783  0.00  0.00    +0.000 A 
ATOM      8  H   UNL     1     -19.301  43.053  -6.453  0.00  0.00    +0.000 HD
ENDROOT
BRANCH   5  11
ATOM      9  O   UNL     1     -17.391  39.604 -11.844  0.00  0.00    +0.000 OA
ATOM     10  N   UNL     1     -19.614  39.378 -12.361  0.00  0.00    +0.000 N 
ATOM     11  C   UNL     1     -18.579  39.790 -11.524  0.00  0.00    +0.000 C 
ATOM     12  H   UNL     1     -20.602  39.488 -12.174  0.00  0.00    +0.000 HD
ATOM     13  H   UNL     1     -19.391  38.927 -13.243  0.00  0.00    +0.000 HD
ENDBRANCH   5  11
BRANCH   1  14
ATOM     14  C   UNL     1     -20.965  41.862  -5.879  0.00  0.00    +0.000 C 
BRANCH  14  15
ATOM     15  C   UNL     1     -22.274  42.433  -6.411  0.00  0.00    +0.000 C 
BRANCH  15  16
ATOM     16  N   UNL     1     -22.208  43.888  -6.465  0.00  0.00    +0.000 NA
ATOM     17  H   UNL     1     -21.869  44.250  -5.575  0.00  0.00    +0.000 HD
ATOM     18  H   UNL     1     -23.147  44.264  -6.588  0.00  0.00    +0.000 HD
ENDBRANCH  15  16
ENDBRANCH  14  15
ENDBRANCH   1  14
TORSDOF 4
ENDMDL
MODEL 3
REMARK VINA RESULT:    -6.607      2.776      6.158
REMARK INTER + INTRA:          -8.076
REMARK INTER:                  -7.968
REMARK INTRA:                  -0.108
REMARK UNBOUND:                -0.117
REMARK  Name = 17856504
REMARK  4 active torsions:
REMARK  status: ('A' for Active; 'I' for Inactive)
REMARK    1  A    between atoms: N_2  and  C_6
REMARK    2  A    between atoms: N_4  and  C_7
REMARK    3  A    between atoms: C_6  and  C_7
REMARK    4  A    between atoms: C_10  and  C_13
REMARK                            x       y       z     vdW  Elec       q    Type
REMARK                         _______ _______ _______ _____ _____    ______ ____
ROOT
ATOM      1  N   UNL     1     -21.027  40.869  -8.296  0.00  0.00    +0.000 N 
ATOM      2  N   UNL     1     -19.974  39.736 -10.049  0.00  0.00    +0.000 NA
ATOM      3  C   UNL     1     -19.934  40.693  -9.094  0.00  0.00    +0.000 A 
ATOM      4  C   UNL     1     -18.844  41.520  -8.869  0.00  0.00    +0.000 A 
ATOM      5  C   UNL     1     -17.726  40.380 -10.668  0.00  0.00    +0.000 A 
ATOM      6  C   UNL     1     -17.724  41.354  -9.675  0.00  0.00    +0.000 A 
ATOM      7  C   UNL     1     -18.865  39.604 -10.812  0.00  0.00    +0.000 A 
ATOM      8  H   UNL     1     -21.819  40.261  -8.470  0.00  0.00    +0.000 HD
ENDROOT
BRANCH   5  11
ATOM      9  O   UNL     1     -16.675  39.643 -12.643  0.00  0.00    +0.000 OA
ATOM     10  N   UNL     1     -15.335  40.628 -11.063  0.00  0.00    +0.000 N 
ATOM     11  C   UNL     1     -16.571  40.181 -11.525  0.00  0.00    +0.000 C 
ATOM     12  H   UNL     1     -15.167  41.077 -10.172  0.00  0.00    +0.000 HD
ATOM     13  H   UNL     1     -14.512  40.508 -11.645  0.00  0.00    +0.000 HD
ENDBRANCH   5  11
BRANCH   1  14
ATOM     14  C   UNL     1     -21.123  41.850  -7.242  0.00  0.00    +0.000 C 
BRANCH  14  15
ATOM     15  C   UNL     1     -22.582  42.031  -6.842  0.00  0.00    +0.000 C 
BRANCH  15  16
ATOM     16  N   UNL     1     -22.698  43.032  -5.789  0.00  0.00    +0.000 NA
ATOM     17  H   UNL     1     -22.136  42.754  -4.985  0.00  0.00    +0.000 HD
ATOM     18  H   UNL     1     -23.663  43.069  -5.463  0.00  0.00    +0.000 HD
ENDBRANCH  15  16
ENDBRANCH  14  15
ENDBRANCH   1  14
TORSDOF 4
ENDMDL
MODEL 4
REMARK VINA RESULT:    -5.656      1.776      2.133
REMARK INTER + INTRA:          -6.930
REMARK INTER:                  -6.779
REMARK INTRA:                  -0.150
REMARK UNBOUND:                -0.117
REMARK  Name = 17856504
REMARK  4 active torsions:
REMARK  status: ('A' for Active; 'I' for Inactive)
REMARK    1  A    between atoms: N_2  and  C_6
REMARK    2  A    between atoms: N_4  and  C_7
REMARK    3  A    between atoms: C_6  and  C_7
REMARK    4  A    between atoms: C_10  and  C_13
REMARK                            x       y       z     vdW  Elec       q    Type
REMARK                         _______ _______ _______ _____ _____    ______ ____
ROOT
ATOM      1  N   UNL     1     -18.406  39.636 -11.405  0.00  0.00    +0.000 N 
ATOM      2  N   UNL     1     -20.083  39.441  -9.789  0.00  0.00    +0.000 NA
ATOM      3  C   UNL     1     -19.051  40.140 -10.314  0.00  0.00    +0.000 A 
ATOM      4  C   UNL     1     -18.598  41.349  -9.810  0.00  0.00    +0.000 A 
ATOM      5  C   UNL     1     -20.311  41.185  -8.130  0.00  0.00    +0.000 A 
ATOM      6  C   UNL     1     -19.245  41.875  -8.698  0.00  0.00    +0.000 A 
ATOM      7  C   UNL     1     -20.688  39.984  -8.708  0.00  0.00    +0.000 A 
ATOM      8  H   UNL     1     -18.744  38.750 -11.765  0.00  0.00    +0.000 HD
ENDROOT
BRANCH   5  11
ATOM      9  O   UNL     1     -20.397  42.029  -5.932  0.00  0.00    +0.000 OA
ATOM     10  N   UNL     1     -22.390  41.860  -7.054  0.00  0.00    +0.000 N 
ATOM     11  C   UNL     1     -21.008  41.709  -6.968  0.00  0.00    +0.000 C 
ATOM     12  H   UNL     1     -22.959  41.629  -7.858  0.00  0.00    +0.000 HD
ATOM     13  H   UNL     1     -22.901  42.231  -6.259  0.00  0.00    +0.000 HD
ENDBRANCH   5  11
BRANCH   1  14
ATOM     14  C   UNL     1     -17.292  40.274 -12.065  0.00  0.00    +0.000 C 
BRANCH  14  15
ATOM     15  C   UNL     1     -15.993  39.591 -11.654  0.00  0.00    +0.000 C 
BRANCH  15  16
ATOM     16  N   UNL     1     -15.039  40.575 -11.157  0.00  0.00    +0.000 NA
ATOM     17  H   UNL     1     -14.938  40.477 -10.148  0.00  0.00    +0.000 HD
ATOM     18  H   UNL     1     -15.407  41.512 -11.318  0.00  0.00    +0.000 HD
ENDBRANCH  15  16
ENDBRANCH  14  15
ENDBRANCH   1  14
TORSDOF 4
ENDMDL
MODEL 5
REMARK VINA RESULT:    -5.182      3.813      6.531
REMARK INTER + INTRA:          -6.359
REMARK INTER:                  -6.177
REMARK INTRA:                  -0.182
REMARK UNBOUND:                -0.117
REMARK  Name = 17856504
REMARK  4 active torsions:
REMARK  status: ('A' for Active; 'I' for Inactive)
REMARK    1  A    between atoms: N_2  and  C_6
REMARK    2  A    between atoms: N_4  and  C_7
REMARK    3  A    between atoms: C_6  and  C_7
REMARK    4  A    between atoms: C_10  and  C_13
REMARK                            x       y       z     vdW  Elec       q    Type
REMARK                         _______ _______ _______ _____ _____    ______ ____
ROOT
ATOM      1  N   UNL     1     -19.754  40.687 -10.899  0.00  0.00    +0.000 N 
ATOM      2  N   UNL     1     -18.956  41.974 -12.680  0.00  0.00    +0.000 NA
ATOM      3  C   UNL     1     -18.767  41.454 -11.446  0.00  0.00    +0.000 A 
ATOM      4  C   UNL     1     -17.623  41.651 -10.688  0.00  0.00    +0.000 A 
ATOM      5  C   UNL     1     -16.766  42.983 -12.498  0.00  0.00    +0.000 A 
ATOM      6  C   UNL     1     -16.609  42.431 -11.231  0.00  0.00    +0.000 A 
ATOM      7  C   UNL     1     -17.948  42.726 -13.175  0.00  0.00    +0.000 A 
ATOM      8  H   UNL     1     -20.588  40.551 -11.460  0.00  0.00    +0.000 HD
ENDROOT
BRANCH   5  11
ATOM      9  O   UNL     1     -15.996  44.756 -13.843  0.00  0.00    +0.000 OA
ATOM     10  N   UNL     1     -14.401  43.492 -12.784  0.00  0.00    +0.000 N 
ATOM     11  C   UNL     1     -15.724  43.800 -13.094  0.00  0.00    +0.000 C 
ATOM     12  H   UNL     1     -14.097  42.738 -12.182  0.00  0.00    +0.000 HD
ATOM     13  H   UNL     1     -13.653  44.053 -13.182  0.00  0.00    +0.000 HD
ENDBRANCH   5  11
BRANCH   1  14
ATOM     14  C   UNL     1     -19.687  40.072  -9.595  0.00  0.00    +0.000 C 
BRANCH  14  15
ATOM     15  C   UNL     1     -20.621  40.801  -8.636  0.00  0.00    +0.000 C 
BRANCH  15  16
ATOM     16  N   UNL     1     -19.856  41.450  -7.579  0.00  0.00    +0.000 NA
ATOM     17  H   UNL     1     -19.825  40.849  -6.757  0.00  0.00    +0.000 HD
ATOM     18  H   UNL     1     -20.334  42.304  -7.291  0.00  0.00    +0.000 HD
ENDBRANCH  15  16
ENDBRANCH  14  15
ENDBRANCH   1  14
TORSDOF 4
ENDMDL
