MODEL 1
REMARK VINA RESULT:    -7.714      0.000      0.000
REMARK INTER + INTRA:          -9.547
REMARK INTER:                  -9.292
REMARK INTRA:                  -0.255
REMARK UNBOUND:                -0.255
REMARK  Name = 17860847
REMARK  6 active torsions:
REMARK  status: ('A' for Active; 'I' for Inactive)
REMARK    1  A    between atoms: N_2  and  C_7
REMARK    2  A    between atoms: N_3  and  C_6
REMARK    3  A    between atoms: C_6  and  C_7
REMARK    4  A    between atoms: C_6  and  C_8
REMARK    5  A    between atoms: C_6  and  C_9
REMARK    6  A    between atoms: C_13  and  C_15
REMARK                            x       y       z     vdW  Elec       q    Type
REMARK                         _______ _______ _______ _____ _____    ______ ____
ROOT
ATOM      1  N   UNL     1     -17.669  41.041  -9.298  0.00  0.00    +0.000 N 
ATOM      2  N   UNL     1     -19.030  42.098  -7.720  0.00  0.00    +0.000 NA
ATOM      3  C   UNL     1     -18.892  41.192  -8.714  0.00  0.00    +0.000 A 
ATOM      4  C   UNL     1     -19.922  40.393  -9.184  0.00  0.00    +0.000 A 
ATOM      5  C   UNL     1     -21.174  40.534  -8.597  0.00  0.00    +0.000 A 
ATOM      6  C   UNL     1     -21.356  41.456  -7.572  0.00  0.00    +0.000 A 
ATOM      7  C   UNL     1     -20.262  42.207  -7.173  0.00  0.00    +0.000 A 
ATOM      8  H   UNL     1     -16.923  41.623  -8.936  0.00  0.00    +0.000 HD
ENDROOT
BRANCH   6  11
ATOM      9  O   UNL     1     -22.881  42.581  -6.173  0.00  0.00    +0.000 OA
ATOM     10  N   UNL     1     -23.646  40.698  -7.234  0.00  0.00    +0.000 N 
ATOM     11  C   UNL     1     -22.653  41.627  -6.940  0.00  0.00    +0.000 C 
ATOM     12  H   UNL     1     -23.544  39.900  -7.849  0.00  0.00    +0.000 HD
ATOM     13  H   UNL     1     -24.564  40.797  -6.812  0.00  0.00    +0.000 HD
ENDBRANCH   6  11
BRANCH   1  14
ATOM     14  C   UNL     1     -17.391  40.109 -10.366  0.00  0.00    +0.000 C 
BRANCH  14  15
ATOM     15  C   UNL     1     -16.616  40.774 -11.522  0.00  0.00    +0.000 C 
ATOM     16  C   UNL     1     -17.014  40.183 -12.882  0.00  0.00    +0.000 C 
ATOM     17  C   UNL     1     -16.816  42.296 -11.531  0.00  0.00    +0.000 C 
BRANCH  15  18
ATOM     18  N   UNL     1     -15.185  40.513 -11.300  0.00  0.00    +0.000 NA
ATOM     19  H   UNL     1     -14.879  39.735 -11.884  0.00  0.00    +0.000 HD
ATOM     20  H   UNL     1     -15.032  40.219 -10.336  0.00  0.00    +0.000 HD
ENDBRANCH  15  18
ENDBRANCH  14  15
ENDBRANCH   1  14
TORSDOF 4
ENDMDL
MODEL 2
REMARK VINA RESULT:    -7.245      2.960      6.495
REMARK INTER + INTRA:          -8.982
REMARK INTER:                  -8.790
REMARK INTRA:                  -0.192
REMARK UNBOUND:                -0.255
REMARK  Name = 17860847
REMARK  6 active torsions:
REMARK  status: ('A' for Active; 'I' for Inactive)
REMARK    1  A    between atoms: N_2  and  C_7
REMARK    2  A    between atoms: N_3  and  C_6
REMARK    3  A    between atoms: C_6  and  C_7
REMARK    4  A    between atoms: C_6  and  C_8
REMARK    5  A    between atoms: C_6  and  C_9
REMARK    6  A    between atoms: C_13  and  C_15
REMARK                            x       y       z     vdW  Elec       q    Type
REMARK                         _______ _______ _______ _____ _____    ______ ____
ROOT
ATOM      1  N   UNL     1     -20.588  41.129  -8.384  0.00  0.00    +0.000 N 
ATOM      2  N   UNL     1     -19.874  39.799 -10.168  0.00  0.00    +0.000 NA
ATOM      3  C   UNL     1     -19.640  40.820  -9.314  0.00  0.00    +0.000 A 
ATOM      4  C   UNL     1     -18.483  41.584  -9.317  0.00  0.00    +0.000 A 
ATOM      5  C   UNL     1     -17.506  41.281 -10.258  0.00  0.00    +0.000 A 
ATOM      6  C   UNL     1     -17.711  40.236 -11.153  0.00  0.00    +0.000 A 
ATOM      7  C   UNL     1     -18.901  39.533 -11.067  0.00  0.00    +0.000 A 
ATOM      8  H   UNL     1     -21.423  40.555  -8.386  0.00  0.00    +0.000 HD
ENDROOT
BRANCH   6  11
ATOM      9  O   UNL     1     -17.003  39.776 -13.352  0.00  0.00    +0.000 OA
ATOM     10  N   UNL     1     -15.397  39.724 -11.716  0.00  0.00    +0.000 N 
ATOM     11  C   UNL     1     -16.709  39.896 -12.149  0.00  0.00    +0.000 C 
ATOM     12  H   UNL     1     -15.076  39.809 -10.760  0.00  0.00    +0.000 HD
ATOM     13  H   UNL     1     -14.675  39.492 -12.391  0.00  0.00    +0.000 HD
ENDBRANCH   6  11
BRANCH   1  14
ATOM     14  C   UNL     1     -20.459  42.194  -7.416  0.00  0.00    +0.000 C 
BRANCH  14  15
ATOM     15  C   UNL     1     -21.703  42.303  -6.512  0.00  0.00    +0.000 C 
ATOM     16  C   UNL     1     -22.842  41.401  -7.007  0.00  0.00    +0.000 C 
ATOM     17  C   UNL     1     -21.367  41.972  -5.051  0.00  0.00    +0.000 C 
BRANCH  15  18
ATOM     18  N   UNL     1     -22.160  43.701  -6.558  0.00  0.00    +0.000 NA
ATOM     19  H   UNL     1     -23.032  43.764  -7.084  0.00  0.00    +0.000 HD
ATOM     20  H   UNL     1     -21.483  44.270  -7.067  0.00  0.00    +0.000 HD
ENDBRANCH  15  18
ENDBRANCH  14  15
ENDBRANCH   1  14
TORSDOF 4
ENDMDL
MODEL 3
REMARK VINA RESULT:    -6.075      4.811      5.987
REMARK INTER + INTRA:          -7.574
REMARK INTER:                  -7.364
REMARK INTRA:                  -0.209
REMARK UNBOUND:                -0.255
REMARK  Name = 17860847
REMARK  6 active torsions:
REMARK  status: ('A' for Active; 'I' for Inactive)
REMARK    1  A    between atoms: N_2  and  C_7
REMARK    2  A    between atoms: N_3  and  C_6
REMARK    3  A    between atoms: C_6  and  C_7
REMARK    4  A    between atoms: C_6  and  C_8
REMARK    5  A    between atoms: C_6  and  C_9
REMARK    6  A    between atoms: C_13  and  C_15
REMARK                            x       y       z     vdW  Elec       q    Type
REMARK                         _______ _______ _______ _____ _____    ______ ____
ROOT
ATOM      1  N   UNL     1     -19.745  42.378 -14.807  0.00  0.00    +0.000 N 
ATOM      2  N   UNL     1     -19.735  41.090 -12.857  0.00  0.00    +0.000 NA
ATOM      3  C   UNL     1     -19.349  42.207 -13.513  0.00  0.00    +0.000 A 
ATOM      4  C   UNL     1     -18.571  43.207 -12.951  0.00  0.00    +0.000 A 
ATOM      5  C   UNL     1     -18.162  43.049 -11.633  0.00  0.00    +0.000 A 
ATOM      6  C   UNL     1     -18.538  41.912 -10.924  0.00  0.00    +0.000 A 
ATOM      7  C   UNL     1     -19.318  40.971 -11.577  0.00  0.00    +0.000 A 
ATOM      8  H   UNL     1     -20.323  41.645 -15.201  0.00  0.00    +0.000 HD
ENDROOT
BRANCH   6  11
ATOM      9  O   UNL     1     -18.046  42.671  -8.750  0.00  0.00    +0.000 OA
ATOM     10  N   UNL     1     -17.837  40.420  -9.132  0.00  0.00    +0.000 N 
ATOM     11  C   UNL     1     -18.125  41.717  -9.546  0.00  0.00    +0.000 C 
ATOM     12  H   UNL     1     -17.882  39.592  -9.713  0.00  0.00    +0.000 HD
ATOM     13  H   UNL     1     -17.552  40.253  -8.172  0.00  0.00    +0.000 HD
ENDBRANCH   6  11
BRANCH   1  14
ATOM     14  C   UNL     1     -19.402  43.525 -15.615  0.00  0.00    +0.000 C 
BRANCH  14  15
ATOM     15  C   UNL     1     -20.349  43.683 -16.821  0.00  0.00    +0.000 C 
ATOM     16  C   UNL     1     -21.816  43.478 -16.417  0.00  0.00    +0.000 C 
ATOM     17  C   UNL     1     -20.176  45.051 -17.497  0.00  0.00    +0.000 C 
BRANCH  15  18
ATOM     18  N   UNL     1     -19.986  42.650 -17.805  0.00  0.00    +0.000 NA
ATOM     19  H   UNL     1     -20.048  43.033 -18.748  0.00  0.00    +0.000 HD
ATOM     20  H   UNL     1     -20.659  41.884 -17.767  0.00  0.00    +0.000 HD
ENDBRANCH  15  18
ENDBRANCH  14  15
ENDBRANCH   1  14
TORSDOF 4
ENDMDL
MODEL 4
REMARK VINA RESULT:    -5.815      2.950      6.002
REMARK INTER + INTRA:          -7.260
REMARK INTER:                  -7.127
REMARK INTRA:                  -0.133
REMARK UNBOUND:                -0.255
REMARK  Name = 17860847
REMARK  6 active torsions:
REMARK  status: ('A' for Active; 'I' for Inactive)
REMARK    1  A    between atoms: N_2  and  C_7
REMARK    2  A    between atoms: N_3  and  C_6
REMARK    3  A    between atoms: C_6  and  C_7
REMARK    4  A    between atoms: C_6  and  C_8
REMARK    5  A    between atoms: C_6  and  C_9
REMARK    6  A    between atoms: C_13  and  C_15
REMARK                            x       y       z     vdW  Elec       q    Type
REMARK                         _______ _______ _______ _____ _____    ______ ____
ROOT
ATOM      1  N   UNL     1     -19.697  42.272  -6.814  0.00  0.00    +0.000 N 
ATOM      2  N   UNL     1     -18.424  42.204  -8.772  0.00  0.00    +0.000 NA
ATOM      3  C   UNL     1     -19.389  41.665  -7.995  0.00  0.00    +0.000 A 
ATOM      4  C   UNL     1     -20.100  40.521  -8.324  0.00  0.00    +0.000 A 
ATOM      5  C   UNL     1     -19.801  39.891  -9.526  0.00  0.00    +0.000 A 
ATOM      6  C   UNL     1     -18.813  40.417 -10.353  0.00  0.00    +0.000 A 
ATOM      7  C   UNL     1     -18.160  41.565  -9.934  0.00  0.00    +0.000 A 
ATOM      8  H   UNL     1     -19.177  43.113  -6.592  0.00  0.00    +0.000 HD
ENDROOT
BRANCH   6  11
ATOM      9  O   UNL     1     -17.293  39.582 -11.946  0.00  0.00    +0.000 OA
ATOM     10  N   UNL     1     -19.523  39.379 -12.439  0.00  0.00    +0.000 N 
ATOM     11  C   UNL     1     -18.475  39.781 -11.614  0.00  0.00    +0.000 C 
ATOM     12  H   UNL     1     -20.508  39.499 -12.241  0.00  0.00    +0.000 HD
ATOM     13  H   UNL     1     -19.316  38.926 -13.324  0.00  0.00    +0.000 HD
ENDBRANCH   6  11
BRANCH   1  14
ATOM     14  C   UNL     1     -20.707  41.798  -5.897  0.00  0.00    +0.000 C 
BRANCH  14  15
ATOM     15  C   UNL     1     -22.068  42.483  -6.135  0.00  0.00    +0.000 C 
ATOM     16  C   UNL     1     -21.904  43.826  -6.861  0.00  0.00    +0.000 C 
ATOM     17  C   UNL     1     -23.025  41.574  -6.918  0.00  0.00    +0.000 C 
BRANCH  15  18
ATOM     18  N   UNL     1     -22.670  42.735  -4.816  0.00  0.00    +0.000 NA
ATOM     19  H   UNL     1     -21.939  42.813  -4.110  0.00  0.00    +0.000 HD
ATOM     20  H   UNL     1     -23.244  41.938  -4.540  0.00  0.00    +0.000 HD
ENDBRANCH  15  18
ENDBRANCH  14  15
ENDBRANCH   1  14
TORSDOF 4
ENDMDL
MODEL 5
REMARK VINA RESULT:    -5.433      5.484      7.200
REMARK INTER + INTRA:          -6.799
REMARK INTER:                  -6.592
REMARK INTRA:                  -0.208
REMARK UNBOUND:                -0.255
REMARK  Name = 17860847
REMARK  6 active torsions:
REMARK  status: ('A' for Active; 'I' for Inactive)
REMARK    1  A    between atoms: N_2  and  C_7
REMARK    2  A    between atoms: N_3  and  C_6
REMARK    3  A    between atoms: C_6  and  C_7
REMARK    4  A    between atoms: C_6  and  C_8
REMARK    5  A    between atoms: C_6  and  C_9
REMARK    6  A    between atoms: C_13  and  C_15
REMARK                            x       y       z     vdW  Elec       q    Type
REMARK                         _______ _______ _______ _____ _____    ______ ____
ROOT
ATOM      1  N   UNL     1     -19.650  41.435 -13.206  0.00  0.00    +0.000 N 
ATOM      2  N   UNL     1     -19.925  42.638 -15.189  0.00  0.00    +0.000 NA
ATOM      3  C   UNL     1     -19.452  42.576 -13.925  0.00  0.00    +0.000 A 
ATOM      4  C   UNL     1     -18.768  43.608 -13.301  0.00  0.00    +0.000 A 
ATOM      5  C   UNL     1     -18.556  44.777 -14.021  0.00  0.00    +0.000 A 
ATOM      6  C   UNL     1     -19.027  44.879 -15.326  0.00  0.00    +0.000 A 
ATOM      7  C   UNL     1     -19.699  43.791 -15.859  0.00  0.00    +0.000 A 
ATOM      8  H   UNL     1     -20.142  40.685 -13.678  0.00  0.00    +0.000 HD
ENDROOT
BRANCH   6  11
ATOM      9  O   UNL     1     -17.895  46.182 -16.928  0.00  0.00    +0.000 OA
ATOM     10  N   UNL     1     -19.714  47.140 -15.914  0.00  0.00    +0.000 N 
ATOM     11  C   UNL     1     -18.823  46.088 -16.104  0.00  0.00    +0.000 C 
ATOM     12  H   UNL     1     -20.495  47.142 -15.270  0.00  0.00    +0.000 HD
ATOM     13  H   UNL     1     -19.599  47.995 -16.449  0.00  0.00    +0.000 HD
ENDBRANCH   6  11
BRANCH   1  14
ATOM     14  C   UNL     1     -19.195  41.242 -11.848  0.00  0.00    +0.000 C 
BRANCH  14  15
ATOM     15  C   UNL     1     -18.111  40.149 -11.755  0.00  0.00    +0.000 C 
ATOM     16  C   UNL     1     -17.417  39.925 -13.106  0.00  0.00    +0.000 C 
ATOM     17  C   UNL     1     -17.068  40.482 -10.678  0.00  0.00    +0.000 C 
BRANCH  15  18
ATOM     18  N   UNL     1     -18.778  38.900 -11.358  0.00  0.00    +0.000 NA
ATOM     19  H   UNL     1     -18.402  38.572 -10.468  0.00  0.00    +0.000 HD
ATOM     20  H   UNL     1     -18.572  38.167 -12.037  0.00  0.00    +0.000 HD
ENDBRANCH  15  18
ENDBRANCH  14  15
ENDBRANCH   1  14
TORSDOF 4
ENDMDL
