MODEL 1
REMARK VINA RESULT:    -7.413      0.000      0.000
REMARK INTER + INTRA:          -7.901
REMARK INTER:                  -7.846
REMARK INTRA:                  -0.055
REMARK UNBOUND:                -0.055
REMARK  Name = 17893016
REMARK  1 active torsions:
REMARK  status: ('A' for Active; 'I' for Inactive)
REMARK    1  A    between atoms: C_9  and  C_14
REMARK                            x       y       z     vdW  Elec       q    Type
REMARK                         _______ _______ _______ _____ _____    ______ ____
ROOT
ATOM      1  N   UNL     1     -20.557  41.274  -8.062  0.00  0.00    +0.000 N 
ATOM      2  N   UNL     1     -20.043  40.024  -9.978  0.00  0.00    +0.000 NA
ATOM      3  C   UNL     1     -19.647  40.919  -9.046  0.00  0.00    +0.000 A 
ATOM      4  C   UNL     1     -18.390  41.501  -9.014  0.00  0.00    +0.000 A 
ATOM      5  C   UNL     1     -20.315  42.163  -7.047  0.00  0.00    +0.000 A 
ATOM      6  C   UNL     1     -21.836  40.793  -7.957  0.00  0.00    +0.000 A 
ATOM      7  C   UNL     1     -17.851  40.223 -10.980  0.00  0.00    +0.000 A 
ATOM      8  C   UNL     1     -17.481  41.141 -10.003  0.00  0.00    +0.000 A 
ATOM      9  C   UNL     1     -21.457  42.249  -6.281  0.00  0.00    +0.000 A 
ATOM     10  C   UNL     1     -22.419  41.383  -6.858  0.00  0.00    +0.000 A 
ATOM     11  C   UNL     1     -19.132  39.698 -10.923  0.00  0.00    +0.000 A 
ENDROOT
BRANCH   7  14
ATOM     12  O   UNL     1     -17.268  39.693 -13.208  0.00  0.00    +0.000 OA
ATOM     13  N   UNL     1     -15.604  39.623 -11.652  0.00  0.00    +0.000 N 
ATOM     14  C   UNL     1     -16.926  39.828 -12.025  0.00  0.00    +0.000 C 
ATOM     15  H   UNL     1     -15.229  39.714 -10.717  0.00  0.00    +0.000 HD
ATOM     16  H   UNL     1     -14.925  39.354 -12.357  0.00  0.00    +0.000 HD
ENDBRANCH   7  14
TORSDOF 1
ENDMDL
MODEL 2
REMARK VINA RESULT:    -7.180      2.767      5.899
REMARK INTER + INTRA:          -7.655
REMARK INTER:                  -7.597
REMARK INTRA:                  -0.058
REMARK UNBOUND:                -0.055
REMARK  Name = 17893016
REMARK  1 active torsions:
REMARK  status: ('A' for Active; 'I' for Inactive)
REMARK    1  A    between atoms: C_9  and  C_14
REMARK                            x       y       z     vdW  Elec       q    Type
REMARK                         _______ _______ _______ _____ _____    ______ ____
ROOT
ATOM      1  N   UNL     1     -18.083  40.660 -10.311  0.00  0.00    +0.000 N 
ATOM      2  N   UNL     1     -18.700  41.956  -8.457  0.00  0.00    +0.000 NA
ATOM      3  C   UNL     1     -19.021  40.989  -9.346  0.00  0.00    +0.000 A 
ATOM      4  C   UNL     1     -20.228  40.308  -9.349  0.00  0.00    +0.000 A 
ATOM      5  C   UNL     1     -18.249  39.706 -11.282  0.00  0.00    +0.000 A 
ATOM      6  C   UNL     1     -16.848  41.240 -10.444  0.00  0.00    +0.000 A 
ATOM      7  C   UNL     1     -20.872  41.632  -7.446  0.00  0.00    +0.000 A 
ATOM      8  C   UNL     1     -21.166  40.642  -8.378  0.00  0.00    +0.000 A 
ATOM      9  C   UNL     1     -17.103  39.676 -12.045  0.00  0.00    +0.000 A 
ATOM     10  C   UNL     1     -16.217  40.647 -11.515  0.00  0.00    +0.000 A 
ATOM     11  C   UNL     1     -19.636  42.252  -7.528  0.00  0.00    +0.000 A 
ENDROOT
BRANCH   7  14
ATOM     12  O   UNL     1     -23.034  41.720  -6.495  0.00  0.00    +0.000 OA
ATOM     13  N   UNL     1     -21.338  42.682  -5.314  0.00  0.00    +0.000 N 
ATOM     14  C   UNL     1     -21.830  42.003  -6.421  0.00  0.00    +0.000 C 
ATOM     15  H   UNL     1     -20.375  42.951  -5.162  0.00  0.00    +0.000 HD
ATOM     16  H   UNL     1     -21.976  42.951  -4.572  0.00  0.00    +0.000 HD
ENDBRANCH   7  14
TORSDOF 1
ENDMDL
MODEL 3
REMARK VINA RESULT:    -5.791      4.640      6.134
REMARK INTER + INTRA:          -6.184
REMARK INTER:                  -6.124
REMARK INTRA:                  -0.060
REMARK UNBOUND:                -0.055
REMARK  Name = 17893016
REMARK  1 active torsions:
REMARK  status: ('A' for Active; 'I' for Inactive)
REMARK    1  A    between atoms: C_9  and  C_14
REMARK                            x       y       z     vdW  Elec       q    Type
REMARK                         _______ _______ _______ _____ _____    ______ ____
ROOT
ATOM      1  N   UNL     1     -18.979  44.069 -14.600  0.00  0.00    +0.000 N 
ATOM      2  N   UNL     1     -19.549  42.007 -13.639  0.00  0.00    +0.000 NA
ATOM      3  C   UNL     1     -18.875  43.176 -13.545  0.00  0.00    +0.000 A 
ATOM      4  C   UNL     1     -18.090  43.533 -12.461  0.00  0.00    +0.000 A 
ATOM      5  C   UNL     1     -18.364  45.292 -14.662  0.00  0.00    +0.000 A 
ATOM      6  C   UNL     1     -19.711  43.864 -15.741  0.00  0.00    +0.000 A 
ATOM      7  C   UNL     1     -18.668  41.420 -11.466  0.00  0.00    +0.000 A 
ATOM      8  C   UNL     1     -17.989  42.633 -11.405  0.00  0.00    +0.000 A 
ATOM      9  C   UNL     1     -18.709  45.877 -15.861  0.00  0.00    +0.000 A 
ATOM     10  C   UNL     1     -19.561  44.973 -16.543  0.00  0.00    +0.000 A 
ATOM     11  C   UNL     1     -19.428  41.158 -12.594  0.00  0.00    +0.000 A 
ENDROOT
BRANCH   7  14
ATOM     12  O   UNL     1     -19.256  39.422 -10.349  0.00  0.00    +0.000 OA
ATOM     13  N   UNL     1     -17.678  40.738  -9.363  0.00  0.00    +0.000 N 
ATOM     14  C   UNL     1     -18.582  40.461 -10.381  0.00  0.00    +0.000 C 
ATOM     15  H   UNL     1     -17.082  41.554  -9.304  0.00  0.00    +0.000 HD
ATOM     16  H   UNL     1     -17.584  40.087  -8.591  0.00  0.00    +0.000 HD
ENDBRANCH   7  14
TORSDOF 1
ENDMDL
MODEL 4
REMARK VINA RESULT:    -5.426      2.813      3.491
REMARK INTER + INTRA:          -5.798
REMARK INTER:                  -5.751
REMARK INTRA:                  -0.047
REMARK UNBOUND:                -0.055
REMARK  Name = 17893016
REMARK  1 active torsions:
REMARK  status: ('A' for Active; 'I' for Inactive)
REMARK    1  A    between atoms: C_9  and  C_14
REMARK                            x       y       z     vdW  Elec       q    Type
REMARK                         _______ _______ _______ _____ _____    ______ ____
ROOT
ATOM      1  N   UNL     1     -19.109  41.230  -9.568  0.00  0.00    +0.000 N 
ATOM      2  N   UNL     1     -17.619  42.987 -10.010  0.00  0.00    +0.000 NA
ATOM      3  C   UNL     1     -18.224  41.854 -10.434  0.00  0.00    +0.000 A 
ATOM      4  C   UNL     1     -18.015  41.282 -11.679  0.00  0.00    +0.000 A 
ATOM      5  C   UNL     1     -19.803  40.080  -9.842  0.00  0.00    +0.000 A 
ATOM      6  C   UNL     1     -19.421  41.666  -8.307  0.00  0.00    +0.000 A 
ATOM      7  C   UNL     1     -16.484  43.079 -12.143  0.00  0.00    +0.000 A 
ATOM      8  C   UNL     1     -17.126  41.912 -12.543  0.00  0.00    +0.000 A 
ATOM      9  C   UNL     1     -20.571  39.779  -8.739  0.00  0.00    +0.000 A 
ATOM     10  C   UNL     1     -20.329  40.782  -7.768  0.00  0.00    +0.000 A 
ATOM     11  C   UNL     1     -16.763  43.571 -10.878  0.00  0.00    +0.000 A 
ENDROOT
BRANCH   7  14
ATOM     12  O   UNL     1     -15.914  44.566 -13.890  0.00  0.00    +0.000 OA
ATOM     13  N   UNL     1     -14.201  43.489 -12.841  0.00  0.00    +0.000 N 
ATOM     14  C   UNL     1     -15.551  43.759 -13.022  0.00  0.00    +0.000 C 
ATOM     15  H   UNL     1     -13.809  42.853 -12.158  0.00  0.00    +0.000 HD
ATOM     16  H   UNL     1     -13.518  43.951 -13.431  0.00  0.00    +0.000 HD
ENDBRANCH   7  14
TORSDOF 1
ENDMDL
MODEL 5
REMARK VINA RESULT:    -5.228      4.397      6.093
REMARK INTER + INTRA:          -5.588
REMARK INTER:                  -5.540
REMARK INTRA:                  -0.048
REMARK UNBOUND:                -0.055
REMARK  Name = 17893016
REMARK  1 active torsions:
REMARK  status: ('A' for Active; 'I' for Inactive)
REMARK    1  A    between atoms: C_9  and  C_14
REMARK                            x       y       z     vdW  Elec       q    Type
REMARK                         _______ _______ _______ _____ _____    ______ ____
ROOT
ATOM      1  N   UNL     1     -17.983  44.878 -13.324  0.00  0.00    +0.000 N 
ATOM      2  N   UNL     1     -17.744  43.388 -11.529  0.00  0.00    +0.000 NA
ATOM      3  C   UNL     1     -18.312  43.674 -12.722  0.00  0.00    +0.000 A 
ATOM      4  C   UNL     1     -19.201  42.837 -13.378  0.00  0.00    +0.000 A 
ATOM      5  C   UNL     1     -18.467  45.318 -14.528  0.00  0.00    +0.000 A 
ATOM      6  C   UNL     1     -17.125  45.813 -12.805  0.00  0.00    +0.000 A 
ATOM      7  C   UNL     1     -18.964  41.301 -11.542  0.00  0.00    +0.000 A 
ATOM      8  C   UNL     1     -19.528  41.630 -12.770  0.00  0.00    +0.000 A 
ATOM      9  C   UNL     1     -17.909  46.551 -14.782  0.00  0.00    +0.000 A 
ATOM     10  C   UNL     1     -17.061  46.865 -13.691  0.00  0.00    +0.000 A 
ATOM     11  C   UNL     1     -18.085  42.206 -10.969  0.00  0.00    +0.000 A 
ENDROOT
BRANCH   7  14
ATOM     12  O   UNL     1     -18.840  38.957 -11.262  0.00  0.00    +0.000 OA
ATOM     13  N   UNL     1     -20.111  40.117  -9.768  0.00  0.00    +0.000 N 
ATOM     14  C   UNL     1     -19.285  40.049 -10.882  0.00  0.00    +0.000 C 
ATOM     15  H   UNL     1     -20.517  40.959  -9.380  0.00  0.00    +0.000 HD
ATOM     16  H   UNL     1     -20.352  39.264  -9.275  0.00  0.00    +0.000 HD
ENDBRANCH   7  14
TORSDOF 1
ENDMDL
