MODEL 1
REMARK VINA RESULT:    -6.088      0.000      0.000
REMARK INTER + INTRA:          -6.460
REMARK INTER:                  -6.444
REMARK INTRA:                  -0.016
REMARK UNBOUND:                -0.016
REMARK  Name = 18404634
REMARK  1 active torsions:
REMARK  status: ('A' for Active; 'I' for Inactive)
REMARK    1  A    between atoms: C_4  and  C_9
REMARK                            x       y       z     vdW  Elec       q    Type
REMARK                         _______ _______ _______ _____ _____    ______ ____
ROOT
ATOM      1  N   UNL     1     -19.060  41.923  -7.579  0.00  0.00    +0.000 NA
ATOM      2  N   UNL     1     -17.712  40.526  -8.961  0.00  0.00    +0.000 N 
ATOM      3  C   UNL     1     -21.444  41.541  -7.468  0.00  0.00    +0.000 A 
ATOM      4  C   UNL     1     -21.323  40.480  -8.358  0.00  0.00    +0.000 A 
ATOM      5  C   UNL     1     -20.071  40.139  -8.858  0.00  0.00    +0.000 A 
ATOM      6  C   UNL     1     -18.980  40.885  -8.442  0.00  0.00    +0.000 A 
ATOM      7  C   UNL     1     -20.292  42.225  -7.113  0.00  0.00    +0.000 A 
ATOM      8  H   UNL     1     -17.557  39.563  -9.231  0.00  0.00    +0.000 HD
ATOM      9  H   UNL     1     -16.918  41.070  -8.649  0.00  0.00    +0.000 HD
ENDROOT
BRANCH   3  11
ATOM     10  O   UNL     1     -22.895  42.714  -6.000  0.00  0.00    +0.000 OA
ATOM     11  C   UNL     1     -22.736  41.922  -6.926  0.00  0.00    +0.000 C 
ENDBRANCH   3  11
TORSDOF 1
ENDMDL
MODEL 2
REMARK VINA RESULT:    -5.455      2.804      3.899
REMARK INTER + INTRA:          -5.790
REMARK INTER:                  -5.772
REMARK INTRA:                  -0.018
REMARK UNBOUND:                -0.016
REMARK  Name = 18404634
REMARK  1 active torsions:
REMARK  status: ('A' for Active; 'I' for Inactive)
REMARK    1  A    between atoms: C_4  and  C_9
REMARK                            x       y       z     vdW  Elec       q    Type
REMARK                         _______ _______ _______ _____ _____    ______ ____
ROOT
ATOM      1  N   UNL     1     -18.774  42.223  -7.936  0.00  0.00    +0.000 NA
ATOM      2  N   UNL     1     -20.430  42.589  -6.262  0.00  0.00    +0.000 N 
ATOM      3  C   UNL     1     -19.158  40.554  -9.642  0.00  0.00    +0.000 A 
ATOM      4  C   UNL     1     -20.393  40.253  -9.080  0.00  0.00    +0.000 A 
ATOM      5  C   UNL     1     -20.820  40.936  -7.946  0.00  0.00    +0.000 A 
ATOM      6  C   UNL     1     -19.981  41.903  -7.417  0.00  0.00    +0.000 A 
ATOM      7  C   UNL     1     -18.393  41.539  -9.037  0.00  0.00    +0.000 A 
ATOM      8  H   UNL     1     -21.426  42.691  -6.118  0.00  0.00    +0.000 HD
ATOM      9  H   UNL     1     -19.815  43.299  -5.882  0.00  0.00    +0.000 HD
ENDROOT
BRANCH   3  11
ATOM     10  O   UNL     1     -19.218  38.863 -11.306  0.00  0.00    +0.000 OA
ATOM     11  C   UNL     1     -18.685  39.860 -10.826  0.00  0.00    +0.000 C 
ENDBRANCH   3  11
TORSDOF 1
ENDMDL
MODEL 3
REMARK VINA RESULT:    -5.326      3.030      3.950
REMARK INTER + INTRA:          -5.653
REMARK INTER:                  -5.635
REMARK INTRA:                  -0.018
REMARK UNBOUND:                -0.016
REMARK  Name = 18404634
REMARK  1 active torsions:
REMARK  status: ('A' for Active; 'I' for Inactive)
REMARK    1  A    between atoms: C_4  and  C_9
REMARK                            x       y       z     vdW  Elec       q    Type
REMARK                         _______ _______ _______ _____ _____    ______ ____
ROOT
ATOM      1  N   UNL     1     -22.354  41.562  -6.983  0.00  0.00    +0.000 NA
ATOM      2  N   UNL     1     -21.908  43.100  -5.217  0.00  0.00    +0.000 N 
ATOM      3  C   UNL     1     -20.529  40.758  -8.347  0.00  0.00    +0.000 A 
ATOM      4  C   UNL     1     -19.632  41.523  -7.612  0.00  0.00    +0.000 A 
ATOM      5  C   UNL     1     -20.094  42.308  -6.562  0.00  0.00    +0.000 A 
ATOM      6  C   UNL     1     -21.453  42.294  -6.290  0.00  0.00    +0.000 A 
ATOM      7  C   UNL     1     -21.868  40.811  -7.995  0.00  0.00    +0.000 A 
ATOM      8  H   UNL     1     -21.270  43.294  -4.456  0.00  0.00    +0.000 HD
ATOM      9  H   UNL     1     -22.901  43.081  -5.019  0.00  0.00    +0.000 HD
ENDROOT
BRANCH   3  11
ATOM     10  O   UNL     1     -18.908  39.831  -9.813  0.00  0.00    +0.000 OA
ATOM     11  C   UNL     1     -20.078  39.926  -9.449  0.00  0.00    +0.000 C 
ENDBRANCH   3  11
TORSDOF 1
ENDMDL
MODEL 4
REMARK VINA RESULT:    -4.864      1.883      2.680
REMARK INTER + INTRA:          -5.164
REMARK INTER:                  -5.151
REMARK INTRA:                  -0.013
REMARK UNBOUND:                -0.016
REMARK  Name = 18404634
REMARK  1 active torsions:
REMARK  status: ('A' for Active; 'I' for Inactive)
REMARK    1  A    between atoms: C_4  and  C_9
REMARK                            x       y       z     vdW  Elec       q    Type
REMARK                         _______ _______ _______ _____ _____    ______ ____
ROOT
ATOM      1  N   UNL     1     -19.629  39.519 -10.053  0.00  0.00    +0.000 NA
ATOM      2  N   UNL     1     -17.864  39.492 -11.653  0.00  0.00    +0.000 N 
ATOM      3  C   UNL     1     -19.655  41.226  -8.342  0.00  0.00    +0.000 A 
ATOM      4  C   UNL     1     -18.481  41.767  -8.853  0.00  0.00    +0.000 A 
ATOM      5  C   UNL     1     -17.881  41.186  -9.964  0.00  0.00    +0.000 A 
ATOM      6  C   UNL     1     -18.489  40.073 -10.522  0.00  0.00    +0.000 A 
ATOM      7  C   UNL     1     -20.184  40.112  -8.973  0.00  0.00    +0.000 A 
ATOM      8  H   UNL     1     -17.309  40.086 -12.256  0.00  0.00    +0.000 HD
ATOM      9  H   UNL     1     -18.315  38.682 -12.061  0.00  0.00    +0.000 HD
ENDROOT
BRANCH   3  11
ATOM     10  O   UNL     1     -21.405  42.365  -7.211  0.00  0.00    +0.000 OA
ATOM     11  C   UNL     1     -20.308  41.811  -7.184  0.00  0.00    +0.000 C 
ENDBRANCH   3  11
TORSDOF 1
ENDMDL
MODEL 5
REMARK VINA RESULT:    -4.395      3.939      5.029
REMARK INTER + INTRA:          -4.668
REMARK INTER:                  -4.654
REMARK INTRA:                  -0.015
REMARK UNBOUND:                -0.016
REMARK  Name = 18404634
REMARK  1 active torsions:
REMARK  status: ('A' for Active; 'I' for Inactive)
REMARK    1  A    between atoms: C_4  and  C_9
REMARK                            x       y       z     vdW  Elec       q    Type
REMARK                         _______ _______ _______ _____ _____    ______ ____
ROOT
ATOM      1  N   UNL     1     -19.408  39.972 -10.176  0.00  0.00    +0.000 NA
ATOM      2  N   UNL     1     -19.004  40.302  -7.851  0.00  0.00    +0.000 N 
ATOM      3  C   UNL     1     -18.515  41.551 -11.773  0.00  0.00    +0.000 A 
ATOM      4  C   UNL     1     -17.952  42.290 -10.739  0.00  0.00    +0.000 A 
ATOM      5  C   UNL     1     -18.115  41.870  -9.423  0.00  0.00    +0.000 A 
ATOM      6  C   UNL     1     -18.846  40.715  -9.197  0.00  0.00    +0.000 A 
ATOM      7  C   UNL     1     -19.227  40.410 -11.441  0.00  0.00    +0.000 A 
ATOM      8  H   UNL     1     -18.287  40.553  -7.182  0.00  0.00    +0.000 HD
ATOM      9  H   UNL     1     -19.533  39.454  -7.690  0.00  0.00    +0.000 HD
ENDROOT
BRANCH   3  11
ATOM     10  O   UNL     1     -19.263  41.942 -13.992  0.00  0.00    +0.000 OA
ATOM     11  C   UNL     1     -18.361  41.961 -13.158  0.00  0.00    +0.000 C 
ENDBRANCH   3  11
TORSDOF 1
ENDMDL
