MODEL 1
REMARK VINA RESULT:    -5.935      0.000      0.000
REMARK INTER + INTRA:          -6.302
REMARK INTER:                  -6.282
REMARK INTRA:                  -0.019
REMARK UNBOUND:                -0.019
REMARK  Name = 18416298
REMARK  2 active torsions:
REMARK  status: ('A' for Active; 'I' for Inactive)
REMARK    1  A    between atoms: N_2  and  C_9
REMARK    2  A    between atoms: C_6  and  C_10
REMARK                            x       y       z     vdW  Elec       q    Type
REMARK                         _______ _______ _______ _____ _____    ______ ____
ROOT
ATOM      1  N   UNL     1     -17.734  40.889  -9.743  0.00  0.00    +0.000 N 
ATOM      2  N   UNL     1     -20.018  40.364  -9.316  0.00  0.00    +0.000 NA
ATOM      3  C   UNL     1     -18.917  41.077  -8.987  0.00  0.00    +0.000 A 
ATOM      4  C   UNL     1     -18.866  41.992  -7.948  0.00  0.00    +0.000 A 
ATOM      5  C   UNL     1     -21.173  41.474  -7.505  0.00  0.00    +0.000 A 
ATOM      6  C   UNL     1     -20.021  42.188  -7.197  0.00  0.00    +0.000 A 
ATOM      7  C   UNL     1     -21.121  40.582  -8.563  0.00  0.00    +0.000 A 
ATOM      8  C   UNL     1     -17.655  39.975 -10.836  0.00  0.00    +0.000 C 
ATOM      9  H   UNL     1     -16.871  41.250  -9.350  0.00  0.00    +0.000 HD
ENDROOT
BRANCH   5  11
ATOM     10  O   UNL     1     -22.974  42.730  -6.602  0.00  0.00    +0.000 OA
ATOM     11  C   UNL     1     -22.395  41.656  -6.740  0.00  0.00    +0.000 C 
ENDBRANCH   5  11
TORSDOF 1
ENDMDL
MODEL 2
REMARK VINA RESULT:    -5.496      2.795      4.244
REMARK INTER + INTRA:          -5.837
REMARK INTER:                  -5.816
REMARK INTRA:                  -0.021
REMARK UNBOUND:                -0.019
REMARK  Name = 18416298
REMARK  2 active torsions:
REMARK  status: ('A' for Active; 'I' for Inactive)
REMARK    1  A    between atoms: N_2  and  C_9
REMARK    2  A    between atoms: C_6  and  C_10
REMARK                            x       y       z     vdW  Elec       q    Type
REMARK                         _______ _______ _______ _____ _____    ______ ____
ROOT
ATOM      1  N   UNL     1     -19.988  42.324  -6.561  0.00  0.00    +0.000 N 
ATOM      2  N   UNL     1     -20.590  40.667  -8.162  0.00  0.00    +0.000 NA
ATOM      3  C   UNL     1     -19.713  41.611  -7.754  0.00  0.00    +0.000 A 
ATOM      4  C   UNL     1     -18.547  41.932  -8.431  0.00  0.00    +0.000 A 
ATOM      5  C   UNL     1     -19.143  40.260 -10.054  0.00  0.00    +0.000 A 
ATOM      6  C   UNL     1     -18.264  41.239  -9.603  0.00  0.00    +0.000 A 
ATOM      7  C   UNL     1     -20.281  40.014  -9.305  0.00  0.00    +0.000 A 
ATOM      8  C   UNL     1     -21.154  42.090  -5.774  0.00  0.00    +0.000 C 
ATOM      9  H   UNL     1     -19.452  43.170  -6.394  0.00  0.00    +0.000 HD
ENDROOT
BRANCH   5  11
ATOM     10  O   UNL     1     -19.507  38.531 -11.640  0.00  0.00    +0.000 OA
ATOM     11  C   UNL     1     -18.875  39.519 -11.275  0.00  0.00    +0.000 C 
ENDBRANCH   5  11
TORSDOF 1
ENDMDL
MODEL 3
REMARK VINA RESULT:    -4.605      4.043      5.003
REMARK INTER + INTRA:          -4.893
REMARK INTER:                  -4.873
REMARK INTRA:                  -0.020
REMARK UNBOUND:                -0.019
REMARK  Name = 18416298
REMARK  2 active torsions:
REMARK  status: ('A' for Active; 'I' for Inactive)
REMARK    1  A    between atoms: N_2  and  C_9
REMARK    2  A    between atoms: C_6  and  C_10
REMARK                            x       y       z     vdW  Elec       q    Type
REMARK                         _______ _______ _______ _____ _____    ______ ____
ROOT
ATOM      1  N   UNL     1     -18.851  43.434 -14.709  0.00  0.00    +0.000 N 
ATOM      2  N   UNL     1     -19.599  41.572 -13.427  0.00  0.00    +0.000 NA
ATOM      3  C   UNL     1     -18.805  42.661 -13.523  0.00  0.00    +0.000 A 
ATOM      4  C   UNL     1     -17.939  43.080 -12.526  0.00  0.00    +0.000 A 
ATOM      5  C   UNL     1     -18.686  41.204 -11.220  0.00  0.00    +0.000 A 
ATOM      6  C   UNL     1     -17.884  42.331 -11.355  0.00  0.00    +0.000 A 
ATOM      7  C   UNL     1     -19.519  40.869 -12.275  0.00  0.00    +0.000 A 
ATOM      8  C   UNL     1     -19.698  43.109 -15.809  0.00  0.00    +0.000 C 
ATOM      9  H   UNL     1     -18.099  44.100 -14.857  0.00  0.00    +0.000 HD
ENDROOT
BRANCH   5  11
ATOM     10  O   UNL     1     -19.573  39.686  -9.624  0.00  0.00    +0.000 OA
ATOM     11  C   UNL     1     -18.651  40.401 -10.009  0.00  0.00    +0.000 C 
ENDBRANCH   5  11
TORSDOF 1
ENDMDL
MODEL 4
REMARK VINA RESULT:    -4.476      3.672      4.952
REMARK INTER + INTRA:          -4.757
REMARK INTER:                  -4.737
REMARK INTRA:                  -0.020
REMARK UNBOUND:                -0.019
REMARK  Name = 18416298
REMARK  2 active torsions:
REMARK  status: ('A' for Active; 'I' for Inactive)
REMARK    1  A    between atoms: N_2  and  C_9
REMARK    2  A    between atoms: C_6  and  C_10
REMARK                            x       y       z     vdW  Elec       q    Type
REMARK                         _______ _______ _______ _____ _____    ______ ____
ROOT
ATOM      1  N   UNL     1     -18.306  41.379  -8.673  0.00  0.00    +0.000 N 
ATOM      2  N   UNL     1     -19.394  40.994 -10.757  0.00  0.00    +0.000 NA
ATOM      3  C   UNL     1     -18.460  41.670 -10.051  0.00  0.00    +0.000 A 
ATOM      4  C   UNL     1     -17.631  42.640 -10.590  0.00  0.00    +0.000 A 
ATOM      5  C   UNL     1     -18.720  42.262 -12.701  0.00  0.00    +0.000 A 
ATOM      6  C   UNL     1     -17.770  42.936 -11.942  0.00  0.00    +0.000 A 
ATOM      7  C   UNL     1     -19.500  41.309 -12.068  0.00  0.00    +0.000 A 
ATOM      8  C   UNL     1     -19.099  40.404  -7.998  0.00  0.00    +0.000 C 
ATOM      9  H   UNL     1     -17.774  42.041  -8.117  0.00  0.00    +0.000 HD
ENDROOT
BRANCH   5  11
ATOM     10  O   UNL     1     -19.957  42.470 -14.717  0.00  0.00    +0.000 OA
ATOM     11  C   UNL     1     -18.889  42.548 -14.116  0.00  0.00    +0.000 C 
ENDBRANCH   5  11
TORSDOF 1
ENDMDL
MODEL 5
REMARK VINA RESULT:    -4.354      2.826      4.210
REMARK INTER + INTRA:          -4.627
REMARK INTER:                  -4.609
REMARK INTRA:                  -0.018
REMARK UNBOUND:                -0.019
REMARK  Name = 18416298
REMARK  2 active torsions:
REMARK  status: ('A' for Active; 'I' for Inactive)
REMARK    1  A    between atoms: N_2  and  C_9
REMARK    2  A    between atoms: C_6  and  C_10
REMARK                            x       y       z     vdW  Elec       q    Type
REMARK                         _______ _______ _______ _____ _____    ______ ____
ROOT
ATOM      1  N   UNL     1     -15.843  42.447 -12.786  0.00  0.00    +0.000 N 
ATOM      2  N   UNL     1     -17.180  42.770 -10.841  0.00  0.00    +0.000 NA
ATOM      3  C   UNL     1     -16.678  41.924 -11.768  0.00  0.00    +0.000 A 
ATOM      4  C   UNL     1     -16.928  40.561 -11.792  0.00  0.00    +0.000 A 
ATOM      5  C   UNL     1     -18.280  40.872  -9.826  0.00  0.00    +0.000 A 
ATOM      6  C   UNL     1     -17.746  40.033 -10.797  0.00  0.00    +0.000 A 
ATOM      7  C   UNL     1     -17.970  42.220  -9.891  0.00  0.00    +0.000 A 
ATOM      8  C   UNL     1     -15.511  43.831 -12.875  0.00  0.00    +0.000 C 
ATOM      9  H   UNL     1     -15.667  41.854 -13.590  0.00  0.00    +0.000 HD
ENDROOT
BRANCH   5  11
ATOM     10  O   UNL     1     -20.288  39.959  -8.949  0.00  0.00    +0.000 OA
ATOM     11  C   UNL     1     -19.137  40.350  -8.775  0.00  0.00    +0.000 C 
ENDBRANCH   5  11
TORSDOF 1
ENDMDL
