MODEL 1
REMARK VINA RESULT:    -6.766      0.000      0.000
REMARK INTER + INTRA:          -6.766
REMARK INTER:                  -6.766
REMARK INTRA:                   0.000
REMARK UNBOUND:                 0.000
REMARK  Name = 18422431
REMARK  0 active torsions:
REMARK  status: ('A' for Active; 'I' for Inactive)
REMARK                            x       y       z     vdW  Elec       q    Type
REMARK                         _______ _______ _______ _____ _____    ______ ____
ROOT
ATOM      1  O   UNL     1     -19.540  38.991 -11.744  0.00  0.00    +0.000 OA
ATOM      2  N   UNL     1     -17.056  42.132 -10.240  0.00  0.00    +0.000 N 
ATOM      3  N   UNL     1     -17.327  39.478 -11.758  0.00  0.00    +0.000 N 
ATOM      4  N   UNL     1     -18.540  42.257  -8.499  0.00  0.00    +0.000 NA
ATOM      5  C   UNL     1     -16.347  41.653 -11.398  0.00  0.00    +0.000 C 
ATOM      6  C   UNL     1     -16.133  40.159 -11.315  0.00  0.00    +0.000 C 
ATOM      7  C   UNL     1     -18.848  40.435 -10.028  0.00  0.00    +0.000 A 
ATOM      8  C   UNL     1     -18.149  41.580  -9.619  0.00  0.00    +0.000 A 
ATOM      9  C   UNL     1     -18.594  39.596 -11.234  0.00  0.00    +0.000 C 
ATOM     10  C   UNL     1     -19.947  40.016  -9.250  0.00  0.00    +0.000 A 
ATOM     11  C   UNL     1     -20.330  40.708  -8.112  0.00  0.00    +0.000 A 
ATOM     12  C   UNL     1     -19.597  41.821  -7.782  0.00  0.00    +0.000 A 
ATOM     13  H   UNL     1     -16.696  42.975  -9.804  0.00  0.00    +0.000 HD
ATOM     14  H   UNL     1     -17.225  38.855 -12.553  0.00  0.00    +0.000 HD
ENDROOT
TORSDOF 0
ENDMDL
MODEL 2
REMARK VINA RESULT:    -6.155      1.495      3.493
REMARK INTER + INTRA:          -6.155
REMARK INTER:                  -6.155
REMARK INTRA:                   0.000
REMARK UNBOUND:                 0.000
REMARK  Name = 18422431
REMARK  0 active torsions:
REMARK  status: ('A' for Active; 'I' for Inactive)
REMARK                            x       y       z     vdW  Elec       q    Type
REMARK                         _______ _______ _______ _____ _____    ______ ____
ROOT
ATOM      1  O   UNL     1     -19.267  38.712 -11.625  0.00  0.00    +0.000 OA
ATOM      2  N   UNL     1     -18.099  41.888  -9.008  0.00  0.00    +0.000 N 
ATOM      3  N   UNL     1     -20.163  39.771  -9.832  0.00  0.00    +0.000 N 
ATOM      4  N   UNL     1     -17.054  42.796 -10.834  0.00  0.00    +0.000 NA
ATOM      5  C   UNL     1     -18.954  41.063  -8.193  0.00  0.00    +0.000 C 
ATOM      6  C   UNL     1     -20.287  40.840  -8.870  0.00  0.00    +0.000 C 
ATOM      7  C   UNL     1     -18.422  40.868 -11.241  0.00  0.00    +0.000 A 
ATOM      8  C   UNL     1     -17.882  41.817 -10.361  0.00  0.00    +0.000 A 
ATOM      9  C   UNL     1     -19.305  39.714 -10.907  0.00  0.00    +0.000 C 
ATOM     10  C   UNL     1     -18.087  40.964 -12.608  0.00  0.00    +0.000 A 
ATOM     11  C   UNL     1     -17.250  41.966 -13.075  0.00  0.00    +0.000 A 
ATOM     12  C   UNL     1     -16.760  42.852 -12.149  0.00  0.00    +0.000 A 
ATOM     13  H   UNL     1     -17.606  42.637  -8.533  0.00  0.00    +0.000 HD
ATOM     14  H   UNL     1     -20.764  38.964  -9.693  0.00  0.00    +0.000 HD
ENDROOT
TORSDOF 0
ENDMDL
MODEL 3
REMARK VINA RESULT:    -5.764      2.205      2.876
REMARK INTER + INTRA:          -5.764
REMARK INTER:                  -5.764
REMARK INTRA:                   0.000
REMARK UNBOUND:                 0.000
REMARK  Name = 18422431
REMARK  0 active torsions:
REMARK  status: ('A' for Active; 'I' for Inactive)
REMARK                            x       y       z     vdW  Elec       q    Type
REMARK                         _______ _______ _______ _____ _____    ______ ____
ROOT
ATOM      1  O   UNL     1     -16.336  42.965 -10.861  0.00  0.00    +0.000 OA
ATOM      2  N   UNL     1     -18.582  39.437 -11.760  0.00  0.00    +0.000 N 
ATOM      3  N   UNL     1     -17.283  42.052 -12.707  0.00  0.00    +0.000 N 
ATOM      4  N   UNL     1     -19.461  39.652  -9.655  0.00  0.00    +0.000 NA
ATOM      5  C   UNL     1     -17.900  39.737 -12.992  0.00  0.00    +0.000 C 
ATOM      6  C   UNL     1     -18.168  41.162 -13.420  0.00  0.00    +0.000 C 
ATOM      7  C   UNL     1     -18.080  41.458 -10.419  0.00  0.00    +0.000 A 
ATOM      8  C   UNL     1     -18.683  40.209 -10.629  0.00  0.00    +0.000 A 
ATOM      9  C   UNL     1     -17.174  42.199 -11.342  0.00  0.00    +0.000 C 
ATOM     10  C   UNL     1     -18.309  42.106  -9.187  0.00  0.00    +0.000 A 
ATOM     11  C   UNL     1     -19.106  41.532  -8.209  0.00  0.00    +0.000 A 
ATOM     12  C   UNL     1     -19.655  40.306  -8.491  0.00  0.00    +0.000 A 
ATOM     13  H   UNL     1     -19.077  38.552 -11.720  0.00  0.00    +0.000 HD
ATOM     14  H   UNL     1     -16.661  42.622 -13.272  0.00  0.00    +0.000 HD
ENDROOT
TORSDOF 0
ENDMDL
MODEL 4
REMARK VINA RESULT:    -5.692      3.008      4.361
REMARK INTER + INTRA:          -5.692
REMARK INTER:                  -5.692
REMARK INTRA:                   0.000
REMARK UNBOUND:                 0.000
REMARK  Name = 18422431
REMARK  0 active torsions:
REMARK  status: ('A' for Active; 'I' for Inactive)
REMARK                            x       y       z     vdW  Elec       q    Type
REMARK                         _______ _______ _______ _____ _____    ______ ____
ROOT
ATOM      1  O   UNL     1     -17.703  42.824  -9.749  0.00  0.00    +0.000 OA
ATOM      2  N   UNL     1     -19.497  40.282 -12.684  0.00  0.00    +0.000 N 
ATOM      3  N   UNL     1     -17.489  40.662 -10.394  0.00  0.00    +0.000 N 
ATOM      4  N   UNL     1     -19.646  42.158 -13.989  0.00  0.00    +0.000 NA
ATOM      5  C   UNL     1     -19.116  39.378 -11.628  0.00  0.00    +0.000 C 
ATOM      6  C   UNL     1     -17.653  39.540 -11.286  0.00  0.00    +0.000 C 
ATOM      7  C   UNL     1     -18.420  42.384 -11.940  0.00  0.00    +0.000 A 
ATOM      8  C   UNL     1     -19.169  41.606 -12.834  0.00  0.00    +0.000 A 
ATOM      9  C   UNL     1     -17.856  41.969 -10.624  0.00  0.00    +0.000 C 
ATOM     10  C   UNL     1     -18.178  43.732 -12.275  0.00  0.00    +0.000 A 
ATOM     11  C   UNL     1     -18.662  44.279 -13.453  0.00  0.00    +0.000 A 
ATOM     12  C   UNL     1     -19.391  43.453 -14.272  0.00  0.00    +0.000 A 
ATOM     13  H   UNL     1     -20.063  39.892 -13.430  0.00  0.00    +0.000 HD
ATOM     14  H   UNL     1     -17.072  40.464  -9.489  0.00  0.00    +0.000 HD
ENDROOT
TORSDOF 0
ENDMDL
MODEL 5
REMARK VINA RESULT:    -5.261      3.157      4.134
REMARK INTER + INTRA:          -5.261
REMARK INTER:                  -5.261
REMARK INTRA:                   0.000
REMARK UNBOUND:                 0.000
REMARK  Name = 18422431
REMARK  0 active torsions:
REMARK  status: ('A' for Active; 'I' for Inactive)
REMARK                            x       y       z     vdW  Elec       q    Type
REMARK                         _______ _______ _______ _____ _____    ______ ____
ROOT
ATOM      1  O   UNL     1     -20.027  42.344 -13.957  0.00  0.00    +0.000 OA
ATOM      2  N   UNL     1     -16.289  40.957 -12.408  0.00  0.00    +0.000 N 
ATOM      3  N   UNL     1     -19.297  40.516 -12.832  0.00  0.00    +0.000 N 
ATOM      4  N   UNL     1     -15.811  43.163 -12.019  0.00  0.00    +0.000 NA
ATOM      5  C   UNL     1     -17.014  39.747 -12.699  0.00  0.00    +0.000 C 
ATOM      6  C   UNL     1     -18.368  39.758 -12.028  0.00  0.00    +0.000 C 
ATOM      7  C   UNL     1     -18.044  42.671 -12.745  0.00  0.00    +0.000 A 
ATOM      8  C   UNL     1     -16.751  42.249 -12.405  0.00  0.00    +0.000 A 
ATOM      9  C   UNL     1     -19.180  41.831 -13.222  0.00  0.00    +0.000 C 
ATOM     10  C   UNL     1     -18.333  44.050 -12.671  0.00  0.00    +0.000 A 
ATOM     11  C   UNL     1     -17.372  44.966 -12.273  0.00  0.00    +0.000 A 
ATOM     12  C   UNL     1     -16.130  44.473 -11.962  0.00  0.00    +0.000 A 
ATOM     13  H   UNL     1     -15.314  40.849 -12.147  0.00  0.00    +0.000 HD
ATOM     14  H   UNL     1     -20.120  40.021 -13.163  0.00  0.00    +0.000 HD
ENDROOT
TORSDOF 0
ENDMDL
