MODEL 1
REMARK VINA RESULT:    -6.629      0.000      0.000
REMARK INTER + INTRA:          -7.074
REMARK INTER:                  -7.017
REMARK INTRA:                  -0.058
REMARK UNBOUND:                -0.058
REMARK  Name = 19699139
REMARK  1 active torsions:
REMARK  status: ('A' for Active; 'I' for Inactive)
REMARK    1  A    between atoms: C_5  and  C_10
REMARK                            x       y       z     vdW  Elec       q    Type
REMARK                         _______ _______ _______ _____ _____    ______ ____
ROOT
ATOM      1  N   UNL     1     -19.028  41.932  -7.692  0.00  0.00    +0.000 NA
ATOM      2  N   UNL     1     -17.566  40.782  -9.182  0.00  0.00    +0.000 N 
ATOM      3  C   UNL     1     -21.364  41.317  -7.610  0.00  0.00    +0.000 A 
ATOM      4  C   UNL     1     -21.151  40.346  -8.581  0.00  0.00    +0.000 A 
ATOM      5  C   UNL     1     -19.877  40.167  -9.110  0.00  0.00    +0.000 A 
ATOM      6  C   UNL     1     -18.859  40.978  -8.636  0.00  0.00    +0.000 A 
ATOM      7  C   UNL     1     -20.280  42.076  -7.203  0.00  0.00    +0.000 A 
ATOM      8  H   UNL     1     -17.323  39.863  -9.528  0.00  0.00    +0.000 HD
ATOM      9  H   UNL     1     -16.824  41.373  -8.829  0.00  0.00    +0.000 HD
ENDROOT
BRANCH   3  12
ATOM     10 CL   UNL     1     -23.965  40.315  -7.202  0.00  0.00    +0.000 Cl
ATOM     11  O   UNL     1     -22.917  42.595  -6.428  0.00  0.00    +0.000 OA
ATOM     12  C   UNL     1     -22.684  41.530  -7.040  0.00  0.00    +0.000 C 
ENDBRANCH   3  12
TORSDOF 1
ENDMDL
MODEL 2
REMARK VINA RESULT:    -6.052      1.543      1.968
REMARK INTER + INTRA:          -6.464
REMARK INTER:                  -6.405
REMARK INTRA:                  -0.059
REMARK UNBOUND:                -0.058
REMARK  Name = 19699139
REMARK  1 active torsions:
REMARK  status: ('A' for Active; 'I' for Inactive)
REMARK    1  A    between atoms: C_5  and  C_10
REMARK                            x       y       z     vdW  Elec       q    Type
REMARK                         _______ _______ _______ _____ _____    ______ ____
ROOT
ATOM      1  N   UNL     1     -19.749  39.969  -9.392  0.00  0.00    +0.000 NA
ATOM      2  N   UNL     1     -17.449  40.487  -9.740  0.00  0.00    +0.000 N 
ATOM      3  C   UNL     1     -21.035  41.276  -7.817  0.00  0.00    +0.000 A 
ATOM      4  C   UNL     1     -19.916  42.050  -7.533  0.00  0.00    +0.000 A 
ATOM      5  C   UNL     1     -18.712  41.785  -8.177  0.00  0.00    +0.000 A 
ATOM      6  C   UNL     1     -18.681  40.743  -9.090  0.00  0.00    +0.000 A 
ATOM      7  C   UNL     1     -20.901  40.257  -8.746  0.00  0.00    +0.000 A 
ATOM      8  H   UNL     1     -16.803  41.255  -9.869  0.00  0.00    +0.000 HD
ATOM      9  H   UNL     1     -17.432  39.728 -10.411  0.00  0.00    +0.000 HD
ENDROOT
BRANCH   3  12
ATOM     10 CL   UNL     1     -22.430  42.647  -5.789  0.00  0.00    +0.000 Cl
ATOM     11  O   UNL     1     -23.329  40.936  -7.568  0.00  0.00    +0.000 OA
ATOM     12  C   UNL     1     -22.306  41.527  -7.159  0.00  0.00    +0.000 C 
ENDBRANCH   3  12
TORSDOF 1
ENDMDL
MODEL 3
REMARK VINA RESULT:    -5.826      3.631      4.454
REMARK INTER + INTRA:          -6.225
REMARK INTER:                  -6.189
REMARK INTRA:                  -0.036
REMARK UNBOUND:                -0.058
REMARK  Name = 19699139
REMARK  1 active torsions:
REMARK  status: ('A' for Active; 'I' for Inactive)
REMARK    1  A    between atoms: C_5  and  C_10
REMARK                            x       y       z     vdW  Elec       q    Type
REMARK                         _______ _______ _______ _____ _____    ______ ____
ROOT
ATOM      1  N   UNL     1     -18.842  42.207  -7.935  0.00  0.00    +0.000 NA
ATOM      2  N   UNL     1     -20.608  42.548  -6.373  0.00  0.00    +0.000 N 
ATOM      3  C   UNL     1     -19.066  40.496  -9.628  0.00  0.00    +0.000 A 
ATOM      4  C   UNL     1     -20.323  40.163  -9.136  0.00  0.00    +0.000 A 
ATOM      5  C   UNL     1     -20.840  40.850  -8.043  0.00  0.00    +0.000 A 
ATOM      6  C   UNL     1     -20.067  41.855  -7.484  0.00  0.00    +0.000 A 
ATOM      7  C   UNL     1     -18.373  41.517  -8.999  0.00  0.00    +0.000 A 
ATOM      8  H   UNL     1     -21.615  42.618  -6.292  0.00  0.00    +0.000 HD
ATOM      9  H   UNL     1     -20.043  43.285  -5.971  0.00  0.00    +0.000 HD
ENDROOT
BRANCH   3  12
ATOM     10 CL   UNL     1     -16.835  40.103 -11.302  0.00  0.00    +0.000 Cl
ATOM     11  O   UNL     1     -19.199  38.961 -11.379  0.00  0.00    +0.000 OA
ATOM     12  C   UNL     1     -18.498  39.795 -10.766  0.00  0.00    +0.000 C 
ENDBRANCH   3  12
TORSDOF 1
ENDMDL
MODEL 4
REMARK VINA RESULT:    -5.309      2.989      3.738
REMARK INTER + INTRA:          -5.677
REMARK INTER:                  -5.642
REMARK INTRA:                  -0.036
REMARK UNBOUND:                -0.058
REMARK  Name = 19699139
REMARK  1 active torsions:
REMARK  status: ('A' for Active; 'I' for Inactive)
REMARK    1  A    between atoms: C_5  and  C_10
REMARK                            x       y       z     vdW  Elec       q    Type
REMARK                         _______ _______ _______ _____ _____    ______ ____
ROOT
ATOM      1  N   UNL     1     -16.983  40.651 -10.883  0.00  0.00    +0.000 NA
ATOM      2  N   UNL     1     -16.576  39.759 -13.055  0.00  0.00    +0.000 N 
ATOM      3  C   UNL     1     -19.124  40.275  -9.827  0.00  0.00    +0.000 A 
ATOM      4  C   UNL     1     -19.555  39.556 -10.936  0.00  0.00    +0.000 A 
ATOM      5  C   UNL     1     -18.700  39.384 -12.020  0.00  0.00    +0.000 A 
ATOM      6  C   UNL     1     -17.436  39.946 -11.945  0.00  0.00    +0.000 A 
ATOM      7  C   UNL     1     -17.842  40.797  -9.850  0.00  0.00    +0.000 A 
ATOM      8  H   UNL     1     -16.699  38.933 -13.627  0.00  0.00    +0.000 HD
ATOM      9  H   UNL     1     -15.651  40.166 -12.994  0.00  0.00    +0.000 HD
ENDROOT
BRANCH   3  12
ATOM     10 CL   UNL     1     -19.518  41.527  -7.334  0.00  0.00    +0.000 Cl
ATOM     11  O   UNL     1     -21.098  39.890  -8.646  0.00  0.00    +0.000 OA
ATOM     12  C   UNL     1     -19.994  40.475  -8.681  0.00  0.00    +0.000 C 
ENDBRANCH   3  12
TORSDOF 1
ENDMDL
MODEL 5
REMARK VINA RESULT:    -4.786      4.583      5.481
REMARK INTER + INTRA:          -5.124
REMARK INTER:                  -5.087
REMARK INTRA:                  -0.037
REMARK UNBOUND:                -0.058
REMARK  Name = 19699139
REMARK  1 active torsions:
REMARK  status: ('A' for Active; 'I' for Inactive)
REMARK    1  A    between atoms: C_5  and  C_10
REMARK                            x       y       z     vdW  Elec       q    Type
REMARK                         _______ _______ _______ _____ _____    ______ ____
ROOT
ATOM      1  N   UNL     1     -19.392  39.771 -10.163  0.00  0.00    +0.000 NA
ATOM      2  N   UNL     1     -19.253  40.096  -7.807  0.00  0.00    +0.000 N 
ATOM      3  C   UNL     1     -18.418  41.411 -11.648  0.00  0.00    +0.000 A 
ATOM      4  C   UNL     1     -18.008  42.168 -10.556  0.00  0.00    +0.000 A 
ATOM      5  C   UNL     1     -18.289  41.727  -9.267  0.00  0.00    +0.000 A 
ATOM      6  C   UNL     1     -18.977  40.533  -9.126  0.00  0.00    +0.000 A 
ATOM      7  C   UNL     1     -19.100  40.231 -11.400  0.00  0.00    +0.000 A 
ATOM      8  H   UNL     1     -18.626  40.377  -7.064  0.00  0.00    +0.000 HD
ATOM      9  H   UNL     1     -19.752  39.220  -7.708  0.00  0.00    +0.000 HD
ENDROOT
BRANCH   3  12
ATOM     10 CL   UNL     1     -19.396  42.607 -14.004  0.00  0.00    +0.000 Cl
ATOM     11  O   UNL     1     -16.997  41.675 -13.479  0.00  0.00    +0.000 OA
ATOM     12  C   UNL     1     -18.142  41.846 -13.006  0.00  0.00    +0.000 C 
ENDBRANCH   3  12
TORSDOF 1
ENDMDL
