MODEL 1
REMARK VINA RESULT:    -5.212      0.000      0.000
REMARK INTER + INTRA:          -6.433
REMARK INTER:                  -6.126
REMARK INTRA:                  -0.307
REMARK UNBOUND:                -0.307
REMARK  Name = 20207489
REMARK  5 active torsions:
REMARK  status: ('A' for Active; 'I' for Inactive)
REMARK    1  A    between atoms: N_2  and  C_5
REMARK    2  A    between atoms: N_2  and  C_6
REMARK    3  A    between atoms: C_5  and  C_9
REMARK    4  A    between atoms: C_6  and  C_10
REMARK    5  A    between atoms: C_7  and  C_8
REMARK                            x       y       z     vdW  Elec       q    Type
REMARK                         _______ _______ _______ _____ _____    ______ ____
ROOT
ATOM      1  N   UNL     1     -19.412  39.598 -10.601  0.00  0.00    +0.000 NA
ATOM      2  N   UNL     1     -20.944  39.582  -8.777  0.00  0.00    +0.000 N 
ATOM      3  C   UNL     1     -17.707  41.309 -10.707  0.00  0.00    +0.000 A 
ATOM      4  C   UNL     1     -18.174  41.858  -9.519  0.00  0.00    +0.000 A 
ATOM      5  C   UNL     1     -18.354  40.188 -11.203  0.00  0.00    +0.000 A 
ATOM      6  C   UNL     1     -19.259  41.279  -8.871  0.00  0.00    +0.000 A 
ATOM      7  C   UNL     1     -19.838  40.160  -9.449  0.00  0.00    +0.000 A 
ATOM      8  H   UNL     1     -21.006  39.688  -7.772  0.00  0.00    +0.000 HD
ATOM      9  H   UNL     1     -21.360  38.761  -9.199  0.00  0.00    +0.000 HD
ENDROOT
BRANCH   3  12
ATOM     10  O   UNL     1     -15.462  41.384 -11.195  0.00  0.00    +0.000 OA
ATOM     11  N   UNL     1     -16.788  42.985 -12.263  0.00  0.00    +0.000 N 
ATOM     12  C   UNL     1     -16.559  41.897 -11.415  0.00  0.00    +0.000 C 
BRANCH  11  13
ATOM     13  C   UNL     1     -15.666  43.595 -12.962  0.00  0.00    +0.000 C 
ATOM     14  C   UNL     1     -15.140  44.779 -12.173  0.00  0.00    +0.000 C 
ENDBRANCH  11  13
BRANCH  11  15
ATOM     15  C   UNL     1     -18.095  43.587 -12.518  0.00  0.00    +0.000 C 
ATOM     16  C   UNL     1     -18.680  43.036 -13.805  0.00  0.00    +0.000 C 
ENDBRANCH  11  15
ENDBRANCH   3  12
TORSDOF 3
ENDMDL
MODEL 2
REMARK VINA RESULT:    -4.696      2.186      5.178
REMARK INTER + INTRA:          -5.827
REMARK INTER:                  -5.483
REMARK INTRA:                  -0.343
REMARK UNBOUND:                -0.307
REMARK  Name = 20207489
REMARK  5 active torsions:
REMARK  status: ('A' for Active; 'I' for Inactive)
REMARK    1  A    between atoms: N_2  and  C_5
REMARK    2  A    between atoms: N_2  and  C_6
REMARK    3  A    between atoms: C_5  and  C_9
REMARK    4  A    between atoms: C_6  and  C_10
REMARK    5  A    between atoms: C_7  and  C_8
REMARK                            x       y       z     vdW  Elec       q    Type
REMARK                         _______ _______ _______ _____ _____    ______ ____
ROOT
ATOM      1  N   UNL     1     -14.676  44.072 -12.178  0.00  0.00    +0.000 NA
ATOM      2  N   UNL     1     -14.142  46.320 -12.758  0.00  0.00    +0.000 N 
ATOM      3  C   UNL     1     -16.915  43.532 -11.444  0.00  0.00    +0.000 A 
ATOM      4  C   UNL     1     -17.292  44.862 -11.593  0.00  0.00    +0.000 A 
ATOM      5  C   UNL     1     -15.607  43.191 -11.747  0.00  0.00    +0.000 A 
ATOM      6  C   UNL     1     -16.363  45.797 -12.033  0.00  0.00    +0.000 A 
ATOM      7  C   UNL     1     -15.078  45.355 -12.310  0.00  0.00    +0.000 A 
ATOM      8  H   UNL     1     -14.487  47.130 -13.257  0.00  0.00    +0.000 HD
ATOM      9  H   UNL     1     -13.208  45.991 -12.964  0.00  0.00    +0.000 HD
ENDROOT
BRANCH   3  12
ATOM     10  O   UNL     1     -17.965  42.368  -9.763  0.00  0.00    +0.000 OA
ATOM     11  N   UNL     1     -18.598  41.800 -11.940  0.00  0.00    +0.000 N 
ATOM     12  C   UNL     1     -17.876  42.518 -10.981  0.00  0.00    +0.000 C 
BRANCH  11  13
ATOM     13  C   UNL     1     -19.543  40.781 -11.507  0.00  0.00    +0.000 C 
ATOM     14  C   UNL     1     -18.913  39.405 -11.618  0.00  0.00    +0.000 C 
ENDBRANCH  11  13
BRANCH  11  15
ATOM     15  C   UNL     1     -18.486  41.987 -13.385  0.00  0.00    +0.000 C 
ATOM     16  C   UNL     1     -19.623  42.856 -13.889  0.00  0.00    +0.000 C 
ENDBRANCH  11  15
ENDBRANCH   3  12
TORSDOF 3
ENDMDL
MODEL 3
REMARK VINA RESULT:    -4.199     14.551     15.648
REMARK INTER + INTRA:          -5.243
REMARK INTER:                  -5.028
REMARK INTRA:                  -0.215
REMARK UNBOUND:                -0.307
REMARK  Name = 20207489
REMARK  5 active torsions:
REMARK  status: ('A' for Active; 'I' for Inactive)
REMARK    1  A    between atoms: N_2  and  C_5
REMARK    2  A    between atoms: N_2  and  C_6
REMARK    3  A    between atoms: C_5  and  C_9
REMARK    4  A    between atoms: C_6  and  C_10
REMARK    5  A    between atoms: C_7  and  C_8
REMARK                            x       y       z     vdW  Elec       q    Type
REMARK                         _______ _______ _______ _____ _____    ______ ____
ROOT
ATOM      1  N   UNL     1     -32.153  42.557 -19.252  0.00  0.00    +0.000 NA
ATOM      2  N   UNL     1     -31.705  40.489 -20.348  0.00  0.00    +0.000 N 
ATOM      3  C   UNL     1     -31.351  42.906 -16.998  0.00  0.00    +0.000 A 
ATOM      4  C   UNL     1     -30.787  41.636 -16.994  0.00  0.00    +0.000 A 
ATOM      5  C   UNL     1     -32.018  43.316 -18.141  0.00  0.00    +0.000 A 
ATOM      6  C   UNL     1     -30.905  40.825 -18.117  0.00  0.00    +0.000 A 
ATOM      7  C   UNL     1     -31.593  41.328 -19.211  0.00  0.00    +0.000 A 
ATOM      8  H   UNL     1     -30.981  39.802 -20.513  0.00  0.00    +0.000 HD
ATOM      9  H   UNL     1     -32.203  40.863 -21.146  0.00  0.00    +0.000 HD
ENDROOT
BRANCH   3  12
ATOM     10  O   UNL     1     -30.293  44.573 -15.821  0.00  0.00    +0.000 OA
ATOM     11  N   UNL     1     -32.197  43.668 -14.811  0.00  0.00    +0.000 N 
ATOM     12  C   UNL     1     -31.242  43.789 -15.825  0.00  0.00    +0.000 C 
BRANCH  11  13
ATOM     13  C   UNL     1     -32.101  44.519 -13.634  0.00  0.00    +0.000 C 
ATOM     14  C   UNL     1     -32.830  45.827 -13.874  0.00  0.00    +0.000 C 
ENDBRANCH  11  13
BRANCH  11  15
ATOM     15  C   UNL     1     -33.321  42.733 -14.827  0.00  0.00    +0.000 C 
ATOM     16  C   UNL     1     -33.715  42.368 -13.408  0.00  0.00    +0.000 C 
ENDBRANCH  11  15
ENDBRANCH   3  12
TORSDOF 3
ENDMDL
MODEL 4
REMARK VINA RESULT:    -4.197     14.295     15.700
REMARK INTER + INTRA:          -5.240
REMARK INTER:                  -4.936
REMARK INTRA:                  -0.304
REMARK UNBOUND:                -0.307
REMARK  Name = 20207489
REMARK  5 active torsions:
REMARK  status: ('A' for Active; 'I' for Inactive)
REMARK    1  A    between atoms: N_2  and  C_5
REMARK    2  A    between atoms: N_2  and  C_6
REMARK    3  A    between atoms: C_5  and  C_9
REMARK    4  A    between atoms: C_6  and  C_10
REMARK    5  A    between atoms: C_7  and  C_8
REMARK                            x       y       z     vdW  Elec       q    Type
REMARK                         _______ _______ _______ _____ _____    ______ ____
ROOT
ATOM      1  N   UNL     1     -32.949  41.927 -19.210  0.00  0.00    +0.000 NA
ATOM      2  N   UNL     1     -31.691  40.518 -20.662  0.00  0.00    +0.000 N 
ATOM      3  C   UNL     1     -32.178  42.297 -16.949  0.00  0.00    +0.000 A 
ATOM      4  C   UNL     1     -31.081  41.475 -17.181  0.00  0.00    +0.000 A 
ATOM      5  C   UNL     1     -33.075  42.490 -17.987  0.00  0.00    +0.000 A 
ATOM      6  C   UNL     1     -30.917  40.878 -18.426  0.00  0.00    +0.000 A 
ATOM      7  C   UNL     1     -31.872  41.134 -19.398  0.00  0.00    +0.000 A 
ATOM      8  H   UNL     1     -30.749  40.300 -20.961  0.00  0.00    +0.000 HD
ATOM      9  H   UNL     1     -32.386  40.712 -21.371  0.00  0.00    +0.000 HD
ENDROOT
BRANCH   3  12
ATOM     10  O   UNL     1     -33.072  42.332 -14.832  0.00  0.00    +0.000 OA
ATOM     11  N   UNL     1     -31.789  44.193 -15.423  0.00  0.00    +0.000 N 
ATOM     12  C   UNL     1     -32.378  42.945 -15.643  0.00  0.00    +0.000 C 
BRANCH  11  13
ATOM     13  C   UNL     1     -31.986  44.862 -14.144  0.00  0.00    +0.000 C 
ATOM     14  C   UNL     1     -30.652  45.299 -13.572  0.00  0.00    +0.000 C 
ENDBRANCH  11  13
BRANCH  11  15
ATOM     15  C   UNL     1     -30.965  44.913 -16.393  0.00  0.00    +0.000 C 
ATOM     16  C   UNL     1     -31.780  46.003 -17.062  0.00  0.00    +0.000 C 
ENDBRANCH  11  15
ENDBRANCH   3  12
TORSDOF 3
ENDMDL
MODEL 5
REMARK VINA RESULT:    -3.924     22.654     24.617
REMARK INTER + INTRA:          -4.920
REMARK INTER:                  -4.579
REMARK INTRA:                  -0.341
REMARK UNBOUND:                -0.307
REMARK  Name = 20207489
REMARK  5 active torsions:
REMARK  status: ('A' for Active; 'I' for Inactive)
REMARK    1  A    between atoms: N_2  and  C_5
REMARK    2  A    between atoms: N_2  and  C_6
REMARK    3  A    between atoms: C_5  and  C_9
REMARK    4  A    between atoms: C_6  and  C_10
REMARK    5  A    between atoms: C_7  and  C_8
REMARK                            x       y       z     vdW  Elec       q    Type
REMARK                         _______ _______ _______ _____ _____    ______ ____
ROOT
ATOM      1  N   UNL     1     -35.466  42.642   7.411  0.00  0.00    +0.000 NA
ATOM      2  N   UNL     1     -34.089  42.353   9.333  0.00  0.00    +0.000 N 
ATOM      3  C   UNL     1     -35.602  44.816   6.362  0.00  0.00    +0.000 A 
ATOM      4  C   UNL     1     -34.724  45.335   7.305  0.00  0.00    +0.000 A 
ATOM      5  C   UNL     1     -35.940  43.475   6.457  0.00  0.00    +0.000 A 
ATOM      6  C   UNL     1     -34.215  44.509   8.302  0.00  0.00    +0.000 A 
ATOM      7  C   UNL     1     -34.615  43.182   8.311  0.00  0.00    +0.000 A 
ATOM      8  H   UNL     1     -33.182  42.582   9.720  0.00  0.00    +0.000 HD
ATOM      9  H   UNL     1     -34.378  41.383   9.332  0.00  0.00    +0.000 HD
ENDROOT
BRANCH   3  12
ATOM     10  O   UNL     1     -37.219  46.232   5.545  0.00  0.00    +0.000 OA
ATOM     11  N   UNL     1     -35.456  45.753   4.086  0.00  0.00    +0.000 N 
ATOM     12  C   UNL     1     -36.156  45.664   5.294  0.00  0.00    +0.000 C 
BRANCH  11  13
ATOM     13  C   UNL     1     -35.993  46.572   3.009  0.00  0.00    +0.000 C 
ATOM     14  C   UNL     1     -36.847  45.725   2.084  0.00  0.00    +0.000 C 
ENDBRANCH  11  13
BRANCH  11  15
ATOM     15  C   UNL     1     -34.194  45.075   3.798  0.00  0.00    +0.000 C 
ATOM     16  C   UNL     1     -33.039  46.051   3.916  0.00  0.00    +0.000 C 
ENDBRANCH  11  15
ENDBRANCH   3  12
TORSDOF 3
ENDMDL
