MODEL 1
REMARK VINA RESULT:    -6.706      0.000      0.000
REMARK INTER + INTRA:          -8.592
REMARK INTER:                  -8.274
REMARK INTRA:                  -0.319
REMARK UNBOUND:                -0.319
REMARK  Name = 20207438
REMARK  4 active torsions:
REMARK  status: ('A' for Active; 'I' for Inactive)
REMARK    1  A    between atoms: N_2  and  C_13
REMARK    2  A    between atoms: C_7  and  C_12
REMARK    3  A    between atoms: C_14  and  C_15
REMARK    4  A    between atoms: C_14  and  C_16
REMARK                            x       y       z     vdW  Elec       q    Type
REMARK                         _______ _______ _______ _____ _____    ______ ____
ROOT
ATOM      1  N   UNL     1     -17.753  41.238  -9.373  0.00  0.00    +0.000 N 
ATOM      2  N   UNL     1     -20.092  40.807  -9.218  0.00  0.00    +0.000 NA
ATOM      3  C   UNL     1     -21.340  41.686  -7.343  0.00  0.00    +0.000 A 
ATOM      4  C   UNL     1     -18.986  41.381  -8.691  0.00  0.00    +0.000 A 
ATOM      5  C   UNL     1     -20.182  42.262  -6.832  0.00  0.00    +0.000 A 
ATOM      6  C   UNL     1     -18.979  42.112  -7.513  0.00  0.00    +0.000 A 
ATOM      7  C   UNL     1     -21.243  40.975  -8.528  0.00  0.00    +0.000 A 
ATOM      8  H   UNL     1     -16.957  41.686  -8.936  0.00  0.00    +0.000 HD
ENDROOT
BRANCH   3  11
ATOM      9  O   UNL     1     -23.492  40.948  -6.734  0.00  0.00    +0.000 OA
ATOM     10  N   UNL     1     -22.811  42.965  -5.882  0.00  0.00    +0.000 N 
ATOM     11  C   UNL     1     -22.611  41.824  -6.655  0.00  0.00    +0.000 C 
ATOM     12  H   UNL     1     -22.146  43.718  -5.762  0.00  0.00    +0.000 HD
ATOM     13  H   UNL     1     -23.688  43.084  -5.384  0.00  0.00    +0.000 HD
ENDBRANCH   3  11
BRANCH   1  14
ATOM     14  C   UNL     1     -17.529  40.581 -10.521  0.00  0.00    +0.000 C 
ATOM     15  C   UNL     1     -17.568  41.030 -11.786  0.00  0.00    +0.000 C 
BRANCH  15  17
ATOM     16  N   UNL     1     -17.072  39.446 -13.771  0.00  0.00    +0.000 NA
ATOM     17  C   UNL     1     -17.294  40.157 -12.881  0.00  0.00    +0.000 C 
ENDBRANCH  15  17
BRANCH  15  19
ATOM     18  N   UNL     1     -18.145  43.513 -12.227  0.00  0.00    +0.000 NA
ATOM     19  C   UNL     1     -17.887  42.399 -12.029  0.00  0.00    +0.000 C 
ENDBRANCH  15  19
ENDBRANCH   1  14
TORSDOF 4
ENDMDL
MODEL 2
REMARK VINA RESULT:    -6.391      1.606      2.152
REMARK INTER + INTRA:          -8.204
REMARK INTER:                  -7.901
REMARK INTRA:                  -0.303
REMARK UNBOUND:                -0.319
REMARK  Name = 20207438
REMARK  4 active torsions:
REMARK  status: ('A' for Active; 'I' for Inactive)
REMARK    1  A    between atoms: N_2  and  C_13
REMARK    2  A    between atoms: C_7  and  C_12
REMARK    3  A    between atoms: C_14  and  C_15
REMARK    4  A    between atoms: C_14  and  C_16
REMARK                            x       y       z     vdW  Elec       q    Type
REMARK                         _______ _______ _______ _____ _____    ______ ____
ROOT
ATOM      1  N   UNL     1     -18.028  40.580 -10.309  0.00  0.00    +0.000 N 
ATOM      2  N   UNL     1     -18.687  41.950  -8.473  0.00  0.00    +0.000 NA
ATOM      3  C   UNL     1     -20.843  41.593  -7.439  0.00  0.00    +0.000 A 
ATOM      4  C   UNL     1     -18.980  40.938  -9.323  0.00  0.00    +0.000 A 
ATOM      5  C   UNL     1     -21.108  40.558  -8.330  0.00  0.00    +0.000 A 
ATOM      6  C   UNL     1     -20.164  40.219  -9.292  0.00  0.00    +0.000 A 
ATOM      7  C   UNL     1     -19.629  42.250  -7.551  0.00  0.00    +0.000 A 
ATOM      8  H   UNL     1     -18.297  39.817 -10.920  0.00  0.00    +0.000 HD
ENDROOT
BRANCH   3  11
ATOM      9  O   UNL     1     -23.011  41.664  -6.521  0.00  0.00    +0.000 OA
ATOM     10  N   UNL     1     -21.344  42.678  -5.316  0.00  0.00    +0.000 N 
ATOM     11  C   UNL     1     -21.809  41.972  -6.423  0.00  0.00    +0.000 C 
ATOM     12  H   UNL     1     -20.385  42.960  -5.158  0.00  0.00    +0.000 HD
ATOM     13  H   UNL     1     -21.997  42.950  -4.587  0.00  0.00    +0.000 HD
ENDBRANCH   3  11
BRANCH   1  14
ATOM     14  C   UNL     1     -16.825  41.134 -10.519  0.00  0.00    +0.000 C 
ATOM     15  C   UNL     1     -16.494  42.206 -11.257  0.00  0.00    +0.000 C 
BRANCH  15  17
ATOM     16  N   UNL     1     -14.034  42.991 -11.428  0.00  0.00    +0.000 NA
ATOM     17  C   UNL     1     -15.137  42.639 -11.352  0.00  0.00    +0.000 C 
ENDBRANCH  15  17
BRANCH  15  19
ATOM     18  N   UNL     1     -18.351  43.497 -12.514  0.00  0.00    +0.000 NA
ATOM     19  C   UNL     1     -17.517  42.917 -11.951  0.00  0.00    +0.000 C 
ENDBRANCH  15  19
ENDBRANCH   1  14
TORSDOF 4
ENDMDL
MODEL 3
REMARK VINA RESULT:    -5.987      3.089      6.345
REMARK INTER + INTRA:          -7.706
REMARK INTER:                  -7.521
REMARK INTRA:                  -0.185
REMARK UNBOUND:                -0.319
REMARK  Name = 20207438
REMARK  4 active torsions:
REMARK  status: ('A' for Active; 'I' for Inactive)
REMARK    1  A    between atoms: N_2  and  C_13
REMARK    2  A    between atoms: C_7  and  C_12
REMARK    3  A    between atoms: C_14  and  C_15
REMARK    4  A    between atoms: C_14  and  C_16
REMARK                            x       y       z     vdW  Elec       q    Type
REMARK                         _______ _______ _______ _____ _____    ______ ____
ROOT
ATOM      1  N   UNL     1     -19.205  39.839  -9.431  0.00  0.00    +0.000 N 
ATOM      2  N   UNL     1     -19.082  41.811 -10.764  0.00  0.00    +0.000 NA
ATOM      3  C   UNL     1     -17.038  42.318 -11.949  0.00  0.00    +0.000 A 
ATOM      4  C   UNL     1     -18.477  40.697 -10.291  0.00  0.00    +0.000 A 
ATOM      5  C   UNL     1     -16.449  41.163 -11.444  0.00  0.00    +0.000 A 
ATOM      6  C   UNL     1     -17.176  40.332 -10.599  0.00  0.00    +0.000 A 
ATOM      7  C   UNL     1     -18.344  42.594 -11.583  0.00  0.00    +0.000 A 
ATOM      8  H   UNL     1     -18.706  39.020  -9.105  0.00  0.00    +0.000 HD
ENDROOT
BRANCH   3  11
ATOM      9  O   UNL     1     -16.891  44.007 -13.584  0.00  0.00    +0.000 OA
ATOM     10  N   UNL     1     -14.913  43.151 -12.801  0.00  0.00    +0.000 N 
ATOM     11  C   UNL     1     -16.304  43.207 -12.833  0.00  0.00    +0.000 C 
ATOM     12  H   UNL     1     -14.362  42.535 -12.217  0.00  0.00    +0.000 HD
ATOM     13  H   UNL     1     -14.375  43.766 -13.404  0.00  0.00    +0.000 HD
ENDBRANCH   3  11
BRANCH   1  14
ATOM     14  C   UNL     1     -20.468  39.993  -9.004  0.00  0.00    +0.000 C 
ATOM     15  C   UNL     1     -20.961  40.828  -8.074  0.00  0.00    +0.000 C 
BRANCH  15  17
ATOM     16  N   UNL     1     -23.487  40.841  -7.513  0.00  0.00    +0.000 NA
ATOM     17  C   UNL     1     -22.354  40.836  -7.764  0.00  0.00    +0.000 C 
ENDBRANCH  15  17
BRANCH  15  19
ATOM     18  N   UNL     1     -19.353  42.438  -6.843  0.00  0.00    +0.000 NA
ATOM     19  C   UNL     1     -20.075  41.715  -7.395  0.00  0.00    +0.000 C 
ENDBRANCH  15  19
ENDBRANCH   1  14
TORSDOF 4
ENDMDL
MODEL 4
REMARK VINA RESULT:    -5.656      3.796      6.842
REMARK INTER + INTRA:          -7.297
REMARK INTER:                  -7.012
REMARK INTRA:                  -0.286
REMARK UNBOUND:                -0.319
REMARK  Name = 20207438
REMARK  4 active torsions:
REMARK  status: ('A' for Active; 'I' for Inactive)
REMARK    1  A    between atoms: N_2  and  C_13
REMARK    2  A    between atoms: C_7  and  C_12
REMARK    3  A    between atoms: C_14  and  C_15
REMARK    4  A    between atoms: C_14  and  C_16
REMARK                            x       y       z     vdW  Elec       q    Type
REMARK                         _______ _______ _______ _____ _____    ______ ____
ROOT
ATOM      1  N   UNL     1     -17.217  41.748 -10.164  0.00  0.00    +0.000 N 
ATOM      2  N   UNL     1     -17.751  43.799 -11.253  0.00  0.00    +0.000 NA
ATOM      3  C   UNL     1     -16.162  44.777 -12.790  0.00  0.00    +0.000 A 
ATOM      4  C   UNL     1     -16.871  42.791 -11.058  0.00  0.00    +0.000 A 
ATOM      5  C   UNL     1     -15.283  43.723 -12.564  0.00  0.00    +0.000 A 
ATOM      6  C   UNL     1     -15.637  42.707 -11.683  0.00  0.00    +0.000 A 
ATOM      7  C   UNL     1     -17.373  44.768 -12.117  0.00  0.00    +0.000 A 
ATOM      8  H   UNL     1     -16.523  41.018 -10.053  0.00  0.00    +0.000 HD
ENDROOT
BRANCH   3  11
ATOM      9  O   UNL     1     -15.793  47.040 -13.328  0.00  0.00    +0.000 OA
ATOM     10  N   UNL     1     -15.504  45.515 -15.016  0.00  0.00    +0.000 N 
ATOM     11  C   UNL     1     -15.821  45.853 -13.703  0.00  0.00    +0.000 C 
ATOM     12  H   UNL     1     -15.497  44.577 -15.397  0.00  0.00    +0.000 HD
ATOM     13  H   UNL     1     -15.255  46.247 -15.675  0.00  0.00    +0.000 HD
ENDBRANCH   3  11
BRANCH   1  14
ATOM     14  C   UNL     1     -18.351  41.624  -9.457  0.00  0.00    +0.000 C 
ATOM     15  C   UNL     1     -19.355  40.742  -9.598  0.00  0.00    +0.000 C 
BRANCH  15  17
ATOM     16  N   UNL     1     -21.408  40.810  -8.024  0.00  0.00    +0.000 NA
ATOM     17  C   UNL     1     -20.487  40.779  -8.731  0.00  0.00    +0.000 C 
ENDBRANCH  15  17
BRANCH  15  19
ATOM     18  N   UNL     1     -19.217  38.957 -11.466  0.00  0.00    +0.000 NA
ATOM     19  C   UNL     1     -19.279  39.759 -10.628  0.00  0.00    +0.000 C 
ENDBRANCH  15  19
ENDBRANCH   1  14
TORSDOF 4
ENDMDL
MODEL 5
REMARK VINA RESULT:    -5.539      4.084      5.788
REMARK INTER + INTRA:          -7.153
REMARK INTER:                  -6.904
REMARK INTRA:                  -0.248
REMARK UNBOUND:                -0.319
REMARK  Name = 20207438
REMARK  4 active torsions:
REMARK  status: ('A' for Active; 'I' for Inactive)
REMARK    1  A    between atoms: N_2  and  C_13
REMARK    2  A    between atoms: C_7  and  C_12
REMARK    3  A    between atoms: C_14  and  C_15
REMARK    4  A    between atoms: C_14  and  C_16
REMARK                            x       y       z     vdW  Elec       q    Type
REMARK                         _______ _______ _______ _____ _____    ______ ____
ROOT
ATOM      1  N   UNL     1     -18.862  43.691 -14.701  0.00  0.00    +0.000 N 
ATOM      2  N   UNL     1     -19.665  41.801 -13.491  0.00  0.00    +0.000 NA
ATOM      3  C   UNL     1     -18.753  41.315 -11.306  0.00  0.00    +0.000 A 
ATOM      4  C   UNL     1     -18.836  42.869 -13.548  0.00  0.00    +0.000 A 
ATOM      5  C   UNL     1     -17.915  42.421 -11.401  0.00  0.00    +0.000 A 
ATOM      6  C   UNL     1     -17.952  43.218 -12.540  0.00  0.00    +0.000 A 
ATOM      7  C   UNL     1     -19.601  41.051 -12.369  0.00  0.00    +0.000 A 
ATOM      8  H   UNL     1     -18.222  44.477 -14.693  0.00  0.00    +0.000 HD
ENDROOT
BRANCH   3  11
ATOM      9  O   UNL     1     -19.538  39.519 -10.001  0.00  0.00    +0.000 OA
ATOM     10  N   UNL     1     -17.778  40.721  -9.154  0.00  0.00    +0.000 N 
ATOM     11  C   UNL     1     -18.737  40.462 -10.131  0.00  0.00    +0.000 C 
ATOM     12  H   UNL     1     -17.090  41.462  -9.187  0.00  0.00    +0.000 HD
ATOM     13  H   UNL     1     -17.740  40.136  -8.325  0.00  0.00    +0.000 HD
ENDBRANCH   3  11
BRANCH   1  14
ATOM     14  C   UNL     1     -19.633  43.544 -15.789  0.00  0.00    +0.000 C 
ATOM     15  C   UNL     1     -20.054  44.467 -16.671  0.00  0.00    +0.000 C 
BRANCH  15  17
ATOM     16  N   UNL     1     -21.552  43.801 -18.673  0.00  0.00    +0.000 NA
ATOM     17  C   UNL     1     -20.879  44.100 -17.775  0.00  0.00    +0.000 C 
ENDBRANCH  15  17
BRANCH  15  19
ATOM     18  N   UNL     1     -19.350  46.935 -16.351  0.00  0.00    +0.000 NA
ATOM     19  C   UNL     1     -19.666  45.827 -16.494  0.00  0.00    +0.000 C 
ENDBRANCH  15  19
ENDBRANCH   1  14
TORSDOF 4
ENDMDL
