MODEL 1
REMARK VINA RESULT:    -6.808      0.000      0.000
REMARK INTER + INTRA:          -7.910
REMARK INTER:                  -7.604
REMARK INTRA:                  -0.306
REMARK UNBOUND:                -0.306
REMARK  Name = 20215045
REMARK  2 active torsions:
REMARK  status: ('A' for Active; 'I' for Inactive)
REMARK    1  A    between atoms: N_2  and  C_5
REMARK    2  A    between atoms: C_6  and  C_7
REMARK                            x       y       z     vdW  Elec       q    Type
REMARK                         _______ _______ _______ _____ _____    ______ ____
ROOT
ATOM      1  O   UNL     1     -20.416  39.100  -9.252  0.00  0.00    +0.000 OA
ATOM      2  N   UNL     1     -19.143  40.989  -9.832  0.00  0.00    +0.000 N 
ATOM      3  C   UNL     1     -20.069  40.261  -9.072  0.00  0.00    +0.000 C 
ATOM      4  H   UNL     1     -18.929  41.939  -9.540  0.00  0.00    +0.000 HD
ENDROOT
BRANCH   3   7
ATOM      5  N   UNL     1     -22.714  41.694  -6.803  0.00  0.00    +0.000 NA
ATOM      6  N   UNL     1     -22.546  43.061  -4.859  0.00  0.00    +0.000 N 
ATOM      7  C   UNL     1     -20.700  41.006  -7.952  0.00  0.00    +0.000 A 
ATOM      8  C   UNL     1     -19.927  41.698  -7.025  0.00  0.00    +0.000 A 
ATOM      9  C   UNL     1     -22.077  41.035  -7.798  0.00  0.00    +0.000 A 
ATOM     10  C   UNL     1     -20.547  42.387  -5.988  0.00  0.00    +0.000 A 
ATOM     11  C   UNL     1     -21.931  42.354  -5.923  0.00  0.00    +0.000 A 
ATOM     12  H   UNL     1     -22.030  43.181  -3.998  0.00  0.00    +0.000 HD
ATOM     13  H   UNL     1     -23.557  43.028  -4.812  0.00  0.00    +0.000 HD
ENDBRANCH   3   7
BRANCH   2  14
ATOM     14  C   UNL     1     -18.421  40.561 -10.946  0.00  0.00    +0.000 A 
ATOM     15  C   UNL     1     -19.037  40.502 -12.195  0.00  0.00    +0.000 A 
ATOM     16  C   UNL     1     -17.081  40.195 -10.810  0.00  0.00    +0.000 A 
ATOM     17  C   UNL     1     -18.315  40.074 -13.310  0.00  0.00    +0.000 A 
ATOM     18  C   UNL     1     -16.359  39.768 -11.924  0.00  0.00    +0.000 A 
ATOM     19  C   UNL     1     -16.976  39.708 -13.173  0.00  0.00    +0.000 A 
ENDBRANCH   2  14
TORSDOF 2
ENDMDL
MODEL 2
REMARK VINA RESULT:    -6.268      4.574      6.378
REMARK INTER + INTRA:          -7.307
REMARK INTER:                  -7.041
REMARK INTRA:                  -0.266
REMARK UNBOUND:                -0.306
REMARK  Name = 20215045
REMARK  2 active torsions:
REMARK  status: ('A' for Active; 'I' for Inactive)
REMARK    1  A    between atoms: N_2  and  C_5
REMARK    2  A    between atoms: C_6  and  C_7
REMARK                            x       y       z     vdW  Elec       q    Type
REMARK                         _______ _______ _______ _____ _____    ______ ____
ROOT
ATOM      1  O   UNL     1     -18.502  44.356 -14.080  0.00  0.00    +0.000 OA
ATOM      2  N   UNL     1     -20.128  42.748 -14.625  0.00  0.00    +0.000 N 
ATOM      3  C   UNL     1     -19.125  43.329 -13.837  0.00  0.00    +0.000 C 
ATOM      4  H   UNL     1     -20.581  41.907 -14.276  0.00  0.00    +0.000 HD
ENDROOT
BRANCH   3   7
ATOM      5  N   UNL     1     -19.141  40.670 -11.168  0.00  0.00    +0.000 NA
ATOM      6  N   UNL     1     -17.890  40.459  -9.151  0.00  0.00    +0.000 N 
ATOM      7  C   UNL     1     -18.782  42.589 -12.595  0.00  0.00    +0.000 A 
ATOM      8  C   UNL     1     -17.826  43.077 -11.710  0.00  0.00    +0.000 A 
ATOM      9  C   UNL     1     -19.405  41.392 -12.281  0.00  0.00    +0.000 A 
ATOM     10  C   UNL     1     -17.527  42.361 -10.555  0.00  0.00    +0.000 A 
ATOM     11  C   UNL     1     -18.207  41.175 -10.332  0.00  0.00    +0.000 A 
ATOM     12  H   UNL     1     -16.962  40.559  -8.761  0.00  0.00    +0.000 HD
ATOM     13  H   UNL     1     -18.384  39.589  -8.996  0.00  0.00    +0.000 HD
ENDBRANCH   3   7
BRANCH   2  14
ATOM     14  C   UNL     1     -20.634  43.202 -15.843  0.00  0.00    +0.000 A 
ATOM     15  C   UNL     1     -21.950  43.657 -15.925  0.00  0.00    +0.000 A 
ATOM     16  C   UNL     1     -19.823  43.202 -16.979  0.00  0.00    +0.000 A 
ATOM     17  C   UNL     1     -22.456  44.111 -17.144  0.00  0.00    +0.000 A 
ATOM     18  C   UNL     1     -20.329  43.657 -18.196  0.00  0.00    +0.000 A 
ATOM     19  C   UNL     1     -21.644  44.111 -18.279  0.00  0.00    +0.000 A 
ENDBRANCH   2  14
TORSDOF 2
ENDMDL
MODEL 3
REMARK VINA RESULT:    -5.904      5.324      8.147
REMARK INTER + INTRA:          -6.900
REMARK INTER:                  -6.571
REMARK INTRA:                  -0.329
REMARK UNBOUND:                -0.306
REMARK  Name = 20215045
REMARK  2 active torsions:
REMARK  status: ('A' for Active; 'I' for Inactive)
REMARK    1  A    between atoms: N_2  and  C_5
REMARK    2  A    between atoms: C_6  and  C_7
REMARK                            x       y       z     vdW  Elec       q    Type
REMARK                         _______ _______ _______ _____ _____    ______ ____
ROOT
ATOM      1  O   UNL     1     -18.828  44.321 -13.793  0.00  0.00    +0.000 OA
ATOM      2  N   UNL     1     -19.145  42.032 -14.229  0.00  0.00    +0.000 N 
ATOM      3  C   UNL     1     -19.197  43.403 -14.517  0.00  0.00    +0.000 C 
ATOM      4  H   UNL     1     -19.459  41.383 -14.945  0.00  0.00    +0.000 HD
ENDROOT
BRANCH   3   7
ATOM      5  N   UNL     1     -19.889  45.272 -17.714  0.00  0.00    +0.000 NA
ATOM      6  N   UNL     1     -21.389  44.818 -19.508  0.00  0.00    +0.000 N 
ATOM      7  C   UNL     1     -19.789  43.756 -15.833  0.00  0.00    +0.000 A 
ATOM      8  C   UNL     1     -20.764  42.954 -16.419  0.00  0.00    +0.000 A 
ATOM      9  C   UNL     1     -19.390  44.894 -16.515  0.00  0.00    +0.000 A 
ATOM     10  C   UNL     1     -21.300  43.311 -17.652  0.00  0.00    +0.000 A 
ATOM     11  C   UNL     1     -20.833  44.470 -18.252  0.00  0.00    +0.000 A 
ATOM     12  H   UNL     1     -21.737  44.077 -20.104  0.00  0.00    +0.000 HD
ATOM     13  H   UNL     1     -21.040  45.661 -19.946  0.00  0.00    +0.000 HD
ENDBRANCH   3   7
BRANCH   2  14
ATOM     14  C   UNL     1     -18.669  41.416 -13.072  0.00  0.00    +0.000 A 
ATOM     15  C   UNL     1     -17.331  41.029 -12.988  0.00  0.00    +0.000 A 
ATOM     16  C   UNL     1     -19.530  41.187 -11.998  0.00  0.00    +0.000 A 
ATOM     17  C   UNL     1     -16.855  40.412 -11.831  0.00  0.00    +0.000 A 
ATOM     18  C   UNL     1     -19.054  40.571 -10.841  0.00  0.00    +0.000 A 
ATOM     19  C   UNL     1     -17.717  40.184 -10.758  0.00  0.00    +0.000 A 
ENDBRANCH   2  14
TORSDOF 2
ENDMDL
MODEL 4
REMARK VINA RESULT:    -5.770      6.336      8.458
REMARK INTER + INTRA:          -6.750
REMARK INTER:                  -6.455
REMARK INTRA:                  -0.295
REMARK UNBOUND:                -0.306
REMARK  Name = 20215045
REMARK  2 active torsions:
REMARK  status: ('A' for Active; 'I' for Inactive)
REMARK    1  A    between atoms: N_2  and  C_5
REMARK    2  A    between atoms: C_6  and  C_7
REMARK                            x       y       z     vdW  Elec       q    Type
REMARK                         _______ _______ _______ _____ _____    ______ ____
ROOT
ATOM      1  O   UNL     1     -19.882  42.275 -16.573  0.00  0.00    +0.000 OA
ATOM      2  N   UNL     1     -19.975  43.531 -14.588  0.00  0.00    +0.000 N 
ATOM      3  C   UNL     1     -20.301  43.220 -15.915  0.00  0.00    +0.000 C 
ATOM      4  H   UNL     1     -20.432  44.333 -14.160  0.00  0.00    +0.000 HD
ENDROOT
BRANCH   3   7
ATOM      5  N   UNL     1     -21.559  46.156 -17.913  0.00  0.00    +0.000 NA
ATOM      6  N   UNL     1     -23.770  46.854 -18.461  0.00  0.00    +0.000 N 
ATOM      7  C   UNL     1     -21.236  44.165 -16.580  0.00  0.00    +0.000 A 
ATOM      8  C   UNL     1     -22.613  43.981 -16.509  0.00  0.00    +0.000 A 
ATOM      9  C   UNL     1     -20.764  45.259 -17.287  0.00  0.00    +0.000 A 
ATOM     10  C   UNL     1     -23.462  44.883 -17.140  0.00  0.00    +0.000 A 
ATOM     11  C   UNL     1     -22.890  45.945 -17.823  0.00  0.00    +0.000 A 
ATOM     12  H   UNL     1     -24.671  46.516 -18.772  0.00  0.00    +0.000 HD
ATOM     13  H   UNL     1     -23.347  47.624 -18.964  0.00  0.00    +0.000 HD
ENDBRANCH   3   7
BRANCH   2  14
ATOM     14  C   UNL     1     -19.114  42.844 -13.732  0.00  0.00    +0.000 A 
ATOM     15  C   UNL     1     -17.788  43.257 -13.600  0.00  0.00    +0.000 A 
ATOM     16  C   UNL     1     -19.579  41.747 -13.007  0.00  0.00    +0.000 A 
ATOM     17  C   UNL     1     -16.926  42.570 -12.744  0.00  0.00    +0.000 A 
ATOM     18  C   UNL     1     -18.718  41.062 -12.150  0.00  0.00    +0.000 A 
ATOM     19  C   UNL     1     -17.392  41.473 -12.019  0.00  0.00    +0.000 A 
ENDBRANCH   2  14
TORSDOF 2
ENDMDL
MODEL 5
REMARK VINA RESULT:    -5.645      5.490      7.439
REMARK INTER + INTRA:          -6.611
REMARK INTER:                  -6.374
REMARK INTRA:                  -0.237
REMARK UNBOUND:                -0.306
REMARK  Name = 20215045
REMARK  2 active torsions:
REMARK  status: ('A' for Active; 'I' for Inactive)
REMARK    1  A    between atoms: N_2  and  C_5
REMARK    2  A    between atoms: C_6  and  C_7
REMARK                            x       y       z     vdW  Elec       q    Type
REMARK                         _______ _______ _______ _____ _____    ______ ____
ROOT
ATOM      1  O   UNL     1     -20.441  42.306 -14.000  0.00  0.00    +0.000 OA
ATOM      2  N   UNL     1     -18.907  43.386 -15.416  0.00  0.00    +0.000 N 
ATOM      3  C   UNL     1     -19.297  42.609 -14.317  0.00  0.00    +0.000 C 
ATOM      4  H   UNL     1     -17.912  43.526 -15.572  0.00  0.00    +0.000 HD
ENDROOT
BRANCH   3   7
ATOM      5  N   UNL     1     -16.172  42.641 -12.213  0.00  0.00    +0.000 NA
ATOM      6  N   UNL     1     -15.062  40.903 -11.019  0.00  0.00    +0.000 N 
ATOM      7  C   UNL     1     -18.190  42.136 -13.446  0.00  0.00    +0.000 A 
ATOM      8  C   UNL     1     -18.107  40.804 -13.051  0.00  0.00    +0.000 A 
ATOM      9  C   UNL     1     -17.206  43.006 -13.004  0.00  0.00    +0.000 A 
ATOM     10  C   UNL     1     -17.057  40.392 -12.236  0.00  0.00    +0.000 A 
ATOM     11  C   UNL     1     -16.124  41.340 -11.849  0.00  0.00    +0.000 A 
ATOM     12  H   UNL     1     -15.222  40.112 -10.409  0.00  0.00    +0.000 HD
ATOM     13  H   UNL     1     -14.387  41.601 -10.732  0.00  0.00    +0.000 HD
ENDBRANCH   3   7
BRANCH   2  14
ATOM     14  C   UNL     1     -19.722  43.979 -16.380  0.00  0.00    +0.000 A 
ATOM     15  C   UNL     1     -20.476  43.183 -17.242  0.00  0.00    +0.000 A 
ATOM     16  C   UNL     1     -19.785  45.370 -16.481  0.00  0.00    +0.000 A 
ATOM     17  C   UNL     1     -21.291  43.777 -18.207  0.00  0.00    +0.000 A 
ATOM     18  C   UNL     1     -20.600  45.963 -17.444  0.00  0.00    +0.000 A 
ATOM     19  C   UNL     1     -21.353  45.167 -18.307  0.00  0.00    +0.000 A 
ENDBRANCH   2  14
TORSDOF 2
ENDMDL
