MODEL 1
REMARK VINA RESULT:    -6.632      0.000      0.000
REMARK INTER + INTRA:          -8.437
REMARK INTER:                  -8.183
REMARK INTRA:                  -0.255
REMARK UNBOUND:                -0.255
REMARK  Name = 20215042
REMARK  5 active torsions:
REMARK  status: ('A' for Active; 'I' for Inactive)
REMARK    1  A    between atoms: N_2  and  C_6
REMARK    2  A    between atoms: C_5  and  C_6
REMARK    3  A    between atoms: C_5  and  C_7
REMARK    4  A    between atoms: C_7  and  C_8
REMARK    5  A    between atoms: C_9  and  C_10
REMARK                            x       y       z     vdW  Elec       q    Type
REMARK                         _______ _______ _______ _____ _____    ______ ____
ROOT
ATOM      1  N   UNL     1     -19.244  42.323  -7.361  0.00  0.00    +0.000 NA
ATOM      2  N   UNL     1     -21.196  42.720  -6.054  0.00  0.00    +0.000 N 
ATOM      3  C   UNL     1     -19.325  40.705  -9.157  0.00  0.00    +0.000 A 
ATOM      4  C   UNL     1     -20.659  40.442  -8.870  0.00  0.00    +0.000 A 
ATOM      5  C   UNL     1     -18.667  41.647  -8.380  0.00  0.00    +0.000 A 
ATOM      6  C   UNL     1     -21.287  41.118  -7.829  0.00  0.00    +0.000 A 
ATOM      7  C   UNL     1     -20.543  42.040  -7.111  0.00  0.00    +0.000 A 
ATOM      8  H   UNL     1     -20.650  43.397  -5.536  0.00  0.00    +0.000 HD
ATOM      9  H   UNL     1     -22.197  42.858  -6.117  0.00  0.00    +0.000 HD
ENDROOT
BRANCH   3  12
ATOM     10  O   UNL     1     -19.225  39.139 -10.897  0.00  0.00    +0.000 OA
ATOM     11  N   UNL     1     -17.318  40.402 -10.514  0.00  0.00    +0.000 N 
ATOM     12  C   UNL     1     -18.625  40.002 -10.262  0.00  0.00    +0.000 C 
ATOM     13  H   UNL     1     -16.903  41.162  -9.987  0.00  0.00    +0.000 HD
BRANCH  11  14
ATOM     14  C   UNL     1     -16.521  39.834 -11.565  0.00  0.00    +0.000 C 
BRANCH  14  15
ATOM     15  C   UNL     1     -17.004  40.249 -12.951  0.00  0.00    +0.000 C 
BRANCH  15  16
ATOM     16  C   UNL     1     -17.173  41.764 -13.086  0.00  0.00    +0.000 C 
ATOM     17  C   UNL     1     -18.586  42.129 -13.513  0.00  0.00    +0.000 C 
ENDBRANCH  15  16
ENDBRANCH  14  15
ENDBRANCH  11  14
ENDBRANCH   3  12
TORSDOF 4
ENDMDL
MODEL 2
REMARK VINA RESULT:    -6.604      1.616      2.273
REMARK INTER + INTRA:          -8.403
REMARK INTER:                  -8.098
REMARK INTRA:                  -0.305
REMARK UNBOUND:                -0.255
REMARK  Name = 20215042
REMARK  5 active torsions:
REMARK  status: ('A' for Active; 'I' for Inactive)
REMARK    1  A    between atoms: N_2  and  C_6
REMARK    2  A    between atoms: C_5  and  C_6
REMARK    3  A    between atoms: C_5  and  C_7
REMARK    4  A    between atoms: C_7  and  C_8
REMARK    5  A    between atoms: C_9  and  C_10
REMARK                            x       y       z     vdW  Elec       q    Type
REMARK                         _______ _______ _______ _____ _____    ______ ____
ROOT
ATOM      1  N   UNL     1     -22.252  41.367  -7.452  0.00  0.00    +0.000 NA
ATOM      2  N   UNL     1     -22.578  42.835  -5.604  0.00  0.00    +0.000 N 
ATOM      3  C   UNL     1     -20.026  41.060  -8.348  0.00  0.00    +0.000 A 
ATOM      4  C   UNL     1     -19.516  41.943  -7.403  0.00  0.00    +0.000 A 
ATOM      5  C   UNL     1     -21.389  40.807  -8.331  0.00  0.00    +0.000 A 
ATOM      6  C   UNL     1     -20.372  42.538  -6.482  0.00  0.00    +0.000 A 
ATOM      7  C   UNL     1     -21.719  42.220  -6.548  0.00  0.00    +0.000 A 
ATOM      8  H   UNL     1     -23.560  42.595  -5.652  0.00  0.00    +0.000 HD
ATOM      9  H   UNL     1     -22.193  43.103  -4.707  0.00  0.00    +0.000 HD
ENDROOT
BRANCH   3  12
ATOM     10  O   UNL     1     -17.931  40.354  -9.127  0.00  0.00    +0.000 OA
ATOM     11  N   UNL     1     -19.764  39.871 -10.464  0.00  0.00    +0.000 N 
ATOM     12  C   UNL     1     -19.139  40.407  -9.344  0.00  0.00    +0.000 C 
ATOM     13  H   UNL     1     -20.774  39.900 -10.552  0.00  0.00    +0.000 HD
BRANCH  11  14
ATOM     14  C   UNL     1     -19.044  39.187 -11.502  0.00  0.00    +0.000 C 
BRANCH  14  15
ATOM     15  C   UNL     1     -18.803  40.071 -12.721  0.00  0.00    +0.000 C 
BRANCH  15  16
ATOM     16  C   UNL     1     -17.342  40.506 -12.853  0.00  0.00    +0.000 C 
ATOM     17  C   UNL     1     -16.426  39.640 -12.001  0.00  0.00    +0.000 C 
ENDBRANCH  15  16
ENDBRANCH  14  15
ENDBRANCH  11  14
ENDBRANCH   3  12
TORSDOF 4
ENDMDL
MODEL 3
REMARK VINA RESULT:    -5.844      2.570      5.878
REMARK INTER + INTRA:          -7.465
REMARK INTER:                  -7.257
REMARK INTRA:                  -0.208
REMARK UNBOUND:                -0.255
REMARK  Name = 20215042
REMARK  5 active torsions:
REMARK  status: ('A' for Active; 'I' for Inactive)
REMARK    1  A    between atoms: N_2  and  C_6
REMARK    2  A    between atoms: C_5  and  C_6
REMARK    3  A    between atoms: C_5  and  C_7
REMARK    4  A    between atoms: C_7  and  C_8
REMARK    5  A    between atoms: C_9  and  C_10
REMARK                            x       y       z     vdW  Elec       q    Type
REMARK                         _______ _______ _______ _____ _____    ______ ____
ROOT
ATOM      1  N   UNL     1     -19.432  42.208 -14.135  0.00  0.00    +0.000 NA
ATOM      2  N   UNL     1     -18.846  44.179 -15.338  0.00  0.00    +0.000 N 
ATOM      3  C   UNL     1     -18.612  41.904 -11.881  0.00  0.00    +0.000 A 
ATOM      4  C   UNL     1     -17.951  43.126 -11.948  0.00  0.00    +0.000 A 
ATOM      5  C   UNL     1     -19.333  41.494 -12.991  0.00  0.00    +0.000 A 
ATOM      6  C   UNL     1     -18.030  43.889 -13.108  0.00  0.00    +0.000 A 
ATOM      7  C   UNL     1     -18.776  43.390 -14.164  0.00  0.00    +0.000 A 
ATOM      8  H   UNL     1     -19.398  43.814 -16.105  0.00  0.00    +0.000 HD
ATOM      9  H   UNL     1     -18.754  45.184 -15.250  0.00  0.00    +0.000 HD
ENDROOT
BRANCH   3  12
ATOM     10  O   UNL     1     -17.477  40.565 -10.328  0.00  0.00    +0.000 OA
ATOM     11  N   UNL     1     -19.735  40.929  -9.945  0.00  0.00    +0.000 N 
ATOM     12  C   UNL     1     -18.549  41.066 -10.656  0.00  0.00    +0.000 C 
ATOM     13  H   UNL     1     -20.572  41.417 -10.243  0.00  0.00    +0.000 HD
BRANCH  11  14
ATOM     14  C   UNL     1     -19.828  40.170  -8.729  0.00  0.00    +0.000 C 
BRANCH  14  15
ATOM     15  C   UNL     1     -19.839  41.059  -7.489  0.00  0.00    +0.000 C 
BRANCH  15  16
ATOM     16  C   UNL     1     -21.188  41.746  -7.269  0.00  0.00    +0.000 C 
ATOM     17  C   UNL     1     -21.392  42.116  -5.808  0.00  0.00    +0.000 C 
ENDBRANCH  15  16
ENDBRANCH  14  15
ENDBRANCH  11  14
ENDBRANCH   3  12
TORSDOF 4
ENDMDL
MODEL 4
REMARK VINA RESULT:    -5.416      2.042      2.408
REMARK INTER + INTRA:          -6.938
REMARK INTER:                  -6.702
REMARK INTRA:                  -0.235
REMARK UNBOUND:                -0.255
REMARK  Name = 20215042
REMARK  5 active torsions:
REMARK  status: ('A' for Active; 'I' for Inactive)
REMARK    1  A    between atoms: N_2  and  C_6
REMARK    2  A    between atoms: C_5  and  C_6
REMARK    3  A    between atoms: C_5  and  C_7
REMARK    4  A    between atoms: C_7  and  C_8
REMARK    5  A    between atoms: C_9  and  C_10
REMARK                            x       y       z     vdW  Elec       q    Type
REMARK                         _______ _______ _______ _____ _____    ______ ____
ROOT
ATOM      1  N   UNL     1     -21.293  40.656  -8.515  0.00  0.00    +0.000 NA
ATOM      2  N   UNL     1     -22.283  41.583  -6.556  0.00  0.00    +0.000 N 
ATOM      3  C   UNL     1     -19.035  41.281  -9.115  0.00  0.00    +0.000 A 
ATOM      4  C   UNL     1     -18.959  42.106  -7.999  0.00  0.00    +0.000 A 
ATOM      5  C   UNL     1     -20.214  40.582  -9.327  0.00  0.00    +0.000 A 
ATOM      6  C   UNL     1     -20.049  42.207  -7.140  0.00  0.00    +0.000 A 
ATOM      7  C   UNL     1     -21.182  41.468  -7.440  0.00  0.00    +0.000 A 
ATOM      8  H   UNL     1     -23.107  41.037  -6.776  0.00  0.00    +0.000 HD
ATOM      9  H   UNL     1     -22.100  41.806  -5.586  0.00  0.00    +0.000 HD
ENDROOT
BRANCH   3  12
ATOM     10  O   UNL     1     -17.627  40.048 -10.527  0.00  0.00    +0.000 OA
ATOM     11  N   UNL     1     -17.196  42.320 -10.340  0.00  0.00    +0.000 N 
ATOM     12  C   UNL     1     -17.889  41.150 -10.051  0.00  0.00    +0.000 C 
ATOM     13  H   UNL     1     -17.502  43.206  -9.954  0.00  0.00    +0.000 HD
BRANCH  11  14
ATOM     14  C   UNL     1     -16.082  42.358 -11.245  0.00  0.00    +0.000 C 
BRANCH  14  15
ATOM     15  C   UNL     1     -15.753  43.776 -11.703  0.00  0.00    +0.000 C 
BRANCH  15  16
ATOM     16  C   UNL     1     -16.871  44.396 -12.545  0.00  0.00    +0.000 C 
ATOM     17  C   UNL     1     -17.467  45.618 -11.862  0.00  0.00    +0.000 C 
ENDBRANCH  15  16
ENDBRANCH  14  15
ENDBRANCH  11  14
ENDBRANCH   3  12
TORSDOF 4
ENDMDL
MODEL 5
REMARK VINA RESULT:    -5.368      3.827      5.566
REMARK INTER + INTRA:          -6.878
REMARK INTER:                  -6.655
REMARK INTRA:                  -0.223
REMARK UNBOUND:                -0.255
REMARK  Name = 20215042
REMARK  5 active torsions:
REMARK  status: ('A' for Active; 'I' for Inactive)
REMARK    1  A    between atoms: N_2  and  C_6
REMARK    2  A    between atoms: C_5  and  C_6
REMARK    3  A    between atoms: C_5  and  C_7
REMARK    4  A    between atoms: C_7  and  C_8
REMARK    5  A    between atoms: C_9  and  C_10
REMARK                            x       y       z     vdW  Elec       q    Type
REMARK                         _______ _______ _______ _____ _____    ______ ____
ROOT
ATOM      1  N   UNL     1     -19.013  40.800 -11.406  0.00  0.00    +0.000 NA
ATOM      2  N   UNL     1     -17.840  40.765  -9.332  0.00  0.00    +0.000 N 
ATOM      3  C   UNL     1     -18.774  42.707 -12.874  0.00  0.00    +0.000 A 
ATOM      4  C   UNL     1     -17.910  43.308 -11.966  0.00  0.00    +0.000 A 
ATOM      5  C   UNL     1     -19.294  41.463 -12.551  0.00  0.00    +0.000 A 
ATOM      6  C   UNL     1     -17.597  42.657 -10.778  0.00  0.00    +0.000 A 
ATOM      7  C   UNL     1     -18.169  41.416 -10.547  0.00  0.00    +0.000 A 
ATOM      8  H   UNL     1     -18.256  39.857  -9.171  0.00  0.00    +0.000 HD
ATOM      9  H   UNL     1     -16.943  40.965  -8.907  0.00  0.00    +0.000 HD
ENDROOT
BRANCH   3  12
ATOM     10  O   UNL     1     -18.790  44.543 -14.332  0.00  0.00    +0.000 OA
ATOM     11  N   UNL     1     -19.812  42.600 -15.081  0.00  0.00    +0.000 N 
ATOM     12  C   UNL     1     -19.128  43.376 -14.152  0.00  0.00    +0.000 C 
ATOM     13  H   UNL     1     -20.010  41.625 -14.889  0.00  0.00    +0.000 HD
BRANCH  11  14
ATOM     14  C   UNL     1     -20.202  43.098 -16.371  0.00  0.00    +0.000 C 
BRANCH  14  15
ATOM     15  C   UNL     1     -21.691  43.418 -16.446  0.00  0.00    +0.000 C 
BRANCH  15  16
ATOM     16  C   UNL     1     -21.971  44.757 -17.131  0.00  0.00    +0.000 C 
ATOM     17  C   UNL     1     -23.459  45.074 -17.143  0.00  0.00    +0.000 C 
ENDBRANCH  15  16
ENDBRANCH  14  15
ENDBRANCH  11  14
ENDBRANCH   3  12
TORSDOF 4
ENDMDL
