MODEL 1
REMARK VINA RESULT:    -5.012      0.000      0.000
REMARK INTER + INTRA:          -5.642
REMARK INTER:                  -5.891
REMARK INTRA:                   0.248
REMARK UNBOUND:                 0.248
REMARK  Name = 20215021
REMARK  7 active torsions:
REMARK  status: ('A' for Active; 'I' for Inactive)
REMARK    1  A    between atoms: N_2  and  C_5
REMARK    2  A    between atoms: N_2  and  C_6
REMARK    3  A    between atoms: C_5  and  C_7
REMARK    4  A    between atoms: C_5  and  C_8
REMARK    5  A    between atoms: C_6  and  C_9
REMARK    6  A    between atoms: C_6  and  C_10
REMARK    7  A    between atoms: C_11  and  C_12
REMARK                            x       y       z     vdW  Elec       q    Type
REMARK                         _______ _______ _______ _____ _____    ______ ____
ROOT
ATOM      1  O   UNL     1     -15.339  42.594 -11.692  0.00  0.00    +0.000 OA
ATOM      2  N   UNL     1     -16.702  44.485 -11.872  0.00  0.00    +0.000 N 
ATOM      3  C   UNL     1     -16.425  43.151 -11.538  0.00  0.00    +0.000 C 
ENDROOT
BRANCH   3   6
ATOM      4  N   UNL     1     -19.269  40.721 -11.235  0.00  0.00    +0.000 NA
ATOM      5  N   UNL     1     -20.528  40.006  -9.342  0.00  0.00    +0.000 N 
ATOM      6  C   UNL     1     -17.494  42.336 -10.939  0.00  0.00    +0.000 A 
ATOM      7  C   UNL     1     -17.756  42.387  -9.575  0.00  0.00    +0.000 A 
ATOM      8  C   UNL     1     -18.273  41.494 -11.719  0.00  0.00    +0.000 A 
ATOM      9  C   UNL     1     -18.774  41.604  -9.038  0.00  0.00    +0.000 A 
ATOM     10  C   UNL     1     -19.495  40.796  -9.903  0.00  0.00    +0.000 A 
ATOM     11  H   UNL     1     -20.442  39.716  -8.375  0.00  0.00    +0.000 HD
ATOM     12  H   UNL     1     -21.048  39.411  -9.975  0.00  0.00    +0.000 HD
ENDBRANCH   3   6
BRANCH   2  13
ATOM     13  C   UNL     1     -15.661  45.310 -12.445  0.00  0.00    +0.000 C 
ATOM     14  C   UNL     1     -15.495  44.959 -13.918  0.00  0.00    +0.000 C 
ATOM     15  C   UNL     1     -14.363  45.102 -11.675  0.00  0.00    +0.000 C 
ENDBRANCH   2  13
BRANCH   2  16
ATOM     16  C   UNL     1     -18.004  45.131 -11.682  0.00  0.00    +0.000 C 
ATOM     17  C   UNL     1     -18.817  45.007 -12.963  0.00  0.00    +0.000 C 
ATOM     18  C   UNL     1     -17.796  46.590 -11.296  0.00  0.00    +0.000 C 
ENDBRANCH   2  16
TORSDOF 3
ENDMDL
MODEL 2
REMARK VINA RESULT:    -4.608     14.246     15.837
REMARK INTER + INTRA:          -5.168
REMARK INTER:                  -5.387
REMARK INTRA:                   0.219
REMARK UNBOUND:                 0.248
REMARK  Name = 20215021
REMARK  7 active torsions:
REMARK  status: ('A' for Active; 'I' for Inactive)
REMARK    1  A    between atoms: N_2  and  C_5
REMARK    2  A    between atoms: N_2  and  C_6
REMARK    3  A    between atoms: C_5  and  C_7
REMARK    4  A    between atoms: C_5  and  C_8
REMARK    5  A    between atoms: C_6  and  C_9
REMARK    6  A    between atoms: C_6  and  C_10
REMARK    7  A    between atoms: C_11  and  C_12
REMARK                            x       y       z     vdW  Elec       q    Type
REMARK                         _______ _______ _______ _____ _____    ______ ____
ROOT
ATOM      1  O   UNL     1     -30.423  44.924 -16.316  0.00  0.00    +0.000 OA
ATOM      2  N   UNL     1     -32.186  43.926 -15.148  0.00  0.00    +0.000 N 
ATOM      3  C   UNL     1     -31.290  44.056 -16.220  0.00  0.00    +0.000 C 
ENDROOT
BRANCH   3   6
ATOM      4  N   UNL     1     -32.079  42.560 -19.571  0.00  0.00    +0.000 NA
ATOM      5  N   UNL     1     -31.610  40.407 -20.478  0.00  0.00    +0.000 N 
ATOM      6  C   UNL     1     -31.362  43.083 -17.322  0.00  0.00    +0.000 A 
ATOM      7  C   UNL     1     -30.813  41.812 -17.192  0.00  0.00    +0.000 A 
ATOM      8  C   UNL     1     -31.978  43.405 -18.521  0.00  0.00    +0.000 A 
ATOM      9  C   UNL     1     -30.897  40.914 -18.251  0.00  0.00    +0.000 A 
ATOM     10  C   UNL     1     -31.534  41.332 -19.408  0.00  0.00    +0.000 A 
ATOM     11  H   UNL     1     -30.888  39.702 -20.558  0.00  0.00    +0.000 HD
ATOM     12  H   UNL     1     -32.070  40.719 -21.324  0.00  0.00    +0.000 HD
ENDBRANCH   3   6
BRANCH   2  13
ATOM     13  C   UNL     1     -32.123  44.861 -14.045  0.00  0.00    +0.000 C 
ATOM     14  C   UNL     1     -32.702  46.198 -14.486  0.00  0.00    +0.000 C 
ATOM     15  C   UNL     1     -30.678  45.007 -13.582  0.00  0.00    +0.000 C 
ENDBRANCH   2  13
BRANCH   2  16
ATOM     16  C   UNL     1     -33.213  42.886 -15.051  0.00  0.00    +0.000 C 
ATOM     17  C   UNL     1     -34.481  43.368 -15.743  0.00  0.00    +0.000 C 
ATOM     18  C   UNL     1     -33.470  42.559 -13.586  0.00  0.00    +0.000 C 
ENDBRANCH   2  16
TORSDOF 3
ENDMDL
MODEL 3
REMARK VINA RESULT:    -4.443      2.263      3.494
REMARK INTER + INTRA:          -4.974
REMARK INTER:                  -5.100
REMARK INTRA:                   0.125
REMARK UNBOUND:                 0.248
REMARK  Name = 20215021
REMARK  7 active torsions:
REMARK  status: ('A' for Active; 'I' for Inactive)
REMARK    1  A    between atoms: N_2  and  C_5
REMARK    2  A    between atoms: N_2  and  C_6
REMARK    3  A    between atoms: C_5  and  C_7
REMARK    4  A    between atoms: C_5  and  C_8
REMARK    5  A    between atoms: C_6  and  C_9
REMARK    6  A    between atoms: C_6  and  C_10
REMARK    7  A    between atoms: C_11  and  C_12
REMARK                            x       y       z     vdW  Elec       q    Type
REMARK                         _______ _______ _______ _____ _____    ______ ____
ROOT
ATOM      1  O   UNL     1     -19.138  46.098 -12.061  0.00  0.00    +0.000 OA
ATOM      2  N   UNL     1     -17.129  45.969 -13.250  0.00  0.00    +0.000 N 
ATOM      3  C   UNL     1     -18.279  45.439 -12.646  0.00  0.00    +0.000 C 
ENDROOT
BRANCH   3   6
ATOM      4  N   UNL     1     -19.473  42.103 -13.883  0.00  0.00    +0.000 NA
ATOM      5  N   UNL     1     -19.203  39.909 -12.992  0.00  0.00    +0.000 N 
ATOM      6  C   UNL     1     -18.508  43.987 -12.715  0.00  0.00    +0.000 A 
ATOM      7  C   UNL     1     -18.010  43.135 -11.735  0.00  0.00    +0.000 A 
ATOM      8  C   UNL     1     -19.226  43.426 -13.759  0.00  0.00    +0.000 A 
ATOM      9  C   UNL     1     -18.243  41.766 -11.828  0.00  0.00    +0.000 A 
ATOM     10  C   UNL     1     -18.974  41.305 -12.911  0.00  0.00    +0.000 A 
ATOM     11  H   UNL     1     -18.526  39.285 -12.569  0.00  0.00    +0.000 HD
ATOM     12  H   UNL     1     -19.731  39.575 -13.788  0.00  0.00    +0.000 HD
ENDBRANCH   3   6
BRANCH   2  13
ATOM     13  C   UNL     1     -16.892  47.395 -13.210  0.00  0.00    +0.000 C 
ATOM     14  C   UNL     1     -16.700  47.832 -11.764  0.00  0.00    +0.000 C 
ATOM     15  C   UNL     1     -18.061  48.125 -13.860  0.00  0.00    +0.000 C 
ENDBRANCH   2  13
BRANCH   2  16
ATOM     16  C   UNL     1     -16.115  45.167 -13.941  0.00  0.00    +0.000 C 
ATOM     17  C   UNL     1     -15.014  44.796 -12.957  0.00  0.00    +0.000 C 
ATOM     18  C   UNL     1     -15.562  45.955 -15.121  0.00  0.00    +0.000 C 
ENDBRANCH   2  16
TORSDOF 3
ENDMDL
MODEL 4
REMARK VINA RESULT:    -4.429     14.299     15.837
REMARK INTER + INTRA:          -4.958
REMARK INTER:                  -5.103
REMARK INTRA:                   0.145
REMARK UNBOUND:                 0.248
REMARK  Name = 20215021
REMARK  7 active torsions:
REMARK  status: ('A' for Active; 'I' for Inactive)
REMARK    1  A    between atoms: N_2  and  C_5
REMARK    2  A    between atoms: N_2  and  C_6
REMARK    3  A    between atoms: C_5  and  C_7
REMARK    4  A    between atoms: C_5  and  C_8
REMARK    5  A    between atoms: C_6  and  C_9
REMARK    6  A    between atoms: C_6  and  C_10
REMARK    7  A    between atoms: C_11  and  C_12
REMARK                            x       y       z     vdW  Elec       q    Type
REMARK                         _______ _______ _______ _____ _____    ______ ____
ROOT
ATOM      1  O   UNL     1     -32.499  42.665 -14.673  0.00  0.00    +0.000 OA
ATOM      2  N   UNL     1     -31.911  44.676 -15.709  0.00  0.00    +0.000 N 
ATOM      3  C   UNL     1     -32.178  43.299 -15.677  0.00  0.00    +0.000 C 
ENDROOT
BRANCH   3   6
ATOM      4  N   UNL     1     -33.105  41.868 -19.019  0.00  0.00    +0.000 NA
ATOM      5  N   UNL     1     -31.924  40.405 -20.484  0.00  0.00    +0.000 N 
ATOM      6  C   UNL     1     -32.088  42.533 -16.930  0.00  0.00    +0.000 A 
ATOM      7  C   UNL     1     -30.963  41.770 -17.225  0.00  0.00    +0.000 A 
ATOM      8  C   UNL     1     -33.123  42.548 -17.852  0.00  0.00    +0.000 A 
ATOM      9  C   UNL     1     -30.908  41.056 -18.418  0.00  0.00    +0.000 A 
ATOM     10  C   UNL     1     -31.996  41.137 -19.273  0.00  0.00    +0.000 A 
ATOM     11  H   UNL     1     -31.011  40.224 -20.885  0.00  0.00    +0.000 HD
ATOM     12  H   UNL     1     -32.717  40.472 -21.109  0.00  0.00    +0.000 HD
ENDBRANCH   3   6
BRANCH   2  13
ATOM     13  C   UNL     1     -32.010  45.454 -14.493  0.00  0.00    +0.000 C 
ATOM     14  C   UNL     1     -30.920  45.013 -13.525  0.00  0.00    +0.000 C 
ATOM     15  C   UNL     1     -33.396  45.277 -13.886  0.00  0.00    +0.000 C 
ENDBRANCH   2  13
BRANCH   2  16
ATOM     16  C   UNL     1     -31.527  45.415 -16.915  0.00  0.00    +0.000 C 
ATOM     17  C   UNL     1     -30.015  45.600 -16.931  0.00  0.00    +0.000 C 
ATOM     18  C   UNL     1     -32.250  46.755 -16.943  0.00  0.00    +0.000 C 
ENDBRANCH   2  16
TORSDOF 3
ENDMDL
MODEL 5
REMARK VINA RESULT:    -4.319     15.025     16.478
REMARK INTER + INTRA:          -4.829
REMARK INTER:                  -4.980
REMARK INTRA:                   0.151
REMARK UNBOUND:                 0.248
REMARK  Name = 20215021
REMARK  7 active torsions:
REMARK  status: ('A' for Active; 'I' for Inactive)
REMARK    1  A    between atoms: N_2  and  C_5
REMARK    2  A    between atoms: N_2  and  C_6
REMARK    3  A    between atoms: C_5  and  C_7
REMARK    4  A    between atoms: C_5  and  C_8
REMARK    5  A    between atoms: C_6  and  C_9
REMARK    6  A    between atoms: C_6  and  C_10
REMARK    7  A    between atoms: C_11  and  C_12
REMARK                            x       y       z     vdW  Elec       q    Type
REMARK                         _______ _______ _______ _____ _____    ______ ____
ROOT
ATOM      1  O   UNL     1     -32.439  45.540 -15.828  0.00  0.00    +0.000 OA
ATOM      2  N   UNL     1     -33.483  43.980 -14.433  0.00  0.00    +0.000 N 
ATOM      3  C   UNL     1     -32.742  44.379 -15.555  0.00  0.00    +0.000 C 
ENDROOT
BRANCH   3   6
ATOM      4  N   UNL     1     -32.701  41.924 -18.394  0.00  0.00    +0.000 NA
ATOM      5  N   UNL     1     -31.001  40.441 -19.162  0.00  0.00    +0.000 N 
ATOM      6  C   UNL     1     -32.263  43.346 -16.489  0.00  0.00    +0.000 A 
ATOM      7  C   UNL     1     -30.982  42.818 -16.378  0.00  0.00    +0.000 A 
ATOM      8  C   UNL     1     -33.076  42.870 -17.505  0.00  0.00    +0.000 A 
ATOM      9  C   UNL     1     -30.558  41.843 -17.276  0.00  0.00    +0.000 A 
ATOM     10  C   UNL     1     -31.447  41.433 -18.256  0.00  0.00    +0.000 A 
ATOM     11  H   UNL     1     -30.009  40.378 -19.359  0.00  0.00    +0.000 HD
ATOM     12  H   UNL     1     -31.651  40.149 -19.882  0.00  0.00    +0.000 HD
ENDBRANCH   3   6
BRANCH   2  13
ATOM     13  C   UNL     1     -33.948  44.976 -13.492  0.00  0.00    +0.000 C 
ATOM     14  C   UNL     1     -34.901  45.930 -14.201  0.00  0.00    +0.000 C 
ATOM     15  C   UNL     1     -32.755  45.718 -12.903  0.00  0.00    +0.000 C 
ENDBRANCH   2  13
BRANCH   2  16
ATOM     16  C   UNL     1     -33.835  42.591 -14.126  0.00  0.00    +0.000 C 
ATOM     17  C   UNL     1     -35.258  42.319 -14.596  0.00  0.00    +0.000 C 
ATOM     18  C   UNL     1     -33.688  42.348 -12.630  0.00  0.00    +0.000 C 
ENDBRANCH   2  16
TORSDOF 3
ENDMDL
