MODEL 1
REMARK VINA RESULT:    -7.453      0.000      0.000
REMARK INTER + INTRA:          -8.181
REMARK INTER:                  -8.106
REMARK INTRA:                  -0.075
REMARK UNBOUND:                -0.075
REMARK  Name = 20321104
REMARK  2 active torsions:
REMARK  status: ('A' for Active; 'I' for Inactive)
REMARK    1  A    between atoms: O_2  and  N_7
REMARK    2  A    between atoms: C_8  and  C_13
REMARK                            x       y       z     vdW  Elec       q    Type
REMARK                         _______ _______ _______ _____ _____    ______ ____
ROOT
ATOM      1  O   UNL     1     -17.237  40.381 -11.042  0.00  0.00    +0.000 OA
ATOM      2  O   UNL     1     -18.865  38.968 -11.458  0.00  0.00    +0.000 OA
ATOM      3  N   UNL     1     -20.327  39.937  -9.391  0.00  0.00    +0.000 NA
ATOM      4  N   UNL     1     -18.362  39.898 -10.791  0.00  0.00    +0.000 N 
ATOM      5  C   UNL     1     -20.431  41.531  -7.576  0.00  0.00    +0.000 A 
ATOM      6  C   UNL     1     -19.173  42.014  -7.918  0.00  0.00    +0.000 A 
ATOM      7  C   UNL     1     -18.490  41.460  -8.996  0.00  0.00    +0.000 A 
ATOM      8  C   UNL     1     -19.106  40.432  -9.693  0.00  0.00    +0.000 A 
ATOM      9  C   UNL     1     -20.960  40.501  -8.337  0.00  0.00    +0.000 A 
ENDROOT
BRANCH   5  12
ATOM     10  O   UNL     1     -20.696  42.054  -5.302  0.00  0.00    +0.000 OA
ATOM     11  N   UNL     1     -22.414  42.638  -6.724  0.00  0.00    +0.000 N 
ATOM     12  C   UNL     1     -21.168  42.087  -6.454  0.00  0.00    +0.000 C 
ATOM     13  H   UNL     1     -22.901  42.618  -7.612  0.00  0.00    +0.000 HD
BRANCH  11  14
ATOM     14  O   UNL     1     -23.126  43.161  -5.634  0.00  0.00    +0.000 OA
ATOM     15  H   UNL     1     -22.392  43.374  -5.034  0.00  0.00    +0.000 HD
ENDBRANCH  11  14
ENDBRANCH   5  12
TORSDOF 2
ENDMDL
MODEL 2
REMARK VINA RESULT:    -7.275      1.230      5.307
REMARK INTER + INTRA:          -7.988
REMARK INTER:                  -7.897
REMARK INTRA:                  -0.090
REMARK UNBOUND:                -0.075
REMARK  Name = 20321104
REMARK  2 active torsions:
REMARK  status: ('A' for Active; 'I' for Inactive)
REMARK    1  A    between atoms: O_2  and  N_7
REMARK    2  A    between atoms: C_8  and  C_13
REMARK                            x       y       z     vdW  Elec       q    Type
REMARK                         _______ _______ _______ _____ _____    ______ ____
ROOT
ATOM      1  O   UNL     1     -21.928  42.661  -5.779  0.00  0.00    +0.000 OA
ATOM      2  O   UNL     1     -23.336  41.232  -6.671  0.00  0.00    +0.000 OA
ATOM      3  N   UNL     1     -21.468  40.399  -8.452  0.00  0.00    +0.000 NA
ATOM      4  N   UNL     1     -22.210  41.773  -6.611  0.00  0.00    +0.000 N 
ATOM      5  C   UNL     1     -19.199  40.648  -9.249  0.00  0.00    +0.000 A 
ATOM      6  C   UNL     1     -18.964  41.630  -8.293  0.00  0.00    +0.000 A 
ATOM      7  C   UNL     1     -19.979  41.998  -7.416  0.00  0.00    +0.000 A 
ATOM      8  C   UNL     1     -21.202  41.358  -7.536  0.00  0.00    +0.000 A 
ATOM      9  C   UNL     1     -20.457  40.068  -9.286  0.00  0.00    +0.000 A 
ENDROOT
BRANCH   5  12
ATOM     10  O   UNL     1     -18.351  39.309 -10.981  0.00  0.00    +0.000 OA
ATOM     11  N   UNL     1     -16.956  40.933 -10.126  0.00  0.00    +0.000 N 
ATOM     12  C   UNL     1     -18.160  40.244 -10.181  0.00  0.00    +0.000 C 
ATOM     13  H   UNL     1     -16.696  41.636  -9.445  0.00  0.00    +0.000 HD
BRANCH  11  14
ATOM     14  O   UNL     1     -15.953  40.528 -11.020  0.00  0.00    +0.000 OA
ATOM     15  H   UNL     1     -15.779  39.631 -10.691  0.00  0.00    +0.000 HD
ENDBRANCH  11  14
ENDBRANCH   5  12
TORSDOF 2
ENDMDL
MODEL 3
REMARK VINA RESULT:    -5.962      1.686      5.614
REMARK INTER + INTRA:          -6.559
REMARK INTER:                  -6.488
REMARK INTRA:                  -0.071
REMARK UNBOUND:                -0.075
REMARK  Name = 20321104
REMARK  2 active torsions:
REMARK  status: ('A' for Active; 'I' for Inactive)
REMARK    1  A    between atoms: O_2  and  N_7
REMARK    2  A    between atoms: C_8  and  C_13
REMARK                            x       y       z     vdW  Elec       q    Type
REMARK                         _______ _______ _______ _____ _____    ______ ____
ROOT
ATOM      1  O   UNL     1     -22.318  40.998  -7.143  0.00  0.00    +0.000 OA
ATOM      2  O   UNL     1     -21.024  42.500  -6.200  0.00  0.00    +0.000 OA
ATOM      3  N   UNL     1     -19.090  42.100  -8.058  0.00  0.00    +0.000 NA
ATOM      4  N   UNL     1     -21.254  41.650  -7.088  0.00  0.00    +0.000 N 
ATOM      5  C   UNL     1     -18.424  40.877 -10.034  0.00  0.00    +0.000 A 
ATOM      6  C   UNL     1     -19.633  40.192 -10.027  0.00  0.00    +0.000 A 
ATOM      7  C   UNL     1     -20.572  40.459  -9.036  0.00  0.00    +0.000 A 
ATOM      8  C   UNL     1     -20.254  41.414  -8.083  0.00  0.00    +0.000 A 
ATOM      9  C   UNL     1     -18.202  41.813  -9.037  0.00  0.00    +0.000 A 
ENDROOT
BRANCH   5  12
ATOM     10  O   UNL     1     -16.436  39.896 -10.810  0.00  0.00    +0.000 OA
ATOM     11  N   UNL     1     -17.607  41.219 -12.292  0.00  0.00    +0.000 N 
ATOM     12  C   UNL     1     -17.421  40.618 -11.054  0.00  0.00    +0.000 C 
ATOM     13  H   UNL     1     -18.327  41.889 -12.534  0.00  0.00    +0.000 HD
BRANCH  11  14
ATOM     14  O   UNL     1     -16.627  40.976 -13.267  0.00  0.00    +0.000 OA
ATOM     15  H   UNL     1     -17.190  40.794 -14.037  0.00  0.00    +0.000 HD
ENDBRANCH  11  14
ENDBRANCH   5  12
TORSDOF 2
ENDMDL
MODEL 4
REMARK VINA RESULT:    -5.696      4.744      6.281
REMARK INTER + INTRA:          -6.270
REMARK INTER:                  -6.196
REMARK INTRA:                  -0.074
REMARK UNBOUND:                -0.075
REMARK  Name = 20321104
REMARK  2 active torsions:
REMARK  status: ('A' for Active; 'I' for Inactive)
REMARK    1  A    between atoms: O_2  and  N_7
REMARK    2  A    between atoms: C_8  and  C_13
REMARK                            x       y       z     vdW  Elec       q    Type
REMARK                         _______ _______ _______ _____ _____    ______ ____
ROOT
ATOM      1  O   UNL     1     -17.269  46.277 -11.446  0.00  0.00    +0.000 OA
ATOM      2  O   UNL     1     -18.572  46.598 -13.184  0.00  0.00    +0.000 OA
ATOM      3  N   UNL     1     -19.063  43.940 -13.394  0.00  0.00    +0.000 NA
ATOM      4  N   UNL     1     -18.020  45.849 -12.349  0.00  0.00    +0.000 N 
ATOM      5  C   UNL     1     -18.634  41.739 -12.488  0.00  0.00    +0.000 A 
ATOM      6  C   UNL     1     -17.812  42.293 -11.513  0.00  0.00    +0.000 A 
ATOM      7  C   UNL     1     -17.614  43.669 -11.477  0.00  0.00    +0.000 A 
ATOM      8  C   UNL     1     -18.257  44.441 -12.431  0.00  0.00    +0.000 A 
ATOM      9  C   UNL     1     -19.231  42.598 -13.397  0.00  0.00    +0.000 A 
ENDROOT
BRANCH   5  12
ATOM     10  O   UNL     1     -18.483  39.646 -13.543  0.00  0.00    +0.000 OA
ATOM     11  N   UNL     1     -19.515  39.716 -11.482  0.00  0.00    +0.000 N 
ATOM     12  C   UNL     1     -18.858  40.305 -12.555  0.00  0.00    +0.000 C 
ATOM     13  H   UNL     1     -19.930  40.197 -10.693  0.00  0.00    +0.000 HD
BRANCH  11  14
ATOM     14  O   UNL     1     -19.740  38.333 -11.560  0.00  0.00    +0.000 OA
ATOM     15  H   UNL     1     -19.271  38.035 -10.763  0.00  0.00    +0.000 HD
ENDBRANCH  11  14
ENDBRANCH   5  12
TORSDOF 2
ENDMDL
MODEL 5
REMARK VINA RESULT:    -5.600      4.094      5.479
REMARK INTER + INTRA:          -6.166
REMARK INTER:                  -6.077
REMARK INTRA:                  -0.090
REMARK UNBOUND:                -0.075
REMARK  Name = 20321104
REMARK  2 active torsions:
REMARK  status: ('A' for Active; 'I' for Inactive)
REMARK    1  A    between atoms: O_2  and  N_7
REMARK    2  A    between atoms: C_8  and  C_13
REMARK                            x       y       z     vdW  Elec       q    Type
REMARK                         _______ _______ _______ _____ _____    ______ ____
ROOT
ATOM      1  O   UNL     1     -18.617  45.111 -15.016  0.00  0.00    +0.000 OA
ATOM      2  O   UNL     1     -19.957  43.668 -15.986  0.00  0.00    +0.000 OA
ATOM      3  N   UNL     1     -19.707  41.938 -13.913  0.00  0.00    +0.000 NA
ATOM      4  N   UNL     1     -19.223  44.018 -15.037  0.00  0.00    +0.000 N 
ATOM      5  C   UNL     1     -18.697  41.518 -11.757  0.00  0.00    +0.000 A 
ATOM      6  C   UNL     1     -18.056  42.751 -11.808  0.00  0.00    +0.000 A 
ATOM      7  C   UNL     1     -18.240  43.579 -12.911  0.00  0.00    +0.000 A 
ATOM      8  C   UNL     1     -19.068  43.130 -13.927  0.00  0.00    +0.000 A 
ATOM      9  C   UNL     1     -19.504  41.161 -12.825  0.00  0.00    +0.000 A 
ENDROOT
BRANCH   5  12
ATOM     10  O   UNL     1     -18.954  39.461 -10.653  0.00  0.00    +0.000 OA
ATOM     11  N   UNL     1     -17.872  41.144  -9.507  0.00  0.00    +0.000 N 
ATOM     12  C   UNL     1     -18.522  40.629 -10.621  0.00  0.00    +0.000 C 
ATOM     13  H   UNL     1     -17.579  42.104  -9.372  0.00  0.00    +0.000 HD
BRANCH  11  14
ATOM     14  O   UNL     1     -17.720  40.285  -8.408  0.00  0.00    +0.000 OA
ATOM     15  H   UNL     1     -18.604  40.352  -8.011  0.00  0.00    +0.000 HD
ENDBRANCH  11  14
ENDBRANCH   5  12
TORSDOF 2
ENDMDL
