MODEL 1
REMARK VINA RESULT:    -5.802      0.000      0.000
REMARK INTER + INTRA:          -6.729
REMARK INTER:                  -6.481
REMARK INTRA:                  -0.249
REMARK UNBOUND:                -0.249
REMARK  Name = 20321197
REMARK  3 active torsions:
REMARK  status: ('A' for Active; 'I' for Inactive)
REMARK    1  A    between atoms: N_4  and  C_13
REMARK    2  A    between atoms: N_6  and  C_8
REMARK    3  A    between atoms: C_7  and  C_10
REMARK                            x       y       z     vdW  Elec       q    Type
REMARK                         _______ _______ _______ _____ _____    ______ ____
ROOT
ATOM      1  N   UNL     1     -19.589  39.703  -9.976  0.00  0.00    +0.000 NA
ATOM      2  C   UNL     1     -18.209  41.683 -10.115  0.00  0.00    +0.000 A 
ATOM      3  C   UNL     1     -18.771  40.537 -10.656  0.00  0.00    +0.000 A 
ATOM      4  C   UNL     1     -18.506  41.992  -8.792  0.00  0.00    +0.000 A 
ATOM      5  C   UNL     1     -19.344  41.157  -8.061  0.00  0.00    +0.000 A 
ATOM      6  C   UNL     1     -19.855  40.036  -8.693  0.00  0.00    +0.000 A 
ENDROOT
BRANCH   2   9
ATOM      7  O   UNL     1     -17.793  43.551 -11.469  0.00  0.00    +0.000 OA
ATOM      8  N   UNL     1     -15.963  42.277 -10.837  0.00  0.00    +0.000 N 
ATOM      9  C   UNL     1     -17.329  42.572 -10.863  0.00  0.00    +0.000 C 
ATOM     10  C   UNL     1     -14.962  43.076 -11.507  0.00  0.00    +0.000 C 
ATOM     11  H   UNL     1     -15.647  41.446 -10.344  0.00  0.00    +0.000 HD
ENDBRANCH   2   9
BRANCH   3  14
ATOM     12  O   UNL     1     -17.342  39.720 -12.271  0.00  0.00    +0.000 OA
ATOM     13  O   UNL     1     -19.287  40.516 -12.903  0.00  0.00    +0.000 OA
ATOM     14  N   UNL     1     -18.448  40.241 -12.020  0.00  0.00    +0.000 N 
ENDBRANCH   3  14
TORSDOF 2
ENDMDL
MODEL 2
REMARK VINA RESULT:    -5.506      1.812      3.793
REMARK INTER + INTRA:          -6.399
REMARK INTER:                  -6.163
REMARK INTRA:                  -0.236
REMARK UNBOUND:                -0.249
REMARK  Name = 20321197
REMARK  3 active torsions:
REMARK  status: ('A' for Active; 'I' for Inactive)
REMARK    1  A    between atoms: N_4  and  C_13
REMARK    2  A    between atoms: N_6  and  C_8
REMARK    3  A    between atoms: C_7  and  C_10
REMARK                            x       y       z     vdW  Elec       q    Type
REMARK                         _______ _______ _______ _____ _____    ______ ____
ROOT
ATOM      1  N   UNL     1     -17.439  42.466 -13.465  0.00  0.00    +0.000 NA
ATOM      2  C   UNL     1     -17.967  41.871 -11.183  0.00  0.00    +0.000 A 
ATOM      3  C   UNL     1     -17.816  41.569 -12.527  0.00  0.00    +0.000 A 
ATOM      4  C   UNL     1     -17.717  43.176 -10.776  0.00  0.00    +0.000 A 
ATOM      5  C   UNL     1     -17.327  44.127 -11.714  0.00  0.00    +0.000 A 
ATOM      6  C   UNL     1     -17.204  43.725 -13.033  0.00  0.00    +0.000 A 
ENDROOT
BRANCH   2   9
ATOM      7  O   UNL     1     -17.521  40.234  -9.564  0.00  0.00    +0.000 OA
ATOM      8  N   UNL     1     -19.747  40.754  -9.954  0.00  0.00    +0.000 N 
ATOM      9  C   UNL     1     -18.374  40.890 -10.184  0.00  0.00    +0.000 C 
ATOM     10  C   UNL     1     -20.305  39.844  -8.980  0.00  0.00    +0.000 C 
ATOM     11  H   UNL     1     -20.396  41.301 -10.512  0.00  0.00    +0.000 HD
ENDBRANCH   2   9
BRANCH   3  14
ATOM     12  O   UNL     1     -17.112  39.465 -13.155  0.00  0.00    +0.000 OA
ATOM     13  O   UNL     1     -19.269  39.845 -13.012  0.00  0.00    +0.000 OA
ATOM     14  N   UNL     1     -18.081  40.216 -12.920  0.00  0.00    +0.000 N 
ENDBRANCH   3  14
TORSDOF 2
ENDMDL
MODEL 3
REMARK VINA RESULT:    -5.238      1.885      3.248
REMARK INTER + INTRA:          -6.099
REMARK INTER:                  -5.969
REMARK INTRA:                  -0.130
REMARK UNBOUND:                -0.249
REMARK  Name = 20321197
REMARK  3 active torsions:
REMARK  status: ('A' for Active; 'I' for Inactive)
REMARK    1  A    between atoms: N_4  and  C_13
REMARK    2  A    between atoms: N_6  and  C_8
REMARK    3  A    between atoms: C_7  and  C_10
REMARK                            x       y       z     vdW  Elec       q    Type
REMARK                         _______ _______ _______ _____ _____    ______ ____
ROOT
ATOM      1  N   UNL     1     -18.087  41.871  -8.877  0.00  0.00    +0.000 NA
ATOM      2  C   UNL     1     -18.934  41.199 -11.039  0.00  0.00    +0.000 A 
ATOM      3  C   UNL     1     -18.106  41.956 -10.226  0.00  0.00    +0.000 A 
ATOM      4  C   UNL     1     -19.800  40.299 -10.428  0.00  0.00    +0.000 A 
ATOM      5  C   UNL     1     -19.809  40.184  -9.042  0.00  0.00    +0.000 A 
ATOM      6  C   UNL     1     -18.942  40.985  -8.319  0.00  0.00    +0.000 A 
ENDROOT
BRANCH   2   9
ATOM      7  O   UNL     1     -18.576  40.343 -13.192  0.00  0.00    +0.000 OA
ATOM      8  N   UNL     1     -19.392  42.508 -13.038  0.00  0.00    +0.000 N 
ATOM      9  C   UNL     1     -18.940  41.302 -12.493  0.00  0.00    +0.000 C 
ATOM     10  C   UNL     1     -19.480  42.756 -14.459  0.00  0.00    +0.000 C 
ATOM     11  H   UNL     1     -19.651  43.266 -12.412  0.00  0.00    +0.000 HD
ENDBRANCH   2   9
BRANCH   3  14
ATOM     12  O   UNL     1     -17.635  44.033 -11.110  0.00  0.00    +0.000 OA
ATOM     13  O   UNL     1     -16.081  42.485 -11.193  0.00  0.00    +0.000 OA
ATOM     14  N   UNL     1     -17.223  42.877 -10.880  0.00  0.00    +0.000 N 
ENDBRANCH   3  14
TORSDOF 2
ENDMDL
MODEL 4
REMARK VINA RESULT:    -4.538      5.494      6.300
REMARK INTER + INTRA:          -5.317
REMARK INTER:                  -5.085
REMARK INTRA:                  -0.233
REMARK UNBOUND:                -0.249
REMARK  Name = 20321197
REMARK  3 active torsions:
REMARK  status: ('A' for Active; 'I' for Inactive)
REMARK    1  A    between atoms: N_4  and  C_13
REMARK    2  A    between atoms: N_6  and  C_8
REMARK    3  A    between atoms: C_7  and  C_10
REMARK                            x       y       z     vdW  Elec       q    Type
REMARK                         _______ _______ _______ _____ _____    ______ ____
ROOT
ATOM      1  N   UNL     1     -19.990  42.424 -14.185  0.00  0.00    +0.000 NA
ATOM      2  C   UNL     1     -19.235  44.363 -15.417  0.00  0.00    +0.000 A 
ATOM      3  C   UNL     1     -20.009  43.222 -15.276  0.00  0.00    +0.000 A 
ATOM      4  C   UNL     1     -18.386  44.706 -14.370  0.00  0.00    +0.000 A 
ATOM      5  C   UNL     1     -18.339  43.909 -13.231  0.00  0.00    +0.000 A 
ATOM      6  C   UNL     1     -19.153  42.790 -13.189  0.00  0.00    +0.000 A 
ENDROOT
BRANCH   2   9
ATOM      7  O   UNL     1     -19.922  46.268 -16.598  0.00  0.00    +0.000 OA
ATOM      8  N   UNL     1     -18.520  44.788 -17.703  0.00  0.00    +0.000 N 
ATOM      9  C   UNL     1     -19.269  45.211 -16.601  0.00  0.00    +0.000 C 
ATOM     10  C   UNL     1     -18.433  45.532 -18.939  0.00  0.00    +0.000 C 
ATOM     11  H   UNL     1     -18.027  43.901 -17.653  0.00  0.00    +0.000 HD
ENDBRANCH   2   9
BRANCH   3  14
ATOM     12  O   UNL     1     -22.036  43.349 -16.370  0.00  0.00    +0.000 OA
ATOM     13  O   UNL     1     -20.433  42.153 -17.275  0.00  0.00    +0.000 OA
ATOM     14  N   UNL     1     -20.875  42.889 -16.369  0.00  0.00    +0.000 N 
ENDBRANCH   3  14
TORSDOF 2
ENDMDL
MODEL 5
REMARK VINA RESULT:    -4.515      2.679      3.485
REMARK INTER + INTRA:          -5.291
REMARK INTER:                  -5.164
REMARK INTRA:                  -0.128
REMARK UNBOUND:                -0.249
REMARK  Name = 20321197
REMARK  3 active torsions:
REMARK  status: ('A' for Active; 'I' for Inactive)
REMARK    1  A    between atoms: N_4  and  C_13
REMARK    2  A    between atoms: N_6  and  C_8
REMARK    3  A    between atoms: C_7  and  C_10
REMARK                            x       y       z     vdW  Elec       q    Type
REMARK                         _______ _______ _______ _____ _____    ______ ____
ROOT
ATOM      1  N   UNL     1     -19.237  41.674 -13.959  0.00  0.00    +0.000 NA
ATOM      2  C   UNL     1     -17.619  42.785 -12.548  0.00  0.00    +0.000 A 
ATOM      3  C   UNL     1     -18.253  41.652 -13.032  0.00  0.00    +0.000 A 
ATOM      4  C   UNL     1     -18.021  44.020 -13.045  0.00  0.00    +0.000 A 
ATOM      5  C   UNL     1     -19.031  44.082 -14.000  0.00  0.00    +0.000 A 
ATOM      6  C   UNL     1     -19.601  42.891 -14.420  0.00  0.00    +0.000 A 
ENDROOT
BRANCH   2   9
ATOM      7  O   UNL     1     -16.837  42.665 -10.340  0.00  0.00    +0.000 OA
ATOM      8  N   UNL     1     -15.243  42.769 -12.021  0.00  0.00    +0.000 N 
ATOM      9  C   UNL     1     -16.559  42.743 -11.548  0.00  0.00    +0.000 C 
ATOM     10  C   UNL     1     -14.086  42.709 -11.157  0.00  0.00    +0.000 C 
ATOM     11  H   UNL     1     -15.080  42.860 -13.019  0.00  0.00    +0.000 HD
ENDBRANCH   2   9
BRANCH   3  14
ATOM     12  O   UNL     1     -18.398  39.943 -11.490  0.00  0.00    +0.000 OA
ATOM     13  O   UNL     1     -16.885  39.797 -13.073  0.00  0.00    +0.000 OA
ATOM     14  N   UNL     1     -17.821  40.393 -12.502  0.00  0.00    +0.000 N 
ENDBRANCH   3  14
TORSDOF 2
ENDMDL
