MODEL 1
REMARK VINA RESULT:    -7.523      0.000      0.000
REMARK INTER + INTRA:          -9.559
REMARK INTER:                  -9.282
REMARK INTRA:                  -0.276
REMARK UNBOUND:                -0.276
REMARK  Name = 20339465
REMARK  6 active torsions:
REMARK  status: ('A' for Active; 'I' for Inactive)
REMARK    1  A    between atoms: N_2  and  C_6
REMARK    2  A    between atoms: N_2  and  C_9
REMARK    3  A    between atoms: N_2  and  C_10
REMARK    4  A    between atoms: N_3  and  C_7
REMARK    5  A    between atoms: C_6  and  C_7
REMARK    6  A    between atoms: C_13  and  C_15
REMARK                            x       y       z     vdW  Elec       q    Type
REMARK                         _______ _______ _______ _____ _____    ______ ____
ROOT
ATOM      1  N   UNL     1     -17.633  41.007  -9.456  0.00  0.00    +0.000 N 
ATOM      2  N   UNL     1     -18.854  42.119  -7.775  0.00  0.00    +0.000 NA
ATOM      3  C   UNL     1     -18.826  41.216  -8.781  0.00  0.00    +0.000 A 
ATOM      4  C   UNL     1     -19.924  40.477  -9.192  0.00  0.00    +0.000 A 
ATOM      5  C   UNL     1     -21.128  40.675  -8.525  0.00  0.00    +0.000 A 
ATOM      6  C   UNL     1     -21.196  41.595  -7.483  0.00  0.00    +0.000 A 
ATOM      7  C   UNL     1     -20.041  42.284  -7.151  0.00  0.00    +0.000 A 
ATOM      8  H   UNL     1     -16.836  41.552  -9.149  0.00  0.00    +0.000 HD
ENDROOT
BRANCH   6  11
ATOM      9  O   UNL     1     -23.361  40.990  -6.784  0.00  0.00    +0.000 OA
ATOM     10  N   UNL     1     -22.561  43.006  -6.043  0.00  0.00    +0.000 N 
ATOM     11  C   UNL     1     -22.439  41.824  -6.768  0.00  0.00    +0.000 C 
ATOM     12  H   UNL     1     -23.417  43.189  -5.527  0.00  0.00    +0.000 HD
ATOM     13  H   UNL     1     -21.859  43.732  -5.975  0.00  0.00    +0.000 HD
ENDBRANCH   6  11
BRANCH   1  14
ATOM     14  C   UNL     1     -17.481  40.072 -10.545  0.00  0.00    +0.000 C 
BRANCH  14  15
ATOM     15  C   UNL     1     -16.517  40.641 -11.578  0.00  0.00    +0.000 C 
BRANCH  15  16
ATOM     16  N   UNL     1     -17.191  40.808 -12.865  0.00  0.00    +0.000 NA
ATOM     17  C   UNL     1     -17.425  42.226 -13.139  0.00  0.00    +0.000 C 
ATOM     18  C   UNL     1     -18.453  40.069 -12.881  0.00  0.00    +0.000 C 
ENDBRANCH  15  16
ENDBRANCH  14  15
ENDBRANCH   1  14
TORSDOF 4
ENDMDL
MODEL 2
REMARK VINA RESULT:    -5.769      3.438      6.393
REMARK INTER + INTRA:          -7.395
REMARK INTER:                  -7.079
REMARK INTRA:                  -0.316
REMARK UNBOUND:                -0.276
REMARK  Name = 20339465
REMARK  6 active torsions:
REMARK  status: ('A' for Active; 'I' for Inactive)
REMARK    1  A    between atoms: N_2  and  C_6
REMARK    2  A    between atoms: N_2  and  C_9
REMARK    3  A    between atoms: N_2  and  C_10
REMARK    4  A    between atoms: N_3  and  C_7
REMARK    5  A    between atoms: C_6  and  C_7
REMARK    6  A    between atoms: C_13  and  C_15
REMARK                            x       y       z     vdW  Elec       q    Type
REMARK                         _______ _______ _______ _____ _____    ______ ____
ROOT
ATOM      1  N   UNL     1     -19.739  40.322 -11.135  0.00  0.00    +0.000 N 
ATOM      2  N   UNL     1     -19.753  41.615 -13.104  0.00  0.00    +0.000 NA
ATOM      3  C   UNL     1     -19.264  41.402 -11.862  0.00  0.00    +0.000 A 
ATOM      4  C   UNL     1     -18.307  42.201 -11.256  0.00  0.00    +0.000 A 
ATOM      5  C   UNL     1     -17.820  43.289 -11.973  0.00  0.00    +0.000 A 
ATOM      6  C   UNL     1     -18.299  43.541 -13.254  0.00  0.00    +0.000 A 
ATOM      7  C   UNL     1     -19.256  42.682 -13.769  0.00  0.00    +0.000 A 
ATOM      8  H   UNL     1     -20.438  39.743 -11.585  0.00  0.00    +0.000 HD
ENDROOT
BRANCH   6  11
ATOM      9  O   UNL     1     -16.919  45.419 -13.590  0.00  0.00    +0.000 OA
ATOM     10  N   UNL     1     -18.357  44.876 -15.290  0.00  0.00    +0.000 N 
ATOM     11  C   UNL     1     -17.809  44.669 -14.027  0.00  0.00    +0.000 C 
ATOM     12  H   UNL     1     -18.028  45.653 -15.856  0.00  0.00    +0.000 HD
ATOM     13  H   UNL     1     -19.079  44.311 -15.720  0.00  0.00    +0.000 HD
ENDBRANCH   6  11
BRANCH   1  14
ATOM     14  C   UNL     1     -19.294  39.994  -9.801  0.00  0.00    +0.000 C 
BRANCH  14  15
ATOM     15  C   UNL     1     -20.483  39.989  -8.851  0.00  0.00    +0.000 C 
BRANCH  15  16
ATOM     16  N   UNL     1     -20.706  41.328  -8.307  0.00  0.00    +0.000 NA
ATOM     17  C   UNL     1     -19.577  41.734  -7.471  0.00  0.00    +0.000 C 
ATOM     18  C   UNL     1     -21.950  41.367  -7.539  0.00  0.00    +0.000 C 
ENDBRANCH  15  16
ENDBRANCH  14  15
ENDBRANCH   1  14
TORSDOF 4
ENDMDL
MODEL 3
REMARK VINA RESULT:    -5.692      3.289      6.013
REMARK INTER + INTRA:          -7.300
REMARK INTER:                  -7.000
REMARK INTRA:                  -0.300
REMARK UNBOUND:                -0.276
REMARK  Name = 20339465
REMARK  6 active torsions:
REMARK  status: ('A' for Active; 'I' for Inactive)
REMARK    1  A    between atoms: N_2  and  C_6
REMARK    2  A    between atoms: N_2  and  C_9
REMARK    3  A    between atoms: N_2  and  C_10
REMARK    4  A    between atoms: N_3  and  C_7
REMARK    5  A    between atoms: C_6  and  C_7
REMARK    6  A    between atoms: C_13  and  C_15
REMARK                            x       y       z     vdW  Elec       q    Type
REMARK                         _______ _______ _______ _____ _____    ______ ____
ROOT
ATOM      1  N   UNL     1     -17.582  41.858  -9.973  0.00  0.00    +0.000 N 
ATOM      2  N   UNL     1     -17.460  43.253 -11.867  0.00  0.00    +0.000 NA
ATOM      3  C   UNL     1     -18.050  42.218 -11.226  0.00  0.00    +0.000 A 
ATOM      4  C   UNL     1     -19.103  41.483 -11.746  0.00  0.00    +0.000 A 
ATOM      5  C   UNL     1     -19.583  41.833 -13.004  0.00  0.00    +0.000 A 
ATOM      6  C   UNL     1     -19.002  42.892 -13.693  0.00  0.00    +0.000 A 
ATOM      7  C   UNL     1     -17.954  43.563 -13.086  0.00  0.00    +0.000 A 
ATOM      8  H   UNL     1     -16.812  42.401  -9.601  0.00  0.00    +0.000 HD
ENDROOT
BRANCH   6  11
ATOM      9  O   UNL     1     -19.906  42.440 -15.820  0.00  0.00    +0.000 OA
ATOM     10  N   UNL     1     -19.471  44.636 -15.327  0.00  0.00    +0.000 N 
ATOM     11  C   UNL     1     -19.482  43.281 -15.007  0.00  0.00    +0.000 C 
ATOM     12  H   UNL     1     -19.808  44.937 -16.237  0.00  0.00    +0.000 HD
ATOM     13  H   UNL     1     -19.148  45.381 -14.723  0.00  0.00    +0.000 HD
ENDBRANCH   6  11
BRANCH   1  14
ATOM     14  C   UNL     1     -18.130  40.772  -9.194  0.00  0.00    +0.000 C 
BRANCH  14  15
ATOM     15  C   UNL     1     -19.013  41.331  -8.087  0.00  0.00    +0.000 C 
BRANCH  15  16
ATOM     16  N   UNL     1     -20.425  41.175  -8.433  0.00  0.00    +0.000 NA
ATOM     17  C   UNL     1     -21.274  41.570  -7.310  0.00  0.00    +0.000 C 
ATOM     18  C   UNL     1     -20.705  39.793  -8.823  0.00  0.00    +0.000 C 
ENDBRANCH  15  16
ENDBRANCH  14  15
ENDBRANCH   1  14
TORSDOF 4
ENDMDL
MODEL 4
REMARK VINA RESULT:    -5.318      4.249      6.220
REMARK INTER + INTRA:          -6.838
REMARK INTER:                  -6.675
REMARK INTRA:                  -0.162
REMARK UNBOUND:                -0.276
REMARK  Name = 20339465
REMARK  6 active torsions:
REMARK  status: ('A' for Active; 'I' for Inactive)
REMARK    1  A    between atoms: N_2  and  C_6
REMARK    2  A    between atoms: N_2  and  C_9
REMARK    3  A    between atoms: N_2  and  C_10
REMARK    4  A    between atoms: N_3  and  C_7
REMARK    5  A    between atoms: C_6  and  C_7
REMARK    6  A    between atoms: C_13  and  C_15
REMARK                            x       y       z     vdW  Elec       q    Type
REMARK                         _______ _______ _______ _____ _____    ______ ____
ROOT
ATOM      1  N   UNL     1     -20.015  42.697 -15.106  0.00  0.00    +0.000 N 
ATOM      2  N   UNL     1     -19.827  41.357 -13.178  0.00  0.00    +0.000 NA
ATOM      3  C   UNL     1     -19.485  42.483 -13.844  0.00  0.00    +0.000 A 
ATOM      4  C   UNL     1     -18.628  43.450 -13.343  0.00  0.00    +0.000 A 
ATOM      5  C   UNL     1     -18.088  43.249 -12.078  0.00  0.00    +0.000 A 
ATOM      6  C   UNL     1     -18.417  42.102 -11.362  0.00  0.00    +0.000 A 
ATOM      7  C   UNL     1     -19.283  41.196 -11.952  0.00  0.00    +0.000 A 
ATOM      8  H   UNL     1     -20.641  41.985 -15.464  0.00  0.00    +0.000 HD
ENDROOT
BRANCH   6  11
ATOM      9  O   UNL     1     -17.954  42.719  -9.137  0.00  0.00    +0.000 OA
ATOM     10  N   UNL     1     -17.259  40.636  -9.799  0.00  0.00    +0.000 N 
ATOM     11  C   UNL     1     -17.870  41.865 -10.038  0.00  0.00    +0.000 C 
ATOM     12  H   UNL     1     -16.875  40.441  -8.879  0.00  0.00    +0.000 HD
ATOM     13  H   UNL     1     -17.154  39.889 -10.473  0.00  0.00    +0.000 HD
ENDBRANCH   6  11
BRANCH   1  14
ATOM     14  C   UNL     1     -19.723  43.859 -15.912  0.00  0.00    +0.000 C 
BRANCH  14  15
ATOM     15  C   UNL     1     -19.780  43.487 -17.387  0.00  0.00    +0.000 C 
BRANCH  15  16
ATOM     16  N   UNL     1     -20.994  44.025 -18.001  0.00  0.00    +0.000 NA
ATOM     17  C   UNL     1     -20.720  44.477 -19.364  0.00  0.00    +0.000 C 
ATOM     18  C   UNL     1     -21.529  45.123 -17.196  0.00  0.00    +0.000 C 
ENDBRANCH  15  16
ENDBRANCH  14  15
ENDBRANCH   1  14
TORSDOF 4
ENDMDL
MODEL 5
REMARK VINA RESULT:    -5.218      3.306      6.458
REMARK INTER + INTRA:          -6.714
REMARK INTER:                  -6.468
REMARK INTRA:                  -0.247
REMARK UNBOUND:                -0.276
REMARK  Name = 20339465
REMARK  6 active torsions:
REMARK  status: ('A' for Active; 'I' for Inactive)
REMARK    1  A    between atoms: N_2  and  C_6
REMARK    2  A    between atoms: N_2  and  C_9
REMARK    3  A    between atoms: N_2  and  C_10
REMARK    4  A    between atoms: N_3  and  C_7
REMARK    5  A    between atoms: C_6  and  C_7
REMARK    6  A    between atoms: C_13  and  C_15
REMARK                            x       y       z     vdW  Elec       q    Type
REMARK                         _______ _______ _______ _____ _____    ______ ____
ROOT
ATOM      1  N   UNL     1     -19.364  40.683 -10.628  0.00  0.00    +0.000 N 
ATOM      2  N   UNL     1     -18.730  41.885 -12.552  0.00  0.00    +0.000 NA
ATOM      3  C   UNL     1     -18.656  41.721 -11.212  0.00  0.00    +0.000 A 
ATOM      4  C   UNL     1     -17.911  42.533 -10.371  0.00  0.00    +0.000 A 
ATOM      5  C   UNL     1     -17.195  43.579 -10.942  0.00  0.00    +0.000 A 
ATOM      6  C   UNL     1     -17.246  43.779 -12.318  0.00  0.00    +0.000 A 
ATOM      7  C   UNL     1     -18.021  42.912 -13.071  0.00  0.00    +0.000 A 
ATOM      8  H   UNL     1     -19.905  40.095 -11.250  0.00  0.00    +0.000 HD
ENDROOT
BRANCH   6  11
ATOM      9  O   UNL     1     -16.697  46.049 -12.620  0.00  0.00    +0.000 OA
ATOM     10  N   UNL     1     -15.565  44.531 -13.912  0.00  0.00    +0.000 N 
ATOM     11  C   UNL     1     -16.509  44.863 -12.944  0.00  0.00    +0.000 C 
ATOM     12  H   UNL     1     -15.030  45.269 -14.361  0.00  0.00    +0.000 HD
ATOM     13  H   UNL     1     -15.350  43.594 -14.228  0.00  0.00    +0.000 HD
ENDBRANCH   6  11
BRANCH   1  14
ATOM     14  C   UNL     1     -19.363  40.409  -9.210  0.00  0.00    +0.000 C 
BRANCH  14  15
ATOM     15  C   UNL     1     -20.790  40.449  -8.680  0.00  0.00    +0.000 C 
BRANCH  15  16
ATOM     16  N   UNL     1     -20.834  41.136  -7.389  0.00  0.00    +0.000 NA
ATOM     17  C   UNL     1     -22.108  41.835  -7.226  0.00  0.00    +0.000 C 
ATOM     18  C   UNL     1     -19.718  42.073  -7.271  0.00  0.00    +0.000 C 
ENDBRANCH  15  16
ENDBRANCH  14  15
ENDBRANCH   1  14
TORSDOF 4
ENDMDL
