MODEL 1
REMARK VINA RESULT:    -3.971      0.000      0.000
REMARK INTER + INTRA:          -4.066
REMARK INTER:                  -4.667
REMARK INTRA:                   0.601
REMARK UNBOUND:                 0.601
REMARK  Name = 20499060
REMARK  9 active torsions:
REMARK  status: ('A' for Active; 'I' for Inactive)
REMARK    1  A    between atoms: SI_1  and  N_4
REMARK    2  A    between atoms: SI_1  and  C_7
REMARK    3  A    between atoms: SI_1  and  C_8
REMARK    4  A    between atoms: SI_1  and  C_9
REMARK    5  A    between atoms: SI_2  and  N_4
REMARK    6  A    between atoms: SI_2  and  C_10
REMARK    7  A    between atoms: SI_2  and  C_11
REMARK    8  A    between atoms: SI_2  and  C_12
REMARK    9  A    between atoms: C_13  and  C_14
REMARK                            x       y       z     vdW  Elec       q    Type
REMARK                         _______ _______ _______ _____ _____    ______ ____
ROOT
ATOM      1  O   UNL     1     -34.856  42.211 -15.458  0.00  0.00    +0.000 OA
ATOM      2  N   UNL     1     -33.427  44.062 -15.222  0.00  0.00    +0.000 N 
ATOM      3  C   UNL     1     -33.861  42.856 -15.799  0.00  0.00    +0.000 C 
ENDROOT
BRANCH   3   6
ATOM      4  N   UNL     1     -33.189  41.793 -19.342  0.00  0.00    +0.000 NA
ATOM      5  N   UNL     1     -31.261  40.820 -20.350  0.00  0.00    +0.000 N 
ATOM      6  C   UNL     1     -33.157  42.316 -16.982  0.00  0.00    +0.000 A 
ATOM      7  C   UNL     1     -31.856  41.835 -16.884  0.00  0.00    +0.000 A 
ATOM      8  C   UNL     1     -33.774  42.274 -18.222  0.00  0.00    +0.000 A 
ATOM      9  C   UNL     1     -31.220  41.333 -18.014  0.00  0.00    +0.000 A 
ATOM     10  C   UNL     1     -31.923  41.333 -19.208  0.00  0.00    +0.000 A 
ATOM     11  H   UNL     1     -30.252  40.879 -20.391  0.00  0.00    +0.000 HD
ATOM     12  H   UNL     1     -31.777  40.828 -21.223  0.00  0.00    +0.000 HD
ENDBRANCH   3   6
BRANCH   2  13
ATOM     13 SI   UNL     1     -33.632  44.377 -13.457  0.00  0.00    +0.000 Si
ATOM     14  C   UNL     1     -35.124  45.470 -13.167  0.00  0.00    +0.000 C 
ATOM     15  C   UNL     1     -32.101  45.283 -12.796  0.00  0.00    +0.000 C 
ATOM     16  C   UNL     1     -33.752  42.811 -12.427  0.00  0.00    +0.000 C 
ENDBRANCH   2  13
BRANCH   2  17
ATOM     17 SI   UNL     1     -32.654  45.340 -16.217  0.00  0.00    +0.000 Si
ATOM     18  C   UNL     1     -33.408  45.458 -17.946  0.00  0.00    +0.000 C 
ATOM     19  C   UNL     1     -30.809  45.032 -16.367  0.00  0.00    +0.000 C 
ATOM     20  C   UNL     1     -32.896  47.072 -15.500  0.00  0.00    +0.000 C 
ENDBRANCH   2  17
TORSDOF 3
ENDMDL
MODEL 2
REMARK VINA RESULT:    -3.947     23.842     25.930
REMARK INTER + INTRA:          -4.038
REMARK INTER:                  -4.661
REMARK INTRA:                   0.623
REMARK UNBOUND:                 0.601
REMARK  Name = 20499060
REMARK  9 active torsions:
REMARK  status: ('A' for Active; 'I' for Inactive)
REMARK    1  A    between atoms: SI_1  and  N_4
REMARK    2  A    between atoms: SI_1  and  C_7
REMARK    3  A    between atoms: SI_1  and  C_8
REMARK    4  A    between atoms: SI_1  and  C_9
REMARK    5  A    between atoms: SI_2  and  N_4
REMARK    6  A    between atoms: SI_2  and  C_10
REMARK    7  A    between atoms: SI_2  and  C_11
REMARK    8  A    between atoms: SI_2  and  C_12
REMARK    9  A    between atoms: C_13  and  C_14
REMARK                            x       y       z     vdW  Elec       q    Type
REMARK                         _______ _______ _______ _____ _____    ______ ____
ROOT
ATOM      1  O   UNL     1     -20.392  29.962   2.081  0.00  0.00    +0.000 OA
ATOM      2  N   UNL     1     -21.159  30.891   4.099  0.00  0.00    +0.000 N 
ATOM      3  C   UNL     1     -20.681  30.939   2.777  0.00  0.00    +0.000 C 
ENDROOT
BRANCH   3   6
ATOM      4  N   UNL     1     -21.420  33.722   0.362  0.00  0.00    +0.000 NA
ATOM      5  N   UNL     1     -20.400  35.856   0.065  0.00  0.00    +0.000 N 
ATOM      6  C   UNL     1     -20.589  32.238   2.079  0.00  0.00    +0.000 A 
ATOM      7  C   UNL     1     -19.633  33.181   2.443  0.00  0.00    +0.000 A 
ATOM      8  C   UNL     1     -21.451  32.554   1.042  0.00  0.00    +0.000 A 
ATOM      9  C   UNL     1     -19.569  34.394   1.767  0.00  0.00    +0.000 A 
ATOM     10  C   UNL     1     -20.477  34.614   0.743  0.00  0.00    +0.000 A 
ATOM     11  H   UNL     1     -20.043  36.658   0.567  0.00  0.00    +0.000 HD
ATOM     12  H   UNL     1     -21.070  36.015  -0.678  0.00  0.00    +0.000 HD
ENDBRANCH   3   6
BRANCH   2  13
ATOM     13 SI   UNL     1     -20.592  29.621   5.249  0.00  0.00    +0.000 Si
ATOM     14  C   UNL     1     -21.875  28.266   5.394  0.00  0.00    +0.000 C 
ATOM     15  C   UNL     1     -20.349  30.389   6.968  0.00  0.00    +0.000 C 
ATOM     16  C   UNL     1     -18.918  28.898   4.800  0.00  0.00    +0.000 C 
ENDBRANCH   2  13
BRANCH   2  17
ATOM     17 SI   UNL     1     -22.352  32.091   4.697  0.00  0.00    +0.000 Si
ATOM     18  C   UNL     1     -23.559  32.635   3.349  0.00  0.00    +0.000 C 
ATOM     19  C   UNL     1     -21.479  33.600   5.390  0.00  0.00    +0.000 C 
ATOM     20  C   UNL     1     -23.472  31.396   6.051  0.00  0.00    +0.000 C 
ENDBRANCH   2  17
TORSDOF 3
ENDMDL
MODEL 3
REMARK VINA RESULT:    -3.921     18.576     21.255
REMARK INTER + INTRA:          -4.007
REMARK INTER:                  -4.657
REMARK INTRA:                   0.649
REMARK UNBOUND:                 0.601
REMARK  Name = 20499060
REMARK  9 active torsions:
REMARK  status: ('A' for Active; 'I' for Inactive)
REMARK    1  A    between atoms: SI_1  and  N_4
REMARK    2  A    between atoms: SI_1  and  C_7
REMARK    3  A    between atoms: SI_1  and  C_8
REMARK    4  A    between atoms: SI_1  and  C_9
REMARK    5  A    between atoms: SI_2  and  N_4
REMARK    6  A    between atoms: SI_2  and  C_10
REMARK    7  A    between atoms: SI_2  and  C_11
REMARK    8  A    between atoms: SI_2  and  C_12
REMARK    9  A    between atoms: C_13  and  C_14
REMARK                            x       y       z     vdW  Elec       q    Type
REMARK                         _______ _______ _______ _____ _____    ______ ____
ROOT
ATOM      1  O   UNL     1     -30.859  37.123   2.985  0.00  0.00    +0.000 OA
ATOM      2  N   UNL     1     -29.579  37.921   4.788  0.00  0.00    +0.000 N 
ATOM      3  C   UNL     1     -30.022  37.900   3.453  0.00  0.00    +0.000 C 
ENDROOT
BRANCH   3   6
ATOM      4  N   UNL     1     -27.716  39.958   1.314  0.00  0.00    +0.000 NA
ATOM      5  N   UNL     1     -28.143  41.808  -0.125  0.00  0.00    +0.000 N 
ATOM      6  C   UNL     1     -29.551  38.935   2.510  0.00  0.00    +0.000 A 
ATOM      7  C   UNL     1     -30.439  39.840   1.938  0.00  0.00    +0.000 A 
ATOM      8  C   UNL     1     -28.212  39.035   2.169  0.00  0.00    +0.000 A 
ATOM      9  C   UNL     1     -29.966  40.804   1.054  0.00  0.00    +0.000 A 
ATOM     10  C   UNL     1     -28.609  40.821   0.778  0.00  0.00    +0.000 A 
ATOM     11  H   UNL     1     -28.778  42.153  -0.833  0.00  0.00    +0.000 HD
ATOM     12  H   UNL     1     -27.150  41.812  -0.329  0.00  0.00    +0.000 HD
ENDBRANCH   3   6
BRANCH   2  13
ATOM     13 SI   UNL     1     -29.418  36.396   5.740  0.00  0.00    +0.000 Si
ATOM     14  C   UNL     1     -27.855  36.443   6.770  0.00  0.00    +0.000 C 
ATOM     15  C   UNL     1     -29.297  34.921   4.553  0.00  0.00    +0.000 C 
ATOM     16  C   UNL     1     -30.909  36.029   6.822  0.00  0.00    +0.000 C 
ENDBRANCH   2  13
BRANCH   2  17
ATOM     17 SI   UNL     1     -29.156  39.465   5.599  0.00  0.00    +0.000 Si
ATOM     18  C   UNL     1     -30.225  40.905   5.004  0.00  0.00    +0.000 C 
ATOM     19  C   UNL     1     -27.348  39.881   5.322  0.00  0.00    +0.000 C 
ATOM     20  C   UNL     1     -29.460  39.418   7.464  0.00  0.00    +0.000 C 
ENDBRANCH   2  17
TORSDOF 3
ENDMDL
MODEL 4
REMARK VINA RESULT:    -3.912     15.123     16.255
REMARK INTER + INTRA:          -3.996
REMARK INTER:                  -4.599
REMARK INTRA:                   0.603
REMARK UNBOUND:                 0.601
REMARK  Name = 20499060
REMARK  9 active torsions:
REMARK  status: ('A' for Active; 'I' for Inactive)
REMARK    1  A    between atoms: SI_1  and  N_4
REMARK    2  A    between atoms: SI_1  and  C_7
REMARK    3  A    between atoms: SI_1  and  C_8
REMARK    4  A    between atoms: SI_1  and  C_9
REMARK    5  A    between atoms: SI_2  and  N_4
REMARK    6  A    between atoms: SI_2  and  C_10
REMARK    7  A    between atoms: SI_2  and  C_11
REMARK    8  A    between atoms: SI_2  and  C_12
REMARK    9  A    between atoms: C_13  and  C_14
REMARK                            x       y       z     vdW  Elec       q    Type
REMARK                         _______ _______ _______ _____ _____    ______ ____
ROOT
ATOM      1  O   UNL     1     -18.858  46.783 -11.726  0.00  0.00    +0.000 OA
ATOM      2  N   UNL     1     -17.738  47.403 -13.697  0.00  0.00    +0.000 N 
ATOM      3  C   UNL     1     -18.140  46.507 -12.691  0.00  0.00    +0.000 C 
ENDROOT
BRANCH   3   6
ATOM      4  N   UNL     1     -16.065  43.374 -12.794  0.00  0.00    +0.000 NA
ATOM      5  N   UNL     1     -16.681  41.091 -13.087  0.00  0.00    +0.000 N 
ATOM      6  C   UNL     1     -17.780  45.077 -12.797  0.00  0.00    +0.000 A 
ATOM      7  C   UNL     1     -18.756  44.106 -12.996  0.00  0.00    +0.000 A 
ATOM      8  C   UNL     1     -16.461  44.664 -12.704  0.00  0.00    +0.000 A 
ATOM      9  C   UNL     1     -18.387  42.769 -13.094  0.00  0.00    +0.000 A 
ATOM     10  C   UNL     1     -17.041  42.458 -12.987  0.00  0.00    +0.000 A 
ATOM     11  H   UNL     1     -17.356  40.393 -12.805  0.00  0.00    +0.000 HD
ATOM     12  H   UNL     1     -15.697  40.868 -13.002  0.00  0.00    +0.000 HD
ENDBRANCH   3   6
BRANCH   2  13
ATOM     13 SI   UNL     1     -17.409  49.137 -13.324  0.00  0.00    +0.000 Si
ATOM     14  C   UNL     1     -18.871  50.192 -13.826  0.00  0.00    +0.000 C 
ATOM     15  C   UNL     1     -15.896  49.719 -14.311  0.00  0.00    +0.000 C 
ATOM     16  C   UNL     1     -16.962  49.443 -11.526  0.00  0.00    +0.000 C 
ENDBRANCH   2  13
BRANCH   2  17
ATOM     17 SI   UNL     1     -17.538  46.858 -15.395  0.00  0.00    +0.000 Si
ATOM     18  C   UNL     1     -18.781  45.517 -15.871  0.00  0.00    +0.000 C 
ATOM     19  C   UNL     1     -15.798  46.217 -15.681  0.00  0.00    +0.000 C 
ATOM     20  C   UNL     1     -17.860  48.236 -16.648  0.00  0.00    +0.000 C 
ENDBRANCH   2  17
TORSDOF 3
ENDMDL
MODEL 5
REMARK VINA RESULT:    -3.906     24.290     26.393
REMARK INTER + INTRA:          -3.989
REMARK INTER:                  -4.706
REMARK INTRA:                   0.716
REMARK UNBOUND:                 0.601
REMARK  Name = 20499060
REMARK  9 active torsions:
REMARK  status: ('A' for Active; 'I' for Inactive)
REMARK    1  A    between atoms: SI_1  and  N_4
REMARK    2  A    between atoms: SI_1  and  C_7
REMARK    3  A    between atoms: SI_1  and  C_8
REMARK    4  A    between atoms: SI_1  and  C_9
REMARK    5  A    between atoms: SI_2  and  N_4
REMARK    6  A    between atoms: SI_2  and  C_10
REMARK    7  A    between atoms: SI_2  and  C_11
REMARK    8  A    between atoms: SI_2  and  C_12
REMARK    9  A    between atoms: C_13  and  C_14
REMARK                            x       y       z     vdW  Elec       q    Type
REMARK                         _______ _______ _______ _____ _____    ______ ____
ROOT
ATOM      1  O   UNL     1     -23.030  29.140   3.642  0.00  0.00    +0.000 OA
ATOM      2  N   UNL     1     -22.425  30.581   5.398  0.00  0.00    +0.000 N 
ATOM      3  C   UNL     1     -22.544  30.199   4.050  0.00  0.00    +0.000 C 
ENDROOT
BRANCH   3   6
ATOM      4  N   UNL     1     -22.827  32.775   1.327  0.00  0.00    +0.000 NA
ATOM      5  N   UNL     1     -21.166  33.826  -0.019  0.00  0.00    +0.000 N 
ATOM      6  C   UNL     1     -22.158  31.147   2.984  0.00  0.00    +0.000 A 
ATOM      7  C   UNL     1     -20.825  31.316   2.624  0.00  0.00    +0.000 A 
ATOM      8  C   UNL     1     -23.112  31.892   2.311  0.00  0.00    +0.000 A 
ATOM      9  C   UNL     1     -20.492  32.215   1.616  0.00  0.00    +0.000 A 
ATOM     10  C   UNL     1     -21.521  32.913   1.004  0.00  0.00    +0.000 A 
ATOM     11  H   UNL     1     -20.251  34.256   0.014  0.00  0.00    +0.000 HD
ATOM     12  H   UNL     1     -21.921  34.339  -0.459  0.00  0.00    +0.000 HD
ENDBRANCH   3   6
BRANCH   2  13
ATOM     13 SI   UNL     1     -22.092  29.362   6.686  0.00  0.00    +0.000 Si
ATOM     14  C   UNL     1     -23.607  29.134   7.762  0.00  0.00    +0.000 C 
ATOM     15  C   UNL     1     -20.675  29.977   7.787  0.00  0.00    +0.000 C 
ATOM     16  C   UNL     1     -21.505  27.708   6.017  0.00  0.00    +0.000 C 
ENDBRANCH   2  13
BRANCH   2  17
ATOM     17 SI   UNL     1     -22.600  32.297   5.893  0.00  0.00    +0.000 Si
ATOM     18  C   UNL     1     -24.131  33.108   5.140  0.00  0.00    +0.000 C 
ATOM     19  C   UNL     1     -21.078  33.281   5.408  0.00  0.00    +0.000 C 
ATOM     20  C   UNL     1     -22.852  32.499   7.755  0.00  0.00    +0.000 C 
ENDBRANCH   2  17
TORSDOF 3
ENDMDL
