MODEL 1
REMARK VINA RESULT:    -6.499      0.000      0.000
REMARK INTER + INTRA:          -7.633
REMARK INTER:                  -7.639
REMARK INTRA:                   0.006
REMARK UNBOUND:                 0.006
REMARK  Name = 20517057
REMARK  3 active torsions:
REMARK  status: ('A' for Active; 'I' for Inactive)
REMARK    1  A    between atoms: N_2  and  C_9
REMARK    2  A    between atoms: C_8  and  C_12
REMARK    3  A    between atoms: C_9  and  C_13
REMARK                            x       y       z     vdW  Elec       q    Type
REMARK                         _______ _______ _______ _____ _____    ______ ____
ROOT
ATOM      1  N   UNL     1     -19.814  40.561  -9.311  0.00  0.00    +0.000 N 
ATOM      2  N   UNL     1     -17.484  41.155  -9.478  0.00  0.00    +0.000 N 
ATOM      3  C   UNL     1     -18.738  41.294  -8.848  0.00  0.00    +0.000 A 
ATOM      4  C   UNL     1     -21.038  40.702  -8.688  0.00  0.00    +0.000 A 
ATOM      5  C   UNL     1     -21.199  41.566  -7.609  0.00  0.00    +0.000 A 
ATOM      6  C   UNL     1     -18.873  42.164  -7.772  0.00  0.00    +0.000 A 
ATOM      7  C   UNL     1     -20.109  42.299  -7.151  0.00  0.00    +0.000 A 
ATOM      8  H   UNL     1     -16.816  41.909  -9.377  0.00  0.00    +0.000 HD
ATOM      9  H   UNL     1     -17.339  40.500 -10.231  0.00  0.00    +0.000 HD
ENDROOT
BRANCH   5  12
ATOM     10  O   UNL     1     -23.420  40.884  -7.110  0.00  0.00    +0.000 OA
ATOM     11  N   UNL     1     -22.701  42.822  -6.174  0.00  0.00    +0.000 N 
ATOM     12  C   UNL     1     -22.496  41.699  -6.968  0.00  0.00    +0.000 C 
ATOM     13  H   UNL     1     -22.025  43.552  -5.990  0.00  0.00    +0.000 HD
ATOM     14  H   UNL     1     -23.599  42.950  -5.718  0.00  0.00    +0.000 HD
ENDBRANCH   5  12
BRANCH   1  15
ATOM     15  C   UNL     1     -19.683  39.646 -10.439  0.00  0.00    +0.000 C 
BRANCH  15  17
ATOM     16  N   UNL     1     -19.669  40.918 -12.736  0.00  0.00    +0.000 NA
ATOM     17  C   UNL     1     -19.675  40.356 -11.721  0.00  0.00    +0.000 C 
ENDBRANCH  15  17
ENDBRANCH   1  15
TORSDOF 3
ENDMDL
MODEL 2
REMARK VINA RESULT:    -5.670      3.442      5.781
REMARK INTER + INTRA:          -6.659
REMARK INTER:                  -6.610
REMARK INTRA:                  -0.049
REMARK UNBOUND:                 0.006
REMARK  Name = 20517057
REMARK  3 active torsions:
REMARK  status: ('A' for Active; 'I' for Inactive)
REMARK    1  A    between atoms: N_2  and  C_9
REMARK    2  A    between atoms: C_8  and  C_12
REMARK    3  A    between atoms: C_9  and  C_13
REMARK                            x       y       z     vdW  Elec       q    Type
REMARK                         _______ _______ _______ _____ _____    ______ ____
ROOT
ATOM      1  N   UNL     1     -18.731  40.339 -10.495  0.00  0.00    +0.000 N 
ATOM      2  N   UNL     1     -19.933  38.653 -11.728  0.00  0.00    +0.000 N 
ATOM      3  C   UNL     1     -18.911  39.623 -11.662  0.00  0.00    +0.000 A 
ATOM      4  C   UNL     1     -17.727  41.286 -10.438  0.00  0.00    +0.000 A 
ATOM      5  C   UNL     1     -16.903  41.525 -11.534  0.00  0.00    +0.000 A 
ATOM      6  C   UNL     1     -18.101  39.842 -12.770  0.00  0.00    +0.000 A 
ATOM      7  C   UNL     1     -17.093  40.797 -12.704  0.00  0.00    +0.000 A 
ATOM      8  H   UNL     1     -20.280  38.389 -12.642  0.00  0.00    +0.000 HD
ATOM      9  H   UNL     1     -20.509  38.435 -10.929  0.00  0.00    +0.000 HD
ENDROOT
BRANCH   5  12
ATOM     10  O   UNL     1     -16.044  43.738 -11.635  0.00  0.00    +0.000 OA
ATOM     11  N   UNL     1     -14.567  42.077 -11.176  0.00  0.00    +0.000 N 
ATOM     12  C   UNL     1     -15.854  42.526 -11.452  0.00  0.00    +0.000 C 
ATOM     13  H   UNL     1     -14.294  41.117 -11.014  0.00  0.00    +0.000 HD
ATOM     14  H   UNL     1     -13.808  42.749 -11.120  0.00  0.00    +0.000 HD
ENDBRANCH   5  12
BRANCH   1  15
ATOM     15  C   UNL     1     -19.576  40.117  -9.327  0.00  0.00    +0.000 C 
BRANCH  15  17
ATOM     16  N   UNL     1     -19.198  41.945  -7.480  0.00  0.00    +0.000 NA
ATOM     17  C   UNL     1     -19.364  41.137  -8.296  0.00  0.00    +0.000 C 
ENDBRANCH  15  17
ENDBRANCH   1  15
TORSDOF 3
ENDMDL
MODEL 3
REMARK VINA RESULT:    -5.579      3.468      5.510
REMARK INTER + INTRA:          -6.551
REMARK INTER:                  -6.390
REMARK INTRA:                  -0.162
REMARK UNBOUND:                 0.006
REMARK  Name = 20517057
REMARK  3 active torsions:
REMARK  status: ('A' for Active; 'I' for Inactive)
REMARK    1  A    between atoms: N_2  and  C_9
REMARK    2  A    between atoms: C_8  and  C_12
REMARK    3  A    between atoms: C_9  and  C_13
REMARK                            x       y       z     vdW  Elec       q    Type
REMARK                         _______ _______ _______ _____ _____    ______ ____
ROOT
ATOM      1  N   UNL     1     -18.496  40.804 -11.702  0.00  0.00    +0.000 N 
ATOM      2  N   UNL     1     -16.373  40.532 -10.595  0.00  0.00    +0.000 N 
ATOM      3  C   UNL     1     -17.180  41.193 -11.543  0.00  0.00    +0.000 A 
ATOM      4  C   UNL     1     -19.279  41.458 -12.634  0.00  0.00    +0.000 A 
ATOM      5  C   UNL     1     -18.763  42.493 -13.406  0.00  0.00    +0.000 A 
ATOM      6  C   UNL     1     -16.640  42.225 -12.303  0.00  0.00    +0.000 A 
ATOM      7  C   UNL     1     -17.437  42.877 -13.237  0.00  0.00    +0.000 A 
ATOM      8  H   UNL     1     -15.368  40.571 -10.715  0.00  0.00    +0.000 HD
ATOM      9  H   UNL     1     -16.744  39.810  -9.994  0.00  0.00    +0.000 HD
ENDROOT
BRANCH   5  12
ATOM     10  O   UNL     1     -20.535  42.612 -14.985  0.00  0.00    +0.000 OA
ATOM     11  N   UNL     1     -19.321  44.500 -14.651  0.00  0.00    +0.000 N 
ATOM     12  C   UNL     1     -19.605  43.167 -14.380  0.00  0.00    +0.000 C 
ATOM     13  H   UNL     1     -18.588  45.052 -14.224  0.00  0.00    +0.000 HD
ATOM     14  H   UNL     1     -19.885  44.999 -15.332  0.00  0.00    +0.000 HD
ENDBRANCH   5  12
BRANCH   1  15
ATOM     15  C   UNL     1     -19.071  39.723 -10.911  0.00  0.00    +0.000 C 
BRANCH  15  17
ATOM     16  N   UNL     1     -20.461  40.631  -8.876  0.00  0.00    +0.000 NA
ATOM     17  C   UNL     1     -19.847  40.229  -9.775  0.00  0.00    +0.000 C 
ENDBRANCH  15  17
ENDBRANCH   1  15
TORSDOF 3
ENDMDL
MODEL 4
REMARK VINA RESULT:    -5.504      2.772      3.867
REMARK INTER + INTRA:          -6.463
REMARK INTER:                  -6.287
REMARK INTRA:                  -0.176
REMARK UNBOUND:                 0.006
REMARK  Name = 20517057
REMARK  3 active torsions:
REMARK  status: ('A' for Active; 'I' for Inactive)
REMARK    1  A    between atoms: N_2  and  C_9
REMARK    2  A    between atoms: C_8  and  C_12
REMARK    3  A    between atoms: C_9  and  C_13
REMARK                            x       y       z     vdW  Elec       q    Type
REMARK                         _______ _______ _______ _____ _____    ______ ____
ROOT
ATOM      1  N   UNL     1     -17.211  41.593 -11.029  0.00  0.00    +0.000 N 
ATOM      2  N   UNL     1     -16.809  40.071 -12.853  0.00  0.00    +0.000 N 
ATOM      3  C   UNL     1     -17.530  40.426 -11.695  0.00  0.00    +0.000 A 
ATOM      4  C   UNL     1     -17.923  41.933  -9.895  0.00  0.00    +0.000 A 
ATOM      5  C   UNL     1     -18.949  41.121  -9.421  0.00  0.00    +0.000 A 
ATOM      6  C   UNL     1     -18.551  39.597 -11.242  0.00  0.00    +0.000 A 
ATOM      7  C   UNL     1     -19.262  39.949 -10.100  0.00  0.00    +0.000 A 
ATOM      8  H   UNL     1     -16.800  39.096 -13.128  0.00  0.00    +0.000 HD
ATOM      9  H   UNL     1     -16.093  40.670 -13.236  0.00  0.00    +0.000 HD
ENDROOT
BRANCH   5  12
ATOM     10  O   UNL     1     -19.193  42.151  -7.294  0.00  0.00    +0.000 OA
ATOM     11  N   UNL     1     -21.006  41.076  -8.134  0.00  0.00    +0.000 N 
ATOM     12  C   UNL     1     -19.685  41.499  -8.227  0.00  0.00    +0.000 C 
ATOM     13  H   UNL     1     -21.509  40.538  -8.828  0.00  0.00    +0.000 HD
ATOM     14  H   UNL     1     -21.548  41.315  -7.309  0.00  0.00    +0.000 HD
ENDBRANCH   5  12
BRANCH   1  15
ATOM     15  C   UNL     1     -16.142  42.468 -11.496  0.00  0.00    +0.000 C 
BRANCH  15  17
ATOM     16  N   UNL     1     -17.004  44.904 -11.967  0.00  0.00    +0.000 NA
ATOM     17  C   UNL     1     -16.624  43.827 -11.759  0.00  0.00    +0.000 C 
ENDBRANCH  15  17
ENDBRANCH   1  15
TORSDOF 3
ENDMDL
MODEL 5
REMARK VINA RESULT:    -5.478      3.864      5.055
REMARK INTER + INTRA:          -6.433
REMARK INTER:                  -6.265
REMARK INTRA:                  -0.168
REMARK UNBOUND:                 0.006
REMARK  Name = 20517057
REMARK  3 active torsions:
REMARK  status: ('A' for Active; 'I' for Inactive)
REMARK    1  A    between atoms: N_2  and  C_9
REMARK    2  A    between atoms: C_8  and  C_12
REMARK    3  A    between atoms: C_9  and  C_13
REMARK                            x       y       z     vdW  Elec       q    Type
REMARK                         _______ _______ _______ _____ _____    ______ ____
ROOT
ATOM      1  N   UNL     1     -18.449  42.773 -13.141  0.00  0.00    +0.000 N 
ATOM      2  N   UNL     1     -16.356  43.910 -13.505  0.00  0.00    +0.000 N 
ATOM      3  C   UNL     1     -17.092  42.868 -12.906  0.00  0.00    +0.000 A 
ATOM      4  C   UNL     1     -19.162  41.748 -12.550  0.00  0.00    +0.000 A 
ATOM      5  C   UNL     1     -18.533  40.818 -11.728  0.00  0.00    +0.000 A 
ATOM      6  C   UNL     1     -16.439  41.950 -12.089  0.00  0.00    +0.000 A 
ATOM      7  C   UNL     1     -17.165  40.922 -11.498  0.00  0.00    +0.000 A 
ATOM      8  H   UNL     1     -15.478  44.179 -13.079  0.00  0.00    +0.000 HD
ATOM      9  H   UNL     1     -16.787  44.566 -14.140  0.00  0.00    +0.000 HD
ENDROOT
BRANCH   5  12
ATOM     10  O   UNL     1     -19.375  38.600 -11.582  0.00  0.00    +0.000 OA
ATOM     11  N   UNL     1     -20.007  40.053  -9.958  0.00  0.00    +0.000 N 
ATOM     12  C   UNL     1     -19.302  39.748 -11.116  0.00  0.00    +0.000 C 
ATOM     13  H   UNL     1     -20.026  40.951  -9.492  0.00  0.00    +0.000 HD
ATOM     14  H   UNL     1     -20.561  39.330  -9.509  0.00  0.00    +0.000 HD
ENDBRANCH   5  12
BRANCH   1  15
ATOM     15  C   UNL     1     -19.142  43.730 -13.996  0.00  0.00    +0.000 C 
BRANCH  15  17
ATOM     16  N   UNL     1     -20.131  42.589 -16.144  0.00  0.00    +0.000 NA
ATOM     17  C   UNL     1     -19.694  43.093 -15.195  0.00  0.00    +0.000 C 
ENDBRANCH  15  17
ENDBRANCH   1  15
TORSDOF 3
ENDMDL
