MODEL 1
REMARK VINA RESULT:    -6.876      0.000      0.000
REMARK INTER + INTRA:          -8.402
REMARK INTER:                  -8.282
REMARK INTRA:                  -0.120
REMARK UNBOUND:                -0.120
REMARK  Name = 20517064
REMARK  4 active torsions:
REMARK  status: ('A' for Active; 'I' for Inactive)
REMARK    1  A    between atoms: O_1  and  C_13
REMARK    2  A    between atoms: N_4  and  C_8
REMARK    3  A    between atoms: C_8  and  C_13
REMARK    4  A    between atoms: C_10  and  C_14
REMARK                            x       y       z     vdW  Elec       q    Type
REMARK                         _______ _______ _______ _____ _____    ______ ____
ROOT
ATOM      1  N   UNL     1     -19.838  40.452  -9.298  0.00  0.00    +0.000 N 
ATOM      2  N   UNL     1     -17.517  41.100  -9.254  0.00  0.00    +0.000 N 
ATOM      3  C   UNL     1     -18.820  41.190  -8.725  0.00  0.00    +0.000 A 
ATOM      4  C   UNL     1     -21.112  40.546  -8.772  0.00  0.00    +0.000 A 
ATOM      5  C   UNL     1     -21.380  41.369  -7.682  0.00  0.00    +0.000 A 
ATOM      6  C   UNL     1     -19.061  42.020  -7.634  0.00  0.00    +0.000 A 
ATOM      7  C   UNL     1     -20.348  42.107  -7.112  0.00  0.00    +0.000 A 
ATOM      8  H   UNL     1     -16.875  41.862  -9.074  0.00  0.00    +0.000 HD
ATOM      9  H   UNL     1     -17.293  40.472 -10.011  0.00  0.00    +0.000 HD
ENDROOT
BRANCH   5  12
ATOM     10  O   UNL     1     -23.063  42.371  -6.374  0.00  0.00    +0.000 OA
ATOM     11  N   UNL     1     -23.644  40.484  -7.539  0.00  0.00    +0.000 N 
ATOM     12  C   UNL     1     -22.727  41.455  -7.146  0.00  0.00    +0.000 C 
ATOM     13  H   UNL     1     -23.455  39.711  -8.166  0.00  0.00    +0.000 HD
ATOM     14  H   UNL     1     -24.595  40.523  -7.185  0.00  0.00    +0.000 HD
ENDBRANCH   5  12
BRANCH   1  15
ATOM     15  C   UNL     1     -19.595  39.579 -10.440  0.00  0.00    +0.000 C 
BRANCH  15  17
ATOM     16  O   UNL     1     -19.304  41.558 -11.818  0.00  0.00    +0.000 OA
ATOM     17  C   UNL     1     -19.587  40.375 -11.710  0.00  0.00    +0.000 C 
BRANCH  17  18
ATOM     18  O   UNL     1     -19.943  39.585 -12.755  0.00  0.00    +0.000 OA
ATOM     19  H   UNL     1     -20.340  40.104 -13.487  0.00  0.00    +0.000 HD
ENDBRANCH  17  18
ENDBRANCH  15  17
ENDBRANCH   1  15
TORSDOF 4
ENDMDL
MODEL 2
REMARK VINA RESULT:    -6.391      1.711      4.600
REMARK INTER + INTRA:          -7.819
REMARK INTER:                  -7.542
REMARK INTRA:                  -0.277
REMARK UNBOUND:                -0.120
REMARK  Name = 20517064
REMARK  4 active torsions:
REMARK  status: ('A' for Active; 'I' for Inactive)
REMARK    1  A    between atoms: O_1  and  C_13
REMARK    2  A    between atoms: N_4  and  C_8
REMARK    3  A    between atoms: C_8  and  C_13
REMARK    4  A    between atoms: C_10  and  C_14
REMARK                            x       y       z     vdW  Elec       q    Type
REMARK                         _______ _______ _______ _____ _____    ______ ____
ROOT
ATOM      1  N   UNL     1     -20.591  40.981  -7.916  0.00  0.00    +0.000 N 
ATOM      2  N   UNL     1     -19.713  42.555  -6.317  0.00  0.00    +0.000 N 
ATOM      3  C   UNL     1     -19.625  41.903  -7.564  0.00  0.00    +0.000 A 
ATOM      4  C   UNL     1     -20.496  40.347  -9.140  0.00  0.00    +0.000 A 
ATOM      5  C   UNL     1     -19.448  40.624 -10.013  0.00  0.00    +0.000 A 
ATOM      6  C   UNL     1     -18.568  42.199  -8.419  0.00  0.00    +0.000 A 
ATOM      7  C   UNL     1     -18.482  41.555  -9.648  0.00  0.00    +0.000 A 
ATOM      8  H   UNL     1     -18.867  42.949  -5.923  0.00  0.00    +0.000 HD
ATOM      9  H   UNL     1     -20.491  42.405  -5.693  0.00  0.00    +0.000 HD
ENDROOT
BRANCH   5  12
ATOM     10  O   UNL     1     -18.800  38.843 -11.412  0.00  0.00    +0.000 OA
ATOM     11  N   UNL     1     -19.962  40.559 -12.393  0.00  0.00    +0.000 N 
ATOM     12  C   UNL     1     -19.367  39.944 -11.295  0.00  0.00    +0.000 C 
ATOM     13  H   UNL     1     -20.445  41.449 -12.383  0.00  0.00    +0.000 HD
ATOM     14  H   UNL     1     -19.926  40.103 -13.300  0.00  0.00    +0.000 HD
ENDBRANCH   5  12
BRANCH   1  15
ATOM     15  C   UNL     1     -21.702  40.664  -7.028  0.00  0.00    +0.000 C 
BRANCH  15  17
ATOM     16  O   UNL     1     -22.767  42.846  -6.939  0.00  0.00    +0.000 OA
ATOM     17  C   UNL     1     -22.812  41.655  -7.209  0.00  0.00    +0.000 C 
BRANCH  17  18
ATOM     18  O   UNL     1     -23.904  41.040  -7.729  0.00  0.00    +0.000 OA
ATOM     19  H   UNL     1     -24.101  40.195  -7.269  0.00  0.00    +0.000 HD
ENDBRANCH  17  18
ENDBRANCH  15  17
ENDBRANCH   1  15
TORSDOF 4
ENDMDL
MODEL 3
REMARK VINA RESULT:    -6.143      4.002      5.637
REMARK INTER + INTRA:          -7.520
REMARK INTER:                  -7.196
REMARK INTRA:                  -0.323
REMARK UNBOUND:                -0.120
REMARK  Name = 20517064
REMARK  4 active torsions:
REMARK  status: ('A' for Active; 'I' for Inactive)
REMARK    1  A    between atoms: O_1  and  C_13
REMARK    2  A    between atoms: N_4  and  C_8
REMARK    3  A    between atoms: C_8  and  C_13
REMARK    4  A    between atoms: C_10  and  C_14
REMARK                            x       y       z     vdW  Elec       q    Type
REMARK                         _______ _______ _______ _____ _____    ______ ____
ROOT
ATOM      1  N   UNL     1     -18.001  41.446 -12.163  0.00  0.00    +0.000 N 
ATOM      2  N   UNL     1     -16.930  42.232 -10.152  0.00  0.00    +0.000 N 
ATOM      3  C   UNL     1     -17.590  42.499 -11.368  0.00  0.00    +0.000 A 
ATOM      4  C   UNL     1     -18.647  41.718 -13.353  0.00  0.00    +0.000 A 
ATOM      5  C   UNL     1     -18.886  43.028 -13.758  0.00  0.00    +0.000 A 
ATOM      6  C   UNL     1     -17.817  43.818 -11.749  0.00  0.00    +0.000 A 
ATOM      7  C   UNL     1     -18.468  44.080 -12.950  0.00  0.00    +0.000 A 
ATOM      8  H   UNL     1     -16.346  42.958  -9.756  0.00  0.00    +0.000 HD
ATOM      9  H   UNL     1     -16.793  41.290  -9.817  0.00  0.00    +0.000 HD
ENDROOT
BRANCH   5  12
ATOM     10  O   UNL     1     -20.620  42.705 -15.319  0.00  0.00    +0.000 OA
ATOM     11  N   UNL     1     -19.006  44.239 -15.868  0.00  0.00    +0.000 N 
ATOM     12  C   UNL     1     -19.565  43.291 -15.015  0.00  0.00    +0.000 C 
ATOM     13  H   UNL     1     -18.157  44.762 -15.695  0.00  0.00    +0.000 HD
ATOM     14  H   UNL     1     -19.463  44.447 -16.750  0.00  0.00    +0.000 HD
ENDBRANCH   5  12
BRANCH   1  15
ATOM     15  C   UNL     1     -17.768  40.062 -11.772  0.00  0.00    +0.000 C 
BRANCH  15  17
ATOM     16  O   UNL     1     -19.328  39.942  -9.914  0.00  0.00    +0.000 OA
ATOM     17  C   UNL     1     -18.939  39.535 -10.997  0.00  0.00    +0.000 C 
BRANCH  17  18
ATOM     18  O   UNL     1     -19.527  38.520 -11.679  0.00  0.00    +0.000 OA
ATOM     19  H   UNL     1     -20.485  38.681 -11.822  0.00  0.00    +0.000 HD
ENDBRANCH  17  18
ENDBRANCH  15  17
ENDBRANCH   1  15
TORSDOF 4
ENDMDL
MODEL 4
REMARK VINA RESULT:    -6.095      4.652      5.355
REMARK INTER + INTRA:          -7.461
REMARK INTER:                  -7.167
REMARK INTRA:                  -0.295
REMARK UNBOUND:                -0.120
REMARK  Name = 20517064
REMARK  4 active torsions:
REMARK  status: ('A' for Active; 'I' for Inactive)
REMARK    1  A    between atoms: O_1  and  C_13
REMARK    2  A    between atoms: N_4  and  C_8
REMARK    3  A    between atoms: C_8  and  C_13
REMARK    4  A    between atoms: C_10  and  C_14
REMARK                            x       y       z     vdW  Elec       q    Type
REMARK                         _______ _______ _______ _____ _____    ______ ____
ROOT
ATOM      1  N   UNL     1     -17.440  41.339 -12.483  0.00  0.00    +0.000 N 
ATOM      2  N   UNL     1     -15.599  40.492 -11.178  0.00  0.00    +0.000 N 
ATOM      3  C   UNL     1     -16.365  41.578 -11.649  0.00  0.00    +0.000 A 
ATOM      4  C   UNL     1     -18.184  42.410 -12.939  0.00  0.00    +0.000 A 
ATOM      5  C   UNL     1     -17.866  43.714 -12.573  0.00  0.00    +0.000 A 
ATOM      6  C   UNL     1     -16.026  42.872 -11.267  0.00  0.00    +0.000 A 
ATOM      7  C   UNL     1     -16.782  43.943 -11.732  0.00  0.00    +0.000 A 
ATOM      8  H   UNL     1     -14.653  40.674 -10.870  0.00  0.00    +0.000 HD
ATOM      9  H   UNL     1     -15.845  39.537 -11.392  0.00  0.00    +0.000 HD
ENDROOT
BRANCH   5  12
ATOM     10  O   UNL     1     -18.874  45.833 -12.368  0.00  0.00    +0.000 OA
ATOM     11  N   UNL     1     -19.167  44.737 -14.360  0.00  0.00    +0.000 N 
ATOM     12  C   UNL     1     -18.661  44.826 -13.066  0.00  0.00    +0.000 C 
ATOM     13  H   UNL     1     -19.037  43.957 -14.993  0.00  0.00    +0.000 HD
ATOM     14  H   UNL     1     -19.721  45.502 -14.733  0.00  0.00    +0.000 HD
ENDBRANCH   5  12
BRANCH   1  15
ATOM     15  C   UNL     1     -17.804  39.987 -12.888  0.00  0.00    +0.000 C 
BRANCH  15  17
ATOM     16  O   UNL     1     -18.765  39.368 -10.745  0.00  0.00    +0.000 OA
ATOM     17  C   UNL     1     -18.841  39.427 -11.963  0.00  0.00    +0.000 C 
BRANCH  17  18
ATOM     18  O   UNL     1     -19.907  38.983 -12.675  0.00  0.00    +0.000 OA
ATOM     19  H   UNL     1     -19.774  39.095 -13.641  0.00  0.00    +0.000 HD
ENDBRANCH  17  18
ENDBRANCH  15  17
ENDBRANCH   1  15
TORSDOF 4
ENDMDL
MODEL 5
REMARK VINA RESULT:    -5.924      2.839      5.598
REMARK INTER + INTRA:          -7.256
REMARK INTER:                  -6.936
REMARK INTRA:                  -0.319
REMARK UNBOUND:                -0.120
REMARK  Name = 20517064
REMARK  4 active torsions:
REMARK  status: ('A' for Active; 'I' for Inactive)
REMARK    1  A    between atoms: O_1  and  C_13
REMARK    2  A    between atoms: N_4  and  C_8
REMARK    3  A    between atoms: C_8  and  C_13
REMARK    4  A    between atoms: C_10  and  C_14
REMARK                            x       y       z     vdW  Elec       q    Type
REMARK                         _______ _______ _______ _____ _____    ______ ____
ROOT
ATOM      1  N   UNL     1     -18.567  41.365 -10.036  0.00  0.00    +0.000 N 
ATOM      2  N   UNL     1     -20.011  39.491 -10.500  0.00  0.00    +0.000 N 
ATOM      3  C   UNL     1     -19.294  40.620 -10.945  0.00  0.00    +0.000 A 
ATOM      4  C   UNL     1     -17.869  42.470 -10.482  0.00  0.00    +0.000 A 
ATOM      5  C   UNL     1     -17.889  42.839 -11.824  0.00  0.00    +0.000 A 
ATOM      6  C   UNL     1     -19.330  40.967 -12.292  0.00  0.00    +0.000 A 
ATOM      7  C   UNL     1     -18.623  42.082 -12.730  0.00  0.00    +0.000 A 
ATOM      8  H   UNL     1     -20.785  39.165 -11.063  0.00  0.00    +0.000 HD
ATOM      9  H   UNL     1     -19.968  39.179  -9.541  0.00  0.00    +0.000 HD
ENDROOT
BRANCH   5  12
ATOM     10  O   UNL     1     -17.136  45.060 -11.611  0.00  0.00    +0.000 OA
ATOM     11  N   UNL     1     -16.432  43.903 -13.460  0.00  0.00    +0.000 N 
ATOM     12  C   UNL     1     -17.148  44.006 -12.271  0.00  0.00    +0.000 C 
ATOM     13  H   UNL     1     -16.385  43.083 -14.053  0.00  0.00    +0.000 HD
ATOM     14  H   UNL     1     -15.900  44.701 -13.793  0.00  0.00    +0.000 HD
ENDBRANCH   5  12
BRANCH   1  15
ATOM     15  C   UNL     1     -18.523  41.009  -8.623  0.00  0.00    +0.000 C 
BRANCH  15  17
ATOM     16  O   UNL     1     -20.852  41.272  -7.984  0.00  0.00    +0.000 OA
ATOM     17  C   UNL     1     -19.684  41.618  -7.897  0.00  0.00    +0.000 C 
BRANCH  17  18
ATOM     18  O   UNL     1     -19.255  42.634  -7.105  0.00  0.00    +0.000 OA
ATOM     19  H   UNL     1     -18.364  42.950  -7.367  0.00  0.00    +0.000 HD
ENDBRANCH  17  18
ENDBRANCH  15  17
ENDBRANCH   1  15
TORSDOF 4
ENDMDL
