MODEL 1
REMARK VINA RESULT:    -7.041      0.000      0.000
REMARK INTER + INTRA:          -8.310
REMARK INTER:                  -8.276
REMARK INTRA:                  -0.035
REMARK UNBOUND:                -0.035
REMARK  Name = 20517055
REMARK  3 active torsions:
REMARK  status: ('A' for Active; 'I' for Inactive)
REMARK    1  A    between atoms: N_3  and  C_7
REMARK    2  A    between atoms: C_7  and  C_13
REMARK    3  A    between atoms: C_10  and  C_14
REMARK                            x       y       z     vdW  Elec       q    Type
REMARK                         _______ _______ _______ _____ _____    ______ ____
ROOT
ATOM      1  N   UNL     1     -19.858  40.471  -9.260  0.00  0.00    +0.000 N 
ATOM      2  N   UNL     1     -17.508  40.986  -9.405  0.00  0.00    +0.000 N 
ATOM      3  C   UNL     1     -18.765  41.177  -8.797  0.00  0.00    +0.000 A 
ATOM      4  C   UNL     1     -21.085  40.666  -8.657  0.00  0.00    +0.000 A 
ATOM      5  C   UNL     1     -21.233  41.557  -7.600  0.00  0.00    +0.000 A 
ATOM      6  C   UNL     1     -18.885  42.075  -7.740  0.00  0.00    +0.000 A 
ATOM      7  C   UNL     1     -20.126  42.264  -7.141  0.00  0.00    +0.000 A 
ATOM      8  H   UNL     1     -16.816  41.719  -9.312  0.00  0.00    +0.000 HD
ATOM      9  H   UNL     1     -17.373  40.309 -10.141  0.00  0.00    +0.000 HD
ENDROOT
BRANCH   5  12
ATOM     10  O   UNL     1     -23.441  40.907  -7.102  0.00  0.00    +0.000 OA
ATOM     11  N   UNL     1     -22.729  42.904  -6.228  0.00  0.00    +0.000 N 
ATOM     12  C   UNL     1     -22.534  41.749  -6.981  0.00  0.00    +0.000 C 
ATOM     13  H   UNL     1     -22.044  43.633  -6.075  0.00  0.00    +0.000 HD
ATOM     14  H   UNL     1     -23.626  43.059  -5.779  0.00  0.00    +0.000 HD
ENDBRANCH   5  12
BRANCH   1  15
ATOM     15  C   UNL     1     -19.742  39.530 -10.366  0.00  0.00    +0.000 C 
BRANCH  15  18
ATOM     16  O   UNL     1     -19.597  41.474 -11.794  0.00  0.00    +0.000 OA
ATOM     17  N   UNL     1     -19.704  39.388 -12.757  0.00  0.00    +0.000 N 
ATOM     18  C   UNL     1     -19.673  40.253 -11.685  0.00  0.00    +0.000 C 
ATOM     19  H   UNL     1     -19.767  38.381 -12.641  0.00  0.00    +0.000 HD
ATOM     20  H   UNL     1     -19.664  39.736 -13.708  0.00  0.00    +0.000 HD
ENDBRANCH  15  18
ENDBRANCH   1  15
TORSDOF 3
ENDMDL
MODEL 2
REMARK VINA RESULT:    -6.206      4.580      5.463
REMARK INTER + INTRA:          -7.329
REMARK INTER:                  -6.984
REMARK INTRA:                  -0.345
REMARK UNBOUND:                -0.035
REMARK  Name = 20517055
REMARK  3 active torsions:
REMARK  status: ('A' for Active; 'I' for Inactive)
REMARK    1  A    between atoms: N_3  and  C_7
REMARK    2  A    between atoms: C_7  and  C_13
REMARK    3  A    between atoms: C_10  and  C_14
REMARK                            x       y       z     vdW  Elec       q    Type
REMARK                         _______ _______ _______ _____ _____    ______ ____
ROOT
ATOM      1  N   UNL     1     -17.345  41.538 -12.532  0.00  0.00    +0.000 N 
ATOM      2  N   UNL     1     -15.486  40.740 -11.221  0.00  0.00    +0.000 N 
ATOM      3  C   UNL     1     -16.273  41.805 -11.702  0.00  0.00    +0.000 A 
ATOM      4  C   UNL     1     -18.109  42.589 -12.998  0.00  0.00    +0.000 A 
ATOM      5  C   UNL     1     -17.815  43.902 -12.647  0.00  0.00    +0.000 A 
ATOM      6  C   UNL     1     -15.957  43.110 -11.336  0.00  0.00    +0.000 A 
ATOM      7  C   UNL     1     -16.733  44.161 -11.812  0.00  0.00    +0.000 A 
ATOM      8  H   UNL     1     -14.541  40.943 -10.919  0.00  0.00    +0.000 HD
ATOM      9  H   UNL     1     -15.714  39.779 -11.427  0.00  0.00    +0.000 HD
ENDROOT
BRANCH   5  12
ATOM     10  O   UNL     1     -18.888  45.990 -12.452  0.00  0.00    +0.000 OA
ATOM     11  N   UNL     1     -19.107  44.898 -14.456  0.00  0.00    +0.000 N 
ATOM     12  C   UNL     1     -18.632  44.994 -13.151  0.00  0.00    +0.000 C 
ATOM     13  H   UNL     1     -18.941  44.127 -15.091  0.00  0.00    +0.000 HD
ATOM     14  H   UNL     1     -19.675  45.649 -14.836  0.00  0.00    +0.000 HD
ENDBRANCH   5  12
BRANCH   1  15
ATOM     15  C   UNL     1     -17.683  40.175 -12.921  0.00  0.00    +0.000 C 
BRANCH  15  18
ATOM     16  O   UNL     1     -18.438  39.314 -10.794  0.00  0.00    +0.000 OA
ATOM     17  N   UNL     1     -19.902  39.348 -12.567  0.00  0.00    +0.000 N 
ATOM     18  C   UNL     1     -18.681  39.574 -11.969  0.00  0.00    +0.000 C 
ATOM     19  H   UNL     1     -20.080  39.573 -13.541  0.00  0.00    +0.000 HD
ATOM     20  H   UNL     1     -20.673  38.947 -12.043  0.00  0.00    +0.000 HD
ENDBRANCH  15  18
ENDBRANCH   1  15
TORSDOF 3
ENDMDL
MODEL 3
REMARK VINA RESULT:    -6.073      3.952      5.674
REMARK INTER + INTRA:          -7.172
REMARK INTER:                  -6.855
REMARK INTRA:                  -0.317
REMARK UNBOUND:                -0.035
REMARK  Name = 20517055
REMARK  3 active torsions:
REMARK  status: ('A' for Active; 'I' for Inactive)
REMARK    1  A    between atoms: N_3  and  C_7
REMARK    2  A    between atoms: C_7  and  C_13
REMARK    3  A    between atoms: C_10  and  C_14
REMARK                            x       y       z     vdW  Elec       q    Type
REMARK                         _______ _______ _______ _____ _____    ______ ____
ROOT
ATOM      1  N   UNL     1     -17.962  41.592 -12.271  0.00  0.00    +0.000 N 
ATOM      2  N   UNL     1     -16.950  42.312 -10.205  0.00  0.00    +0.000 N 
ATOM      3  C   UNL     1     -17.585  42.617 -11.426  0.00  0.00    +0.000 A 
ATOM      4  C   UNL     1     -18.583  41.902 -13.464  0.00  0.00    +0.000 A 
ATOM      5  C   UNL     1     -18.829  43.223 -13.824  0.00  0.00    +0.000 A 
ATOM      6  C   UNL     1     -17.820  43.947 -11.761  0.00  0.00    +0.000 A 
ATOM      7  C   UNL     1     -18.445  44.248 -12.967  0.00  0.00    +0.000 A 
ATOM      8  H   UNL     1     -16.383  43.029  -9.769  0.00  0.00    +0.000 HD
ATOM      9  H   UNL     1     -16.807  41.359  -9.907  0.00  0.00    +0.000 HD
ENDROOT
BRANCH   5  12
ATOM     10  O   UNL     1     -19.997  42.635 -15.783  0.00  0.00    +0.000 OA
ATOM     11  N   UNL     1     -19.530  44.860 -15.486  0.00  0.00    +0.000 N 
ATOM     12  C   UNL     1     -19.482  43.527 -15.086  0.00  0.00    +0.000 C 
ATOM     13  H   UNL     1     -19.141  45.644 -14.977  0.00  0.00    +0.000 HD
ATOM     14  H   UNL     1     -19.986  45.102 -16.360  0.00  0.00    +0.000 HD
ENDBRANCH   5  12
BRANCH   1  15
ATOM     15  C   UNL     1     -17.720  40.196 -11.928  0.00  0.00    +0.000 C 
BRANCH  15  18
ATOM     16  O   UNL     1     -19.011  39.746  -9.936  0.00  0.00    +0.000 OA
ATOM     17  N   UNL     1     -19.762  38.946 -11.957  0.00  0.00    +0.000 N 
ATOM     18  C   UNL     1     -18.874  39.624 -11.150  0.00  0.00    +0.000 C 
ATOM     19  H   UNL     1     -19.628  38.859 -12.959  0.00  0.00    +0.000 HD
ATOM     20  H   UNL     1     -20.590  38.509 -11.568  0.00  0.00    +0.000 HD
ENDBRANCH  15  18
ENDBRANCH   1  15
TORSDOF 3
ENDMDL
MODEL 4
REMARK VINA RESULT:    -5.950      2.924      3.947
REMARK INTER + INTRA:          -7.028
REMARK INTER:                  -6.783
REMARK INTRA:                  -0.245
REMARK UNBOUND:                -0.035
REMARK  Name = 20517055
REMARK  3 active torsions:
REMARK  status: ('A' for Active; 'I' for Inactive)
REMARK    1  A    between atoms: N_3  and  C_7
REMARK    2  A    between atoms: C_7  and  C_13
REMARK    3  A    between atoms: C_10  and  C_14
REMARK                            x       y       z     vdW  Elec       q    Type
REMARK                         _______ _______ _______ _____ _____    ______ ____
ROOT
ATOM      1  N   UNL     1     -17.302  41.439 -11.178  0.00  0.00    +0.000 N 
ATOM      2  N   UNL     1     -16.955  39.956 -13.046  0.00  0.00    +0.000 N 
ATOM      3  C   UNL     1     -17.648  40.292 -11.866  0.00  0.00    +0.000 A 
ATOM      4  C   UNL     1     -17.987  41.758 -10.022  0.00  0.00    +0.000 A 
ATOM      5  C   UNL     1     -19.011  40.946  -9.546  0.00  0.00    +0.000 A 
ATOM      6  C   UNL     1     -18.669  39.462 -11.411  0.00  0.00    +0.000 A 
ATOM      7  C   UNL     1     -19.351  39.793 -10.246  0.00  0.00    +0.000 A 
ATOM      8  H   UNL     1     -16.962  38.988 -13.345  0.00  0.00    +0.000 HD
ATOM      9  H   UNL     1     -16.243  40.558 -13.432  0.00  0.00    +0.000 HD
ENDROOT
BRANCH   5  12
ATOM     10  O   UNL     1     -19.160  41.932  -7.412  0.00  0.00    +0.000 OA
ATOM     11  N   UNL     1     -21.054  40.924  -8.220  0.00  0.00    +0.000 N 
ATOM     12  C   UNL     1     -19.717  41.301  -8.326  0.00  0.00    +0.000 C 
ATOM     13  H   UNL     1     -21.582  40.414  -8.917  0.00  0.00    +0.000 HD
ATOM     14  H   UNL     1     -21.573  41.164  -7.381  0.00  0.00    +0.000 HD
ENDBRANCH   5  12
BRANCH   1  15
ATOM     15  C   UNL     1     -16.234  42.313 -11.646  0.00  0.00    +0.000 C 
BRANCH  15  18
ATOM     16  O   UNL     1     -17.021  44.596 -11.585  0.00  0.00    +0.000 OA
ATOM     17  N   UNL     1     -17.024  43.469 -13.589  0.00  0.00    +0.000 N 
ATOM     18  C   UNL     1     -16.795  43.580 -12.235  0.00  0.00    +0.000 C 
ATOM     19  H   UNL     1     -16.828  42.617 -14.105  0.00  0.00    +0.000 HD
ATOM     20  H   UNL     1     -17.401  44.247 -14.119  0.00  0.00    +0.000 HD
ENDBRANCH  15  18
ENDBRANCH   1  15
TORSDOF 3
ENDMDL
MODEL 5
REMARK VINA RESULT:    -5.784      3.214      5.461
REMARK INTER + INTRA:          -6.833
REMARK INTER:                  -6.599
REMARK INTRA:                  -0.235
REMARK UNBOUND:                -0.035
REMARK  Name = 20517055
REMARK  3 active torsions:
REMARK  status: ('A' for Active; 'I' for Inactive)
REMARK    1  A    between atoms: N_3  and  C_7
REMARK    2  A    between atoms: C_7  and  C_13
REMARK    3  A    between atoms: C_10  and  C_14
REMARK                            x       y       z     vdW  Elec       q    Type
REMARK                         _______ _______ _______ _____ _____    ______ ____
ROOT
ATOM      1  N   UNL     1     -18.486  41.386 -11.134  0.00  0.00    +0.000 N 
ATOM      2  N   UNL     1     -19.980  40.032 -12.455  0.00  0.00    +0.000 N 
ATOM      3  C   UNL     1     -19.250  41.224 -12.274  0.00  0.00    +0.000 A 
ATOM      4  C   UNL     1     -17.775  42.558 -10.966  0.00  0.00    +0.000 A 
ATOM      5  C   UNL     1     -17.819  43.568 -11.921  0.00  0.00    +0.000 A 
ATOM      6  C   UNL     1     -19.311  42.220 -13.244  0.00  0.00    +0.000 A 
ATOM      7  C   UNL     1     -18.592  43.396 -13.064  0.00  0.00    +0.000 A 
ATOM      8  H   UNL     1     -20.777  40.051 -13.080  0.00  0.00    +0.000 HD
ATOM      9  H   UNL     1     -19.922  39.271 -11.796  0.00  0.00    +0.000 HD
ENDROOT
BRANCH   5  12
ATOM     10  O   UNL     1     -15.841  44.847 -11.941  0.00  0.00    +0.000 OA
ATOM     11  N   UNL     1     -17.761  45.922 -11.296  0.00  0.00    +0.000 N 
ATOM     12  C   UNL     1     -17.064  44.795 -11.723  0.00  0.00    +0.000 C 
ATOM     13  H   UNL     1     -18.754  45.966 -11.101  0.00  0.00    +0.000 HD
ATOM     14  H   UNL     1     -17.259  46.794 -11.156  0.00  0.00    +0.000 HD
ENDBRANCH   5  12
BRANCH   1  15
ATOM     15  C   UNL     1     -18.416  40.350 -10.112  0.00  0.00    +0.000 C 
BRANCH  15  18
ATOM     16  O   UNL     1     -18.822  41.334  -7.943  0.00  0.00    +0.000 OA
ATOM     17  N   UNL     1     -20.552  40.281  -9.032  0.00  0.00    +0.000 N 
ATOM     18  C   UNL     1     -19.250  40.717  -8.914  0.00  0.00    +0.000 C 
ATOM     19  H   UNL     1     -20.883  39.773  -9.846  0.00  0.00    +0.000 HD
ATOM     20  H   UNL     1     -21.230  40.459  -8.299  0.00  0.00    +0.000 HD
ENDBRANCH  15  18
ENDBRANCH   1  15
TORSDOF 3
ENDMDL
