MODEL 1
REMARK VINA RESULT:    -6.241      0.000      0.000
REMARK INTER + INTRA:          -7.264
REMARK INTER:                  -6.971
REMARK INTRA:                  -0.293
REMARK UNBOUND:                -0.293
REMARK  Name = 20517072
REMARK  2 active torsions:
REMARK  status: ('A' for Active; 'I' for Inactive)
REMARK    1  A    between atoms: N_2  and  C_5
REMARK    2  A    between atoms: C_8  and  C_15
REMARK                            x       y       z     vdW  Elec       q    Type
REMARK                         _______ _______ _______ _____ _____    ______ ____
ROOT
ATOM      1  N   UNL     1     -17.431  41.656 -11.258  0.00  0.00    +0.000 N 
ATOM      2  N   UNL     1     -16.970  40.140 -13.085  0.00  0.00    +0.000 N 
ATOM      3  C   UNL     1     -17.656  40.448 -11.890  0.00  0.00    +0.000 A 
ATOM      4  C   UNL     1     -18.111  41.936 -10.089  0.00  0.00    +0.000 A 
ATOM      5  C   UNL     1     -19.010  41.025  -9.544  0.00  0.00    +0.000 A 
ATOM      6  C   UNL     1     -18.550  39.519 -11.367  0.00  0.00    +0.000 A 
ATOM      7  C   UNL     1     -19.228  39.812 -10.189  0.00  0.00    +0.000 A 
ATOM      8  H   UNL     1     -16.918  39.168 -13.365  0.00  0.00    +0.000 HD
ATOM      9  H   UNL     1     -16.278  40.767 -13.468  0.00  0.00    +0.000 HD
ENDROOT
BRANCH   1  10
ATOM     10  C   UNL     1     -16.518  42.612 -11.778  0.00  0.00    +0.000 A 
ATOM     11  C   UNL     1     -16.938  43.525 -12.745  0.00  0.00    +0.000 A 
ATOM     12  C   UNL     1     -15.200  42.638 -11.320  0.00  0.00    +0.000 A 
ATOM     13  C   UNL     1     -16.041  44.463 -13.257  0.00  0.00    +0.000 A 
ATOM     14  C   UNL     1     -14.303  43.577 -11.832  0.00  0.00    +0.000 A 
ATOM     15  C   UNL     1     -14.723  44.489 -12.799  0.00  0.00    +0.000 A 
ENDBRANCH   1  10
BRANCH   5  18
ATOM     16  O   UNL     1     -19.184  41.911  -7.346  0.00  0.00    +0.000 OA
ATOM     17  N   UNL     1     -21.044  40.951  -8.223  0.00  0.00    +0.000 N 
ATOM     18  C   UNL     1     -19.713  41.340  -8.312  0.00  0.00    +0.000 C 
ATOM     19  H   UNL     1     -21.576  40.479  -8.942  0.00  0.00    +0.000 HD
ATOM     20  H   UNL     1     -21.562  41.149  -7.372  0.00  0.00    +0.000 HD
ENDBRANCH   5  18
TORSDOF 2
ENDMDL
MODEL 2
REMARK VINA RESULT:    -6.200      2.074      2.496
REMARK INTER + INTRA:          -7.218
REMARK INTER:                  -6.918
REMARK INTRA:                  -0.300
REMARK UNBOUND:                -0.293
REMARK  Name = 20517072
REMARK  2 active torsions:
REMARK  status: ('A' for Active; 'I' for Inactive)
REMARK    1  A    between atoms: N_2  and  C_5
REMARK    2  A    between atoms: C_8  and  C_15
REMARK                            x       y       z     vdW  Elec       q    Type
REMARK                         _______ _______ _______ _____ _____    ______ ____
ROOT
ATOM      1  N   UNL     1     -17.873  43.037 -11.948  0.00  0.00    +0.000 N 
ATOM      2  N   UNL     1     -18.317  43.355 -14.305  0.00  0.00    +0.000 N 
ATOM      3  C   UNL     1     -18.507  42.631 -13.107  0.00  0.00    +0.000 A 
ATOM      4  C   UNL     1     -18.072  42.314 -10.789  0.00  0.00    +0.000 A 
ATOM      5  C   UNL     1     -18.893  41.191 -10.773  0.00  0.00    +0.000 A 
ATOM      6  C   UNL     1     -19.334  41.512 -13.119  0.00  0.00    +0.000 A 
ATOM      7  C   UNL     1     -19.526  40.791 -11.946  0.00  0.00    +0.000 A 
ATOM      8  H   UNL     1     -18.537  42.892 -15.178  0.00  0.00    +0.000 HD
ATOM      9  H   UNL     1     -17.686  44.142 -14.346  0.00  0.00    +0.000 HD
ENDROOT
BRANCH   1  10
ATOM     10  C   UNL     1     -17.023  44.175 -11.922  0.00  0.00    +0.000 A 
ATOM     11  C   UNL     1     -15.655  44.030 -12.152  0.00  0.00    +0.000 A 
ATOM     12  C   UNL     1     -17.556  45.439 -11.666  0.00  0.00    +0.000 A 
ATOM     13  C   UNL     1     -14.820  45.146 -12.125  0.00  0.00    +0.000 A 
ATOM     14  C   UNL     1     -16.721  46.556 -11.640  0.00  0.00    +0.000 A 
ATOM     15  C   UNL     1     -15.354  46.410 -11.870  0.00  0.00    +0.000 A 
ENDBRANCH   1  10
BRANCH   5  18
ATOM     16  O   UNL     1     -20.112  39.796  -9.286  0.00  0.00    +0.000 OA
ATOM     17  N   UNL     1     -18.060  40.487  -8.605  0.00  0.00    +0.000 N 
ATOM     18  C   UNL     1     -19.085  40.444  -9.542  0.00  0.00    +0.000 C 
ATOM     19  H   UNL     1     -17.184  40.983  -8.704  0.00  0.00    +0.000 HD
ATOM     20  H   UNL     1     -18.166  39.983  -7.730  0.00  0.00    +0.000 HD
ENDBRANCH   5  18
TORSDOF 2
ENDMDL
MODEL 3
REMARK VINA RESULT:    -6.156      2.758      5.444
REMARK INTER + INTRA:          -7.169
REMARK INTER:                  -6.886
REMARK INTRA:                  -0.283
REMARK UNBOUND:                -0.293
REMARK  Name = 20517072
REMARK  2 active torsions:
REMARK  status: ('A' for Active; 'I' for Inactive)
REMARK    1  A    between atoms: N_2  and  C_5
REMARK    2  A    between atoms: C_8  and  C_15
REMARK                            x       y       z     vdW  Elec       q    Type
REMARK                         _______ _______ _______ _____ _____    ______ ____
ROOT
ATOM      1  N   UNL     1     -17.424  42.956 -11.732  0.00  0.00    +0.000 N 
ATOM      2  N   UNL     1     -15.271  41.935 -11.315  0.00  0.00    +0.000 N 
ATOM      3  C   UNL     1     -16.066  42.897 -11.977  0.00  0.00    +0.000 A 
ATOM      4  C   UNL     1     -18.182  43.903 -12.393  0.00  0.00    +0.000 A 
ATOM      5  C   UNL     1     -17.600  44.789 -13.293  0.00  0.00    +0.000 A 
ATOM      6  C   UNL     1     -15.458  43.772 -12.873  0.00  0.00    +0.000 A 
ATOM      7  C   UNL     1     -16.231  44.721 -13.532  0.00  0.00    +0.000 A 
ATOM      8  H   UNL     1     -14.366  41.713 -11.712  0.00  0.00    +0.000 HD
ATOM      9  H   UNL     1     -15.683  41.252 -10.696  0.00  0.00    +0.000 HD
ENDROOT
BRANCH   1  10
ATOM     10  C   UNL     1     -18.058  42.066 -10.824  0.00  0.00    +0.000 A 
ATOM     11  C   UNL     1     -18.676  40.908 -11.297  0.00  0.00    +0.000 A 
ATOM     12  C   UNL     1     -18.063  42.351  -9.458  0.00  0.00    +0.000 A 
ATOM     13  C   UNL     1     -19.299  40.036 -10.406  0.00  0.00    +0.000 A 
ATOM     14  C   UNL     1     -18.686  41.478  -8.566  0.00  0.00    +0.000 A 
ATOM     15  C   UNL     1     -19.304  40.320  -9.040  0.00  0.00    +0.000 A 
ENDBRANCH   1  10
BRANCH   5  18
ATOM     16  O   UNL     1     -18.481  46.969 -13.641  0.00  0.00    +0.000 OA
ATOM     17  N   UNL     1     -19.178  45.336 -15.054  0.00  0.00    +0.000 N 
ATOM     18  C   UNL     1     -18.417  45.776 -13.978  0.00  0.00    +0.000 C 
ATOM     19  H   UNL     1     -19.208  44.391 -15.415  0.00  0.00    +0.000 HD
ATOM     20  H   UNL     1     -19.767  45.999 -15.550  0.00  0.00    +0.000 HD
ENDBRANCH   5  18
TORSDOF 2
ENDMDL
MODEL 4
REMARK VINA RESULT:    -5.957      2.315      3.040
REMARK INTER + INTRA:          -6.947
REMARK INTER:                  -6.663
REMARK INTRA:                  -0.284
REMARK UNBOUND:                -0.293
REMARK  Name = 20517072
REMARK  2 active torsions:
REMARK  status: ('A' for Active; 'I' for Inactive)
REMARK    1  A    between atoms: N_2  and  C_5
REMARK    2  A    between atoms: C_8  and  C_15
REMARK                            x       y       z     vdW  Elec       q    Type
REMARK                         _______ _______ _______ _____ _____    ______ ____
ROOT
ATOM      1  N   UNL     1     -17.350  42.657 -11.903  0.00  0.00    +0.000 N 
ATOM      2  N   UNL     1     -14.969  43.055 -12.043  0.00  0.00    +0.000 N 
ATOM      3  C   UNL     1     -16.055  42.194 -11.774  0.00  0.00    +0.000 A 
ATOM      4  C   UNL     1     -18.398  41.799 -11.632  0.00  0.00    +0.000 A 
ATOM      5  C   UNL     1     -18.167  40.486 -11.233  0.00  0.00    +0.000 A 
ATOM      6  C   UNL     1     -15.796  40.885 -11.377  0.00  0.00    +0.000 A 
ATOM      7  C   UNL     1     -16.858  40.031 -11.106  0.00  0.00    +0.000 A 
ATOM      8  H   UNL     1     -14.061  42.805 -11.669  0.00  0.00    +0.000 HD
ATOM      9  H   UNL     1     -15.116  44.024 -12.286  0.00  0.00    +0.000 HD
ENDROOT
BRANCH   1  10
ATOM     10  C   UNL     1     -17.629  43.991 -12.303  0.00  0.00    +0.000 A 
ATOM     11  C   UNL     1     -17.901  44.277 -13.641  0.00  0.00    +0.000 A 
ATOM     12  C   UNL     1     -17.632  45.017 -11.357  0.00  0.00    +0.000 A 
ATOM     13  C   UNL     1     -18.174  45.587 -14.033  0.00  0.00    +0.000 A 
ATOM     14  C   UNL     1     -17.905  46.328 -11.749  0.00  0.00    +0.000 A 
ATOM     15  C   UNL     1     -18.177  46.612 -13.087  0.00  0.00    +0.000 A 
ENDBRANCH   1  10
BRANCH   5  18
ATOM     16  O   UNL     1     -19.511  38.558 -11.585  0.00  0.00    +0.000 OA
ATOM     17  N   UNL     1     -20.147  39.972  -9.927  0.00  0.00    +0.000 N 
ATOM     18  C   UNL     1     -19.284  39.601 -10.952  0.00  0.00    +0.000 C 
ATOM     19  H   UNL     1     -20.063  40.797  -9.348  0.00  0.00    +0.000 HD
ATOM     20  H   UNL     1     -20.942  39.380  -9.709  0.00  0.00    +0.000 HD
ENDBRANCH   5  18
TORSDOF 2
ENDMDL
MODEL 5
REMARK VINA RESULT:    -5.820      2.515      5.619
REMARK INTER + INTRA:          -6.794
REMARK INTER:                  -6.643
REMARK INTRA:                  -0.151
REMARK UNBOUND:                -0.293
REMARK  Name = 20517072
REMARK  2 active torsions:
REMARK  status: ('A' for Active; 'I' for Inactive)
REMARK    1  A    between atoms: N_2  and  C_5
REMARK    2  A    between atoms: C_8  and  C_15
REMARK                            x       y       z     vdW  Elec       q    Type
REMARK                         _______ _______ _______ _____ _____    ______ ____
ROOT
ATOM      1  N   UNL     1     -17.023  42.622 -11.491  0.00  0.00    +0.000 N 
ATOM      2  N   UNL     1     -18.881  43.316 -12.876  0.00  0.00    +0.000 N 
ATOM      3  C   UNL     1     -17.507  43.362 -12.553  0.00  0.00    +0.000 A 
ATOM      4  C   UNL     1     -15.676  42.684 -11.191  0.00  0.00    +0.000 A 
ATOM      5  C   UNL     1     -14.809  43.475 -11.938  0.00  0.00    +0.000 A 
ATOM      6  C   UNL     1     -16.661  44.161 -13.317  0.00  0.00    +0.000 A 
ATOM      7  C   UNL     1     -15.308  44.215 -13.006  0.00  0.00    +0.000 A 
ATOM      8  H   UNL     1     -19.260  44.064 -13.443  0.00  0.00    +0.000 HD
ATOM      9  H   UNL     1     -19.533  42.787 -12.315  0.00  0.00    +0.000 HD
ENDROOT
BRANCH   1  10
ATOM     10  C   UNL     1     -17.875  41.806 -10.700  0.00  0.00    +0.000 A 
ATOM     11  C   UNL     1     -18.166  42.169  -9.385  0.00  0.00    +0.000 A 
ATOM     12  C   UNL     1     -18.422  40.641 -11.239  0.00  0.00    +0.000 A 
ATOM     13  C   UNL     1     -19.002  41.367  -8.608  0.00  0.00    +0.000 A 
ATOM     14  C   UNL     1     -19.259  39.839 -10.462  0.00  0.00    +0.000 A 
ATOM     15  C   UNL     1     -19.549  40.202  -9.147  0.00  0.00    +0.000 A 
ENDBRANCH   1  10
BRANCH   5  18
ATOM     16  O   UNL     1     -12.947  44.112 -10.607  0.00  0.00    +0.000 OA
ATOM     17  N   UNL     1     -12.514  42.897 -12.474  0.00  0.00    +0.000 N 
ATOM     18  C   UNL     1     -13.396  43.526 -11.604  0.00  0.00    +0.000 C 
ATOM     19  H   UNL     1     -12.764  42.394 -13.315  0.00  0.00    +0.000 HD
ATOM     20  H   UNL     1     -11.519  42.921 -12.274  0.00  0.00    +0.000 HD
ENDBRANCH   5  18
TORSDOF 2
ENDMDL
