MODEL 1
REMARK VINA RESULT:    -7.419      0.000      0.000
REMARK INTER + INTRA:          -9.147
REMARK INTER:                  -8.720
REMARK INTRA:                  -0.427
REMARK UNBOUND:                -0.427
REMARK  Name = 20517052
REMARK  3 active torsions:
REMARK  status: ('A' for Active; 'I' for Inactive)
REMARK    1  A    between atoms: N_2  and  C_5
REMARK    2  A    between atoms: C_5  and  C_6
REMARK    3  A    between atoms: C_9  and  C_16
REMARK                            x       y       z     vdW  Elec       q    Type
REMARK                         _______ _______ _______ _____ _____    ______ ____
ROOT
ATOM      1  N   UNL     1     -18.234  40.970 -11.482  0.00  0.00    +0.000 N 
ATOM      2  N   UNL     1     -15.991  40.641 -10.663  0.00  0.00    +0.000 N 
ATOM      3  C   UNL     1     -16.890  41.286 -11.536  0.00  0.00    +0.000 A 
ATOM      4  C   UNL     1     -19.107  41.606 -12.342  0.00  0.00    +0.000 A 
ATOM      5  C   UNL     1     -18.654  42.554 -13.254  0.00  0.00    +0.000 A 
ATOM      6  C   UNL     1     -16.412  42.230 -12.438  0.00  0.00    +0.000 A 
ATOM      7  C   UNL     1     -17.299  42.866 -13.300  0.00  0.00    +0.000 A 
ATOM      8  H   UNL     1     -15.014  40.606 -10.928  0.00  0.00    +0.000 HD
ATOM      9  H   UNL     1     -16.299  40.010  -9.942  0.00  0.00    +0.000 HD
ENDROOT
BRANCH   5  12
ATOM     10  O   UNL     1     -20.533  42.591 -14.673  0.00  0.00    +0.000 OA
ATOM     11  N   UNL     1     -19.412  44.571 -14.391  0.00  0.00    +0.000 N 
ATOM     12  C   UNL     1     -19.591  43.211 -14.150  0.00  0.00    +0.000 C 
ATOM     13  H   UNL     1     -18.676  45.148 -14.002  0.00  0.00    +0.000 HD
ATOM     14  H   UNL     1     -20.056  45.057 -15.007  0.00  0.00    +0.000 HD
ENDBRANCH   5  12
BRANCH   1  15
ATOM     15  C   UNL     1     -18.746  39.982 -10.540  0.00  0.00    +0.000 C 
BRANCH  15  16
ATOM     16  C   UNL     1     -19.417  40.643  -9.368  0.00  0.00    +0.000 A 
ATOM     17  C   UNL     1     -20.719  40.283  -9.016  0.00  0.00    +0.000 A 
ATOM     18  C   UNL     1     -18.740  41.615  -8.633  0.00  0.00    +0.000 A 
ATOM     19  C   UNL     1     -21.342  40.896  -7.929  0.00  0.00    +0.000 A 
ATOM     20  C   UNL     1     -19.363  42.228  -7.546  0.00  0.00    +0.000 A 
ATOM     21  C   UNL     1     -20.664  41.869  -7.194  0.00  0.00    +0.000 A 
ENDBRANCH  15  16
ENDBRANCH   1  15
TORSDOF 3
ENDMDL
MODEL 2
REMARK VINA RESULT:    -7.407      1.788      2.456
REMARK INTER + INTRA:          -9.133
REMARK INTER:                  -8.666
REMARK INTRA:                  -0.468
REMARK UNBOUND:                -0.427
REMARK  Name = 20517052
REMARK  3 active torsions:
REMARK  status: ('A' for Active; 'I' for Inactive)
REMARK    1  A    between atoms: N_2  and  C_5
REMARK    2  A    between atoms: C_5  and  C_6
REMARK    3  A    between atoms: C_9  and  C_16
REMARK                            x       y       z     vdW  Elec       q    Type
REMARK                         _______ _______ _______ _____ _____    ______ ____
ROOT
ATOM      1  N   UNL     1     -18.469  41.031 -10.708  0.00  0.00    +0.000 N 
ATOM      2  N   UNL     1     -19.237  38.935 -11.620  0.00  0.00    +0.000 N 
ATOM      3  C   UNL     1     -18.885  40.289 -11.797  0.00  0.00    +0.000 A 
ATOM      4  C   UNL     1     -18.126  42.356 -10.891  0.00  0.00    +0.000 A 
ATOM      5  C   UNL     1     -18.193  42.948 -12.148  0.00  0.00    +0.000 A 
ATOM      6  C   UNL     1     -18.960  40.856 -13.064  0.00  0.00    +0.000 A 
ATOM      7  C   UNL     1     -18.612  42.192 -13.238  0.00  0.00    +0.000 A 
ATOM      8  H   UNL     1     -19.850  38.511 -12.305  0.00  0.00    +0.000 HD
ATOM      9  H   UNL     1     -19.125  38.460 -10.740  0.00  0.00    +0.000 HD
ENDROOT
BRANCH   5  12
ATOM     10  O   UNL     1     -16.688  44.755 -12.041  0.00  0.00    +0.000 OA
ATOM     11  N   UNL     1     -18.795  45.210 -12.822  0.00  0.00    +0.000 N 
ATOM     12  C   UNL     1     -17.828  44.344 -12.318  0.00  0.00    +0.000 C 
ATOM     13  H   UNL     1     -19.741  44.955 -13.077  0.00  0.00    +0.000 HD
ATOM     14  H   UNL     1     -18.564  46.189 -12.958  0.00  0.00    +0.000 HD
ENDBRANCH   5  12
BRANCH   1  15
ATOM     15  C   UNL     1     -18.386  40.445  -9.375  0.00  0.00    +0.000 C 
BRANCH  15  16
ATOM     16  C   UNL     1     -19.534  40.891  -8.512  0.00  0.00    +0.000 A 
ATOM     17  C   UNL     1     -19.328  41.850  -7.519  0.00  0.00    +0.000 A 
ATOM     18  C   UNL     1     -20.804  40.347  -8.703  0.00  0.00    +0.000 A 
ATOM     19  C   UNL     1     -20.392  42.264  -6.719  0.00  0.00    +0.000 A 
ATOM     20  C   UNL     1     -21.868  40.762  -7.902  0.00  0.00    +0.000 A 
ATOM     21  C   UNL     1     -21.663  41.720  -6.910  0.00  0.00    +0.000 A 
ENDBRANCH  15  16
ENDBRANCH   1  15
TORSDOF 3
ENDMDL
MODEL 3
REMARK VINA RESULT:    -6.875      2.242      2.902
REMARK INTER + INTRA:          -8.508
REMARK INTER:                  -8.270
REMARK INTRA:                  -0.238
REMARK UNBOUND:                -0.427
REMARK  Name = 20517052
REMARK  3 active torsions:
REMARK  status: ('A' for Active; 'I' for Inactive)
REMARK    1  A    between atoms: N_2  and  C_5
REMARK    2  A    between atoms: C_5  and  C_6
REMARK    3  A    between atoms: C_9  and  C_16
REMARK                            x       y       z     vdW  Elec       q    Type
REMARK                         _______ _______ _______ _____ _____    ______ ____
ROOT
ATOM      1  N   UNL     1     -17.823  41.121 -11.470  0.00  0.00    +0.000 N 
ATOM      2  N   UNL     1     -19.824  40.661 -12.734  0.00  0.00    +0.000 N 
ATOM      3  C   UNL     1     -18.641  41.405 -12.548  0.00  0.00    +0.000 A 
ATOM      4  C   UNL     1     -16.667  41.856 -11.295  0.00  0.00    +0.000 A 
ATOM      5  C   UNL     1     -16.318  42.868 -12.182  0.00  0.00    +0.000 A 
ATOM      6  C   UNL     1     -18.314  42.411 -13.450  0.00  0.00    +0.000 A 
ATOM      7  C   UNL     1     -17.147  43.145 -13.264  0.00  0.00    +0.000 A 
ATOM      8  H   UNL     1     -20.565  41.079 -13.284  0.00  0.00    +0.000 HD
ATOM      9  H   UNL     1     -20.062  39.873 -12.155  0.00  0.00    +0.000 HD
ENDROOT
BRANCH   5  12
ATOM     10  O   UNL     1     -14.075  43.101 -11.503  0.00  0.00    +0.000 OA
ATOM     11  N   UNL     1     -15.098  44.970 -12.352  0.00  0.00    +0.000 N 
ATOM     12  C   UNL     1     -15.096  43.628 -11.979  0.00  0.00    +0.000 C 
ATOM     13  H   UNL     1     -15.882  45.471 -12.749  0.00  0.00    +0.000 HD
ATOM     14  H   UNL     1     -14.255  45.522 -12.228  0.00  0.00    +0.000 HD
ENDBRANCH   5  12
BRANCH   1  15
ATOM     15  C   UNL     1     -18.157  40.068 -10.519  0.00  0.00    +0.000 C 
BRANCH  15  16
ATOM     16  C   UNL     1     -19.059  40.582  -9.431  0.00  0.00    +0.000 A 
ATOM     17  C   UNL     1     -20.335  40.042  -9.270  0.00  0.00    +0.000 A 
ATOM     18  C   UNL     1     -18.620  41.598  -8.582  0.00  0.00    +0.000 A 
ATOM     19  C   UNL     1     -21.172  40.518  -8.261  0.00  0.00    +0.000 A 
ATOM     20  C   UNL     1     -19.457  42.074  -7.573  0.00  0.00    +0.000 A 
ATOM     21  C   UNL     1     -20.733  41.535  -7.412  0.00  0.00    +0.000 A 
ENDBRANCH  15  16
ENDBRANCH   1  15
TORSDOF 3
ENDMDL
MODEL 4
REMARK VINA RESULT:    -6.319      1.983      2.110
REMARK INTER + INTRA:          -7.854
REMARK INTER:                  -7.646
REMARK INTRA:                  -0.208
REMARK UNBOUND:                -0.427
REMARK  Name = 20517052
REMARK  3 active torsions:
REMARK  status: ('A' for Active; 'I' for Inactive)
REMARK    1  A    between atoms: N_2  and  C_5
REMARK    2  A    between atoms: C_5  and  C_6
REMARK    3  A    between atoms: C_9  and  C_16
REMARK                            x       y       z     vdW  Elec       q    Type
REMARK                         _______ _______ _______ _____ _____    ______ ____
ROOT
ATOM      1  N   UNL     1     -17.357  42.200 -11.518  0.00  0.00    +0.000 N 
ATOM      2  N   UNL     1     -15.256  41.063 -11.191  0.00  0.00    +0.000 N 
ATOM      3  C   UNL     1     -15.976  42.241 -11.476  0.00  0.00    +0.000 A 
ATOM      4  C   UNL     1     -18.053  43.358 -11.799  0.00  0.00    +0.000 A 
ATOM      5  C   UNL     1     -17.388  44.556 -12.039  0.00  0.00    +0.000 A 
ATOM      6  C   UNL     1     -15.287  43.426 -11.711  0.00  0.00    +0.000 A 
ATOM      7  C   UNL     1     -15.998  44.587 -11.994  0.00  0.00    +0.000 A 
ATOM      8  H   UNL     1     -14.292  41.011 -11.496  0.00  0.00    +0.000 HD
ATOM      9  H   UNL     1     -15.710  40.202 -10.937  0.00  0.00    +0.000 HD
ENDROOT
BRANCH   5  12
ATOM     10  O   UNL     1     -18.743  45.906 -13.412  0.00  0.00    +0.000 OA
ATOM     11  N   UNL     1     -18.186  46.755 -11.356  0.00  0.00    +0.000 N 
ATOM     12  C   UNL     1     -18.142  45.764 -12.333  0.00  0.00    +0.000 C 
ATOM     13  H   UNL     1     -17.729  46.715 -10.453  0.00  0.00    +0.000 HD
ATOM     14  H   UNL     1     -18.711  47.605 -11.533  0.00  0.00    +0.000 HD
ENDBRANCH   5  12
BRANCH   1  15
ATOM     15  C   UNL     1     -18.088  40.963 -11.272  0.00  0.00    +0.000 C 
BRANCH  15  16
ATOM     16  C   UNL     1     -18.876  41.041  -9.994  0.00  0.00    +0.000 A 
ATOM     17  C   UNL     1     -20.016  40.253  -9.828  0.00  0.00    +0.000 A 
ATOM     18  C   UNL     1     -18.468  41.899  -8.974  0.00  0.00    +0.000 A 
ATOM     19  C   UNL     1     -20.747  40.325  -8.642  0.00  0.00    +0.000 A 
ATOM     20  C   UNL     1     -19.199  41.971  -7.788  0.00  0.00    +0.000 A 
ATOM     21  C   UNL     1     -20.338  41.184  -7.621  0.00  0.00    +0.000 A 
ENDBRANCH  15  16
ENDBRANCH   1  15
TORSDOF 3
ENDMDL
MODEL 5
REMARK VINA RESULT:    -5.681      3.042      5.564
REMARK INTER + INTRA:          -7.104
REMARK INTER:                  -7.054
REMARK INTRA:                  -0.051
REMARK UNBOUND:                -0.427
REMARK  Name = 20517052
REMARK  3 active torsions:
REMARK  status: ('A' for Active; 'I' for Inactive)
REMARK    1  A    between atoms: N_2  and  C_5
REMARK    2  A    between atoms: C_5  and  C_6
REMARK    3  A    between atoms: C_9  and  C_16
REMARK                            x       y       z     vdW  Elec       q    Type
REMARK                         _______ _______ _______ _____ _____    ______ ____
ROOT
ATOM      1  N   UNL     1     -17.402  42.926 -12.658  0.00  0.00    +0.000 N 
ATOM      2  N   UNL     1     -18.369  43.690 -14.730  0.00  0.00    +0.000 N 
ATOM      3  C   UNL     1     -18.435  42.884 -13.576  0.00  0.00    +0.000 A 
ATOM      4  C   UNL     1     -17.476  42.133 -11.531  0.00  0.00    +0.000 A 
ATOM      5  C   UNL     1     -18.567  41.299 -11.308  0.00  0.00    +0.000 A 
ATOM      6  C   UNL     1     -19.538  42.061 -13.377  0.00  0.00    +0.000 A 
ATOM      7  C   UNL     1     -19.602  41.265 -12.237  0.00  0.00    +0.000 A 
ATOM      8  H   UNL     1     -18.918  43.412 -15.535  0.00  0.00    +0.000 HD
ATOM      9  H   UNL     1     -17.632  44.359 -14.880  0.00  0.00    +0.000 HD
ENDROOT
BRANCH   5  12
ATOM     10  O   UNL     1     -19.414  39.518 -10.023  0.00  0.00    +0.000 OA
ATOM     11  N   UNL     1     -17.745  40.772  -9.077  0.00  0.00    +0.000 N 
ATOM     12  C   UNL     1     -18.623  40.473 -10.115  0.00  0.00    +0.000 C 
ATOM     13  H   UNL     1     -17.069  41.526  -9.074  0.00  0.00    +0.000 HD
ATOM     14  H   UNL     1     -17.757  40.206  -8.234  0.00  0.00    +0.000 HD
ENDBRANCH   5  12
BRANCH   1  15
ATOM     15  C   UNL     1     -16.243  43.787 -12.857  0.00  0.00    +0.000 C 
BRANCH  15  16
ATOM     16  C   UNL     1     -16.466  45.149 -12.259  0.00  0.00    +0.000 A 
ATOM     17  C   UNL     1     -15.394  46.030 -12.113  0.00  0.00    +0.000 A 
ATOM     18  C   UNL     1     -17.743  45.530 -11.850  0.00  0.00    +0.000 A 
ATOM     19  C   UNL     1     -15.601  47.293 -11.558  0.00  0.00    +0.000 A 
ATOM     20  C   UNL     1     -17.950  46.793 -11.295  0.00  0.00    +0.000 A 
ATOM     21  C   UNL     1     -16.879  47.675 -11.149  0.00  0.00    +0.000 A 
ENDBRANCH  15  16
ENDBRANCH   1  15
TORSDOF 3
ENDMDL
