MODEL 1
REMARK VINA RESULT:    -5.411      0.000      0.000
REMARK INTER + INTRA:          -6.166
REMARK INTER:                  -5.885
REMARK INTRA:                  -0.281
REMARK UNBOUND:                -0.281
REMARK  Name = 20585326
REMARK  3 active torsions:
REMARK  status: ('A' for Active; 'I' for Inactive)
REMARK    1  A    between atoms: N_2  and  C_11
REMARK    2  A    between atoms: N_4  and  C_6
REMARK    3  A    between atoms: C_5  and  C_8
REMARK                            x       y       z     vdW  Elec       q    Type
REMARK                         _______ _______ _______ _____ _____    ______ ____
ROOT
ATOM      1  N   UNL     1     -21.128  40.439  -8.695  0.00  0.00    +0.000 NA
ATOM      2  C   UNL     1     -18.886  41.217  -9.155  0.00  0.00    +0.000 A 
ATOM      3  C   UNL     1     -20.001  40.446  -9.441  0.00  0.00    +0.000 A 
ATOM      4  C   UNL     1     -18.932  42.035  -8.031  0.00  0.00    +0.000 A 
ATOM      5  C   UNL     1     -20.074  42.056  -7.239  0.00  0.00    +0.000 A 
ATOM      6  C   UNL     1     -21.136  41.247  -7.611  0.00  0.00    +0.000 A 
ENDROOT
BRANCH   2   9
ATOM      7  O   UNL     1     -17.143  40.127 -10.284  0.00  0.00    +0.000 OA
ATOM      8  N   UNL     1     -17.202  42.442 -10.416  0.00  0.00    +0.000 N 
ATOM      9  C   UNL     1     -17.685  41.203  -9.978  0.00  0.00    +0.000 C 
ATOM     10  C   UNL     1     -16.038  42.590 -11.258  0.00  0.00    +0.000 C 
ATOM     11  H   UNL     1     -17.682  43.288 -10.124  0.00  0.00    +0.000 HD
ENDBRANCH   2   9
BRANCH   3  12
ATOM     12  N   UNL     1     -19.962  39.609 -10.585  0.00  0.00    +0.000 N 
ATOM     13  H   UNL     1     -19.262  38.879 -10.627  0.00  0.00    +0.000 HD
ATOM     14  H   UNL     1     -20.261  40.024 -11.459  0.00  0.00    +0.000 HD
ENDBRANCH   3  12
TORSDOF 2
ENDMDL
MODEL 2
REMARK VINA RESULT:    -5.141      2.562      2.991
REMARK INTER + INTRA:          -5.873
REMARK INTER:                  -5.636
REMARK INTRA:                  -0.236
REMARK UNBOUND:                -0.281
REMARK  Name = 20585326
REMARK  3 active torsions:
REMARK  status: ('A' for Active; 'I' for Inactive)
REMARK    1  A    between atoms: N_2  and  C_11
REMARK    2  A    between atoms: N_4  and  C_6
REMARK    3  A    between atoms: C_5  and  C_8
REMARK                            x       y       z     vdW  Elec       q    Type
REMARK                         _______ _______ _______ _____ _____    ______ ____
ROOT
ATOM      1  N   UNL     1     -19.433  39.687 -10.068  0.00  0.00    +0.000 NA
ATOM      2  C   UNL     1     -18.604  41.408 -11.549  0.00  0.00    +0.000 A 
ATOM      3  C   UNL     1     -19.226  40.195 -11.303  0.00  0.00    +0.000 A 
ATOM      4  C   UNL     1     -18.166  42.148 -10.455  0.00  0.00    +0.000 A 
ATOM      5  C   UNL     1     -18.362  41.659  -9.168  0.00  0.00    +0.000 A 
ATOM      6  C   UNL     1     -18.994  40.434  -9.029  0.00  0.00    +0.000 A 
ENDROOT
BRANCH   2   9
ATOM      7  O   UNL     1     -17.416  41.563 -13.565  0.00  0.00    +0.000 OA
ATOM      8  N   UNL     1     -19.351  42.828 -13.379  0.00  0.00    +0.000 N 
ATOM      9  C   UNL     1     -18.395  41.930 -12.892  0.00  0.00    +0.000 C 
ATOM     10  C   UNL     1     -19.297  43.412 -14.699  0.00  0.00    +0.000 C 
ATOM     11  H   UNL     1     -20.124  43.099 -12.777  0.00  0.00    +0.000 HD
ENDBRANCH   2   9
BRANCH   3  12
ATOM     12  N   UNL     1     -19.674  39.435 -12.412  0.00  0.00    +0.000 N 
ATOM     13  H   UNL     1     -18.989  39.088 -13.072  0.00  0.00    +0.000 HD
ATOM     14  H   UNL     1     -20.598  39.653 -12.767  0.00  0.00    +0.000 HD
ENDBRANCH   3  12
TORSDOF 2
ENDMDL
MODEL 3
REMARK VINA RESULT:    -5.035      2.173      4.670
REMARK INTER + INTRA:          -5.758
REMARK INTER:                  -5.497
REMARK INTRA:                  -0.260
REMARK UNBOUND:                -0.281
REMARK  Name = 20585326
REMARK  3 active torsions:
REMARK  status: ('A' for Active; 'I' for Inactive)
REMARK    1  A    between atoms: N_2  and  C_11
REMARK    2  A    between atoms: N_4  and  C_6
REMARK    3  A    between atoms: C_5  and  C_8
REMARK                            x       y       z     vdW  Elec       q    Type
REMARK                         _______ _______ _______ _____ _____    ______ ____
ROOT
ATOM      1  N   UNL     1     -16.502  42.329 -12.254  0.00  0.00    +0.000 NA
ATOM      2  C   UNL     1     -18.531  41.149 -11.679  0.00  0.00    +0.000 A 
ATOM      3  C   UNL     1     -17.181  41.417 -11.524  0.00  0.00    +0.000 A 
ATOM      4  C   UNL     1     -19.229  41.864 -12.646  0.00  0.00    +0.000 A 
ATOM      5  C   UNL     1     -18.566  42.812 -13.417  0.00  0.00    +0.000 A 
ATOM      6  C   UNL     1     -17.214  43.005 -13.184  0.00  0.00    +0.000 A 
ENDROOT
BRANCH   2   9
ATOM      7  O   UNL     1     -19.151  38.950 -11.150  0.00  0.00    +0.000 OA
ATOM      8  N   UNL     1     -19.977  40.636  -9.789  0.00  0.00    +0.000 N 
ATOM      9  C   UNL     1     -19.236  40.160 -10.877  0.00  0.00    +0.000 C 
ATOM     10  C   UNL     1     -20.710  39.779  -8.887  0.00  0.00    +0.000 C 
ATOM     11  H   UNL     1     -20.018  41.638  -9.623  0.00  0.00    +0.000 HD
ENDBRANCH   2   9
BRANCH   3  12
ATOM     12  N   UNL     1     -16.462  40.692 -10.541  0.00  0.00    +0.000 N 
ATOM     13  H   UNL     1     -16.727  40.798  -9.570  0.00  0.00    +0.000 HD
ATOM     14  H   UNL     1     -15.488  40.500 -10.743  0.00  0.00    +0.000 HD
ENDBRANCH   3  12
TORSDOF 2
ENDMDL
MODEL 4
REMARK VINA RESULT:    -4.973      1.984      4.117
REMARK INTER + INTRA:          -5.690
REMARK INTER:                  -5.437
REMARK INTRA:                  -0.253
REMARK UNBOUND:                -0.281
REMARK  Name = 20585326
REMARK  3 active torsions:
REMARK  status: ('A' for Active; 'I' for Inactive)
REMARK    1  A    between atoms: N_2  and  C_11
REMARK    2  A    between atoms: N_4  and  C_6
REMARK    3  A    between atoms: C_5  and  C_8
REMARK                            x       y       z     vdW  Elec       q    Type
REMARK                         _______ _______ _______ _____ _____    ______ ____
ROOT
ATOM      1  N   UNL     1     -18.360  41.910 -13.375  0.00  0.00    +0.000 NA
ATOM      2  C   UNL     1     -18.423  41.523 -10.990  0.00  0.00    +0.000 A 
ATOM      3  C   UNL     1     -18.891  41.325 -12.278  0.00  0.00    +0.000 A 
ATOM      4  C   UNL     1     -17.338  42.376 -10.816  0.00  0.00    +0.000 A 
ATOM      5  C   UNL     1     -16.764  42.997 -11.919  0.00  0.00    +0.000 A 
ATOM      6  C   UNL     1     -17.307  42.733 -13.167  0.00  0.00    +0.000 A 
ENDROOT
BRANCH   2   9
ATOM      7  O   UNL     1     -19.323  39.674  -9.862  0.00  0.00    +0.000 OA
ATOM      8  N   UNL     1     -19.192  41.668  -8.685  0.00  0.00    +0.000 N 
ATOM      9  C   UNL     1     -19.016  40.878  -9.827  0.00  0.00    +0.000 C 
ATOM     10  C   UNL     1     -19.743  41.167  -7.447  0.00  0.00    +0.000 C 
ATOM     11  H   UNL     1     -18.932  42.649  -8.720  0.00  0.00    +0.000 HD
ENDBRANCH   2   9
BRANCH   3  12
ATOM     12  N   UNL     1     -19.997  40.458 -12.464  0.00  0.00    +0.000 N 
ATOM     13  H   UNL     1     -20.923  40.798 -12.239  0.00  0.00    +0.000 HD
ATOM     14  H   UNL     1     -19.819  39.468 -12.346  0.00  0.00    +0.000 HD
ENDBRANCH   3  12
TORSDOF 2
ENDMDL
MODEL 5
REMARK VINA RESULT:    -4.895      2.584      3.621
REMARK INTER + INTRA:          -5.605
REMARK INTER:                  -5.336
REMARK INTRA:                  -0.269
REMARK UNBOUND:                -0.281
REMARK  Name = 20585326
REMARK  3 active torsions:
REMARK  status: ('A' for Active; 'I' for Inactive)
REMARK    1  A    between atoms: N_2  and  C_11
REMARK    2  A    between atoms: N_4  and  C_6
REMARK    3  A    between atoms: C_5  and  C_8
REMARK                            x       y       z     vdW  Elec       q    Type
REMARK                         _______ _______ _______ _____ _____    ______ ____
ROOT
ATOM      1  N   UNL     1     -18.998  39.661 -10.486  0.00  0.00    +0.000 NA
ATOM      2  C   UNL     1     -17.457  41.263 -11.435  0.00  0.00    +0.000 A 
ATOM      3  C   UNL     1     -18.124  40.685 -10.367  0.00  0.00    +0.000 A 
ATOM      4  C   UNL     1     -17.703  40.758 -12.706  0.00  0.00    +0.000 A 
ATOM      5  C   UNL     1     -18.596  39.704 -12.870  0.00  0.00    +0.000 A 
ATOM      6  C   UNL     1     -19.212  39.195 -11.737  0.00  0.00    +0.000 A 
ENDROOT
BRANCH   2   9
ATOM      7  O   UNL     1     -16.935  43.526 -11.107  0.00  0.00    +0.000 OA
ATOM      8  N   UNL     1     -15.157  42.049 -11.296  0.00  0.00    +0.000 N 
ATOM      9  C   UNL     1     -16.520  42.366 -11.275  0.00  0.00    +0.000 C 
ATOM     10  C   UNL     1     -14.109  43.027 -11.127  0.00  0.00    +0.000 C 
ATOM     11  H   UNL     1     -14.880  41.084 -11.449  0.00  0.00    +0.000 HD
ENDBRANCH   2   9
BRANCH   3  12
ATOM     12  N   UNL     1     -17.879  41.195  -9.067  0.00  0.00    +0.000 N 
ATOM     13  H   UNL     1     -17.036  40.909  -8.585  0.00  0.00    +0.000 HD
ATOM     14  H   UNL     1     -18.694  41.405  -8.503  0.00  0.00    +0.000 HD
ENDBRANCH   3  12
TORSDOF 2
ENDMDL
