MODEL 1
REMARK VINA RESULT:    -6.732      0.000      0.000
REMARK INTER + INTRA:          -6.732
REMARK INTER:                  -6.732
REMARK INTRA:                   0.000
REMARK UNBOUND:                 0.000
REMARK  Name = 20678894
REMARK  2 active torsions:
REMARK  status: ('A' for Active; 'I' for Inactive)
REMARK    1  A    between atoms: N_2  and  C_9
REMARK    2  A    between atoms: C_6  and  C_11
REMARK                            x       y       z     vdW  Elec       q    Type
REMARK                         _______ _______ _______ _____ _____    ______ ____
ROOT
ATOM      1  O   UNL     1     -19.230  38.953 -11.310  0.00  0.00    +0.000 OA
ATOM      2  N   UNL     1     -17.613  40.623 -11.613  0.00  0.00    +0.000 N 
ATOM      3  N   UNL     1     -17.396  42.353  -9.995  0.00  0.00    +0.000 NA
ATOM      4  N   UNL     1     -18.769  42.418  -8.116  0.00  0.00    +0.000 NA
ATOM      5  C   UNL     1     -19.082  40.618  -9.680  0.00  0.00    +0.000 A 
ATOM      6  C   UNL     1     -17.033  41.783 -11.101  0.00  0.00    +0.000 A 
ATOM      7  C   UNL     1     -18.662  39.976 -10.939  0.00  0.00    +0.000 A 
ATOM      8  C   UNL     1     -18.438  41.774  -9.260  0.00  0.00    +0.000 A 
ATOM      9  C   UNL     1     -17.148  40.041 -12.870  0.00  0.00    +0.000 C 
ATOM     10  C   UNL     1     -20.110  40.093  -8.899  0.00  0.00    +0.000 A 
ATOM     11  C   UNL     1     -15.908  42.418 -11.883  0.00  0.00    +0.000 C 
ATOM     12  C   UNL     1     -20.465  40.740  -7.722  0.00  0.00    +0.000 A 
ATOM     13  C   UNL     1     -19.770  41.888  -7.378  0.00  0.00    +0.000 A 
ENDROOT
TORSDOF 0
ENDMDL
MODEL 2
REMARK VINA RESULT:    -6.181      2.641      5.313
REMARK INTER + INTRA:          -6.181
REMARK INTER:                  -6.181
REMARK INTRA:                   0.000
REMARK UNBOUND:                 0.000
REMARK  Name = 20678894
REMARK  2 active torsions:
REMARK  status: ('A' for Active; 'I' for Inactive)
REMARK    1  A    between atoms: N_2  and  C_9
REMARK    2  A    between atoms: C_6  and  C_11
REMARK                            x       y       z     vdW  Elec       q    Type
REMARK                         _______ _______ _______ _____ _____    ______ ____
ROOT
ATOM      1  O   UNL     1     -19.193  42.745  -6.770  0.00  0.00    +0.000 OA
ATOM      2  N   UNL     1     -21.291  41.725  -7.000  0.00  0.00    +0.000 N 
ATOM      3  N   UNL     1     -21.638  40.131  -8.732  0.00  0.00    +0.000 NA
ATOM      4  N   UNL     1     -19.926  39.572 -10.206  0.00  0.00    +0.000 NA
ATOM      5  C   UNL     1     -19.455  41.194  -8.495  0.00  0.00    +0.000 A 
ATOM      6  C   UNL     1     -22.066  40.814  -7.717  0.00  0.00    +0.000 A 
ATOM      7  C   UNL     1     -19.951  41.967  -7.342  0.00  0.00    +0.000 A 
ATOM      8  C   UNL     1     -20.312  40.313  -9.142  0.00  0.00    +0.000 A 
ATOM      9  C   UNL     1     -21.849  42.459  -5.866  0.00  0.00    +0.000 C 
ATOM     10  C   UNL     1     -18.146  41.325  -8.955  0.00  0.00    +0.000 A 
ATOM     11  C   UNL     1     -23.499  40.607  -7.285  0.00  0.00    +0.000 C 
ATOM     12  C   UNL     1     -17.731  40.574 -10.047  0.00  0.00    +0.000 A 
ATOM     13  C   UNL     1     -18.651  39.719 -10.632  0.00  0.00    +0.000 A 
ENDROOT
TORSDOF 0
ENDMDL
MODEL 3
REMARK VINA RESULT:    -5.874      1.123      3.930
REMARK INTER + INTRA:          -5.874
REMARK INTER:                  -5.874
REMARK INTRA:                   0.000
REMARK UNBOUND:                 0.000
REMARK  Name = 20678894
REMARK  2 active torsions:
REMARK  status: ('A' for Active; 'I' for Inactive)
REMARK    1  A    between atoms: N_2  and  C_9
REMARK    2  A    between atoms: C_6  and  C_11
REMARK                            x       y       z     vdW  Elec       q    Type
REMARK                         _______ _______ _______ _____ _____    ______ ____
ROOT
ATOM      1  O   UNL     1     -19.595  39.057 -11.148  0.00  0.00    +0.000 OA
ATOM      2  N   UNL     1     -19.673  40.423  -9.245  0.00  0.00    +0.000 N 
ATOM      3  N   UNL     1     -18.239  42.315  -9.099  0.00  0.00    +0.000 NA
ATOM      4  N   UNL     1     -16.755  42.830 -10.816  0.00  0.00    +0.000 NA
ATOM      5  C   UNL     1     -18.155  40.892 -11.079  0.00  0.00    +0.000 A 
ATOM      6  C   UNL     1     -19.163  41.551  -8.605  0.00  0.00    +0.000 A 
ATOM      7  C   UNL     1     -19.206  40.030 -10.509  0.00  0.00    +0.000 A 
ATOM      8  C   UNL     1     -17.715  41.993 -10.357  0.00  0.00    +0.000 A 
ATOM      9  C   UNL     1     -20.715  39.611  -8.619  0.00  0.00    +0.000 C 
ATOM     10  C   UNL     1     -17.591  40.631 -12.327  0.00  0.00    +0.000 A 
ATOM     11  C   UNL     1     -19.720  41.911  -7.247  0.00  0.00    +0.000 C 
ATOM     12  C   UNL     1     -16.604  41.477 -12.815  0.00  0.00    +0.000 A 
ATOM     13  C   UNL     1     -16.224  42.552 -12.029  0.00  0.00    +0.000 A 
ENDROOT
TORSDOF 0
ENDMDL
MODEL 4
REMARK VINA RESULT:    -5.736      3.251      4.418
REMARK INTER + INTRA:          -5.736
REMARK INTER:                  -5.736
REMARK INTRA:                   0.000
REMARK UNBOUND:                 0.000
REMARK  Name = 20678894
REMARK  2 active torsions:
REMARK  status: ('A' for Active; 'I' for Inactive)
REMARK    1  A    between atoms: N_2  and  C_9
REMARK    2  A    between atoms: C_6  and  C_11
REMARK                            x       y       z     vdW  Elec       q    Type
REMARK                         _______ _______ _______ _____ _____    ______ ____
ROOT
ATOM      1  O   UNL     1     -17.509  44.179 -11.265  0.00  0.00    +0.000 OA
ATOM      2  N   UNL     1     -18.541  44.010 -13.363  0.00  0.00    +0.000 N 
ATOM      3  N   UNL     1     -19.420  41.916 -14.072  0.00  0.00    +0.000 NA
ATOM      4  N   UNL     1     -19.265  40.030 -12.717  0.00  0.00    +0.000 NA
ATOM      5  C   UNL     1     -18.342  42.091 -11.890  0.00  0.00    +0.000 A 
ATOM      6  C   UNL     1     -19.189  43.176 -14.273  0.00  0.00    +0.000 A 
ATOM      7  C   UNL     1     -18.084  43.523 -12.128  0.00  0.00    +0.000 A 
ATOM      8  C   UNL     1     -18.994  41.348 -12.865  0.00  0.00    +0.000 A 
ATOM      9  C   UNL     1     -18.317  45.422 -13.664  0.00  0.00    +0.000 C 
ATOM     10  C   UNL     1     -17.948  41.462 -10.710  0.00  0.00    +0.000 A 
ATOM     11  C   UNL     1     -19.654  43.776 -15.579  0.00  0.00    +0.000 C 
ATOM     12  C   UNL     1     -18.216  40.110 -10.540  0.00  0.00    +0.000 A 
ATOM     13  C   UNL     1     -18.871  39.445 -11.563  0.00  0.00    +0.000 A 
ENDROOT
TORSDOF 0
ENDMDL
MODEL 5
REMARK VINA RESULT:    -5.474      2.722      3.498
REMARK INTER + INTRA:          -5.474
REMARK INTER:                  -5.474
REMARK INTRA:                   0.000
REMARK UNBOUND:                 0.000
REMARK  Name = 20678894
REMARK  2 active torsions:
REMARK  status: ('A' for Active; 'I' for Inactive)
REMARK    1  A    between atoms: N_2  and  C_9
REMARK    2  A    between atoms: C_6  and  C_11
REMARK                            x       y       z     vdW  Elec       q    Type
REMARK                         _______ _______ _______ _____ _____    ______ ____
ROOT
ATOM      1  O   UNL     1     -19.465  42.310 -14.485  0.00  0.00    +0.000 OA
ATOM      2  N   UNL     1     -18.381  43.947 -13.204  0.00  0.00    +0.000 N 
ATOM      3  N   UNL     1     -17.657  43.423 -11.000  0.00  0.00    +0.000 NA
ATOM      4  N   UNL     1     -18.012  41.310 -10.091  0.00  0.00    +0.000 NA
ATOM      5  C   UNL     1     -18.787  41.720 -12.331  0.00  0.00    +0.000 A 
ATOM      6  C   UNL     1     -17.775  44.255 -11.987  0.00  0.00    +0.000 A 
ATOM      7  C   UNL     1     -18.917  42.673 -13.448  0.00  0.00    +0.000 A 
ATOM      8  C   UNL     1     -18.167  42.130 -11.158  0.00  0.00    +0.000 A 
ATOM      9  C   UNL     1     -18.478  44.943 -14.269  0.00  0.00    +0.000 C 
ATOM     10  C   UNL     1     -19.271  40.416 -12.421  0.00  0.00    +0.000 A 
ATOM     11  C   UNL     1     -17.219  45.648 -11.803  0.00  0.00    +0.000 C 
ATOM     12  C   UNL     1     -19.122  39.560 -11.337  0.00  0.00    +0.000 A 
ATOM     13  C   UNL     1     -18.491  40.051 -10.206  0.00  0.00    +0.000 A 
ENDROOT
TORSDOF 0
ENDMDL
