MODEL 1
REMARK VINA RESULT:    -6.862      0.000      0.000
REMARK INTER + INTRA:          -7.654
REMARK INTER:                  -8.466
REMARK INTRA:                   0.812
REMARK UNBOUND:                 0.812
REMARK  Name = 20795367
REMARK  5 active torsions:
REMARK  status: ('A' for Active; 'I' for Inactive)
REMARK    1  A    between atoms: N_2  and  C_10
REMARK    2  A    between atoms: C_10  and  C_11
REMARK    3  A    between atoms: C_11  and  C_13
REMARK    4  A    between atoms: C_12  and  C_14
REMARK    5  A    between atoms: C_13  and  C_15
REMARK                            x       y       z     vdW  Elec       q    Type
REMARK                         _______ _______ _______ _____ _____    ______ ____
ROOT
ATOM      1  O   UNL     1     -17.523  44.830 -12.035  0.00  0.00    +0.000 OA
ATOM      2  N   UNL     1     -18.800  40.664  -9.617  0.00  0.00    +0.000 NA
ATOM      3  N   UNL     1     -18.121  42.612 -11.603  0.00  0.00    +0.000 N 
ATOM      4  C   UNL     1     -18.239  41.964  -9.224  0.00  0.00    +0.000 C 
ATOM      5  C   UNL     1     -19.618  40.802 -10.831  0.00  0.00    +0.000 C 
ATOM      6  C   UNL     1     -17.378  42.540 -10.347  0.00  0.00    +0.000 C 
ATOM      7  C   UNL     1     -18.793  41.367 -11.990  0.00  0.00    +0.000 C 
ATOM      8  C   UNL     1     -18.086  43.787 -12.360  0.00  0.00    +0.000 C 
ENDROOT
BRANCH   8  11
ATOM      9  N   UNL     1     -20.306  42.725 -15.191  0.00  0.00    +0.000 NA
ATOM     10  N   UNL     1     -20.741  43.730 -17.306  0.00  0.00    +0.000 N 
ATOM     11  C   UNL     1     -18.768  43.792 -13.661  0.00  0.00    +0.000 A 
ATOM     12  C   UNL     1     -18.557  44.816 -14.577  0.00  0.00    +0.000 A 
ATOM     13  C   UNL     1     -19.646  42.779 -14.013  0.00  0.00    +0.000 A 
ATOM     14  C   UNL     1     -19.217  44.796 -15.800  0.00  0.00    +0.000 A 
ATOM     15  C   UNL     1     -20.074  43.737 -16.056  0.00  0.00    +0.000 A 
ATOM     16  H   UNL     1     -20.928  44.618 -17.758  0.00  0.00    +0.000 HD
ATOM     17  H   UNL     1     -21.370  42.958 -17.487  0.00  0.00    +0.000 HD
ENDBRANCH   8  11
BRANCH   2  18
ATOM     18  C   UNL     1     -19.592  40.096  -8.526  0.00  0.00    +0.000 C 
BRANCH  18  19
ATOM     19  C   UNL     1     -20.994  40.704  -8.515  0.00  0.00    +0.000 C 
BRANCH  19  20
ATOM     20  C   UNL     1     -21.191  41.617  -7.305  0.00  0.00    +0.000 C 
ATOM     21  C   UNL     1     -22.663  41.780  -6.963  0.00  0.00    +0.000 C 
ENDBRANCH  19  20
ENDBRANCH  18  19
ENDBRANCH   2  18
TORSDOF 4
ENDMDL
MODEL 2
REMARK VINA RESULT:    -6.844      2.850      4.401
REMARK INTER + INTRA:          -7.632
REMARK INTER:                  -7.349
REMARK INTRA:                  -0.284
REMARK UNBOUND:                 0.812
REMARK  Name = 20795367
REMARK  5 active torsions:
REMARK  status: ('A' for Active; 'I' for Inactive)
REMARK    1  A    between atoms: N_2  and  C_10
REMARK    2  A    between atoms: C_10  and  C_11
REMARK    3  A    between atoms: C_11  and  C_13
REMARK    4  A    between atoms: C_12  and  C_14
REMARK    5  A    between atoms: C_13  and  C_15
REMARK                            x       y       z     vdW  Elec       q    Type
REMARK                         _______ _______ _______ _____ _____    ______ ____
ROOT
ATOM      1  O   UNL     1     -16.970  41.863 -13.535  0.00  0.00    +0.000 OA
ATOM      2  N   UNL     1     -19.631  41.275  -9.363  0.00  0.00    +0.000 NA
ATOM      3  N   UNL     1     -17.968  42.285 -11.464  0.00  0.00    +0.000 N 
ATOM      4  C   UNL     1     -19.540  40.566 -10.647  0.00  0.00    +0.000 C 
ATOM      5  C   UNL     1     -18.356  41.934  -9.047  0.00  0.00    +0.000 C 
ATOM      6  C   UNL     1     -19.184  41.536 -11.773  0.00  0.00    +0.000 C 
ATOM      7  C   UNL     1     -17.962  42.926 -10.144  0.00  0.00    +0.000 C 
ATOM      8  C   UNL     1     -16.964  42.400 -12.429  0.00  0.00    +0.000 C 
ENDROOT
BRANCH   8  11
ATOM      9  N   UNL     1     -13.605  43.436 -11.118  0.00  0.00    +0.000 NA
ATOM     10  N   UNL     1     -12.463  45.524 -11.204  0.00  0.00    +0.000 N 
ATOM     11  C   UNL     1     -15.798  43.238 -12.118  0.00  0.00    +0.000 A 
ATOM     12  C   UNL     1     -15.749  44.572 -12.504  0.00  0.00    +0.000 A 
ATOM     13  C   UNL     1     -14.709  42.721 -11.434  0.00  0.00    +0.000 A 
ATOM     14  C   UNL     1     -14.632  45.339 -12.198  0.00  0.00    +0.000 A 
ATOM     15  C   UNL     1     -13.595  44.729 -11.509  0.00  0.00    +0.000 A 
ATOM     16  H   UNL     1     -12.240  46.300 -11.816  0.00  0.00    +0.000 HD
ATOM     17  H   UNL     1     -11.706  45.073 -10.706  0.00  0.00    +0.000 HD
ENDBRANCH   8  11
BRANCH   2  18
ATOM     18  C   UNL     1     -20.011  40.352  -8.293  0.00  0.00    +0.000 C 
BRANCH  18  19
ATOM     19  C   UNL     1     -20.371  41.127  -7.027  0.00  0.00    +0.000 C 
BRANCH  19  20
ATOM     20  C   UNL     1     -21.607  42.000  -7.246  0.00  0.00    +0.000 C 
ATOM     21  C   UNL     1     -22.877  41.166  -7.302  0.00  0.00    +0.000 C 
ENDBRANCH  19  20
ENDBRANCH  18  19
ENDBRANCH   2  18
TORSDOF 4
ENDMDL
MODEL 3
REMARK VINA RESULT:    -6.753      1.525      2.134
REMARK INTER + INTRA:          -7.520
REMARK INTER:                  -7.620
REMARK INTRA:                   0.100
REMARK UNBOUND:                 0.812
REMARK  Name = 20795367
REMARK  5 active torsions:
REMARK  status: ('A' for Active; 'I' for Inactive)
REMARK    1  A    between atoms: N_2  and  C_10
REMARK    2  A    between atoms: C_10  and  C_11
REMARK    3  A    between atoms: C_11  and  C_13
REMARK    4  A    between atoms: C_12  and  C_14
REMARK    5  A    between atoms: C_13  and  C_15
REMARK                            x       y       z     vdW  Elec       q    Type
REMARK                         _______ _______ _______ _____ _____    ______ ____
ROOT
ATOM      1  O   UNL     1     -18.499  45.695 -13.422  0.00  0.00    +0.000 OA
ATOM      2  N   UNL     1     -17.732  41.337 -11.129  0.00  0.00    +0.000 NA
ATOM      3  N   UNL     1     -18.049  43.430 -13.058  0.00  0.00    +0.000 N 
ATOM      4  C   UNL     1     -17.781  42.743 -10.703  0.00  0.00    +0.000 C 
ATOM      5  C   UNL     1     -18.573  41.130 -12.317  0.00  0.00    +0.000 C 
ATOM      6  C   UNL     1     -17.302  43.663 -11.824  0.00  0.00    +0.000 C 
ATOM      7  C   UNL     1     -18.123  42.025 -13.474  0.00  0.00    +0.000 C 
ATOM      8  C   UNL     1     -18.561  44.517 -13.771  0.00  0.00    +0.000 C 
ENDROOT
BRANCH   8  11
ATOM      9  N   UNL     1     -19.442  44.753 -17.410  0.00  0.00    +0.000 NA
ATOM     10  N   UNL     1     -21.041  43.567 -18.717  0.00  0.00    +0.000 N 
ATOM     11  C   UNL     1     -19.225  44.253 -15.054  0.00  0.00    +0.000 A 
ATOM     12  C   UNL     1     -20.226  43.293 -15.159  0.00  0.00    +0.000 A 
ATOM     13  C   UNL     1     -18.872  44.949 -16.200  0.00  0.00    +0.000 A 
ATOM     14  C   UNL     1     -20.835  43.063 -16.387  0.00  0.00    +0.000 A 
ATOM     15  C   UNL     1     -20.411  43.813 -17.473  0.00  0.00    +0.000 A 
ATOM     16  H   UNL     1     -21.419  42.644 -18.892  0.00  0.00    +0.000 HD
ATOM     17  H   UNL     1     -20.725  44.113 -19.509  0.00  0.00    +0.000 HD
ENDBRANCH   8  11
BRANCH   2  18
ATOM     18  C   UNL     1     -18.154  40.455 -10.041  0.00  0.00    +0.000 C 
BRANCH  18  19
ATOM     19  C   UNL     1     -19.676  40.324 -10.024  0.00  0.00    +0.000 C 
BRANCH  19  20
ATOM     20  C   UNL     1     -20.201  40.166  -8.596  0.00  0.00    +0.000 C 
ATOM     21  C   UNL     1     -19.746  41.310  -7.705  0.00  0.00    +0.000 C 
ENDBRANCH  19  20
ENDBRANCH  18  19
ENDBRANCH   2  18
TORSDOF 4
ENDMDL
MODEL 4
REMARK VINA RESULT:    -6.321      2.443      6.722
REMARK INTER + INTRA:          -6.987
REMARK INTER:                  -6.723
REMARK INTRA:                  -0.264
REMARK UNBOUND:                 0.812
REMARK  Name = 20795367
REMARK  5 active torsions:
REMARK  status: ('A' for Active; 'I' for Inactive)
REMARK    1  A    between atoms: N_2  and  C_10
REMARK    2  A    between atoms: C_10  and  C_11
REMARK    3  A    between atoms: C_11  and  C_13
REMARK    4  A    between atoms: C_12  and  C_14
REMARK    5  A    between atoms: C_13  and  C_15
REMARK                            x       y       z     vdW  Elec       q    Type
REMARK                         _______ _______ _______ _____ _____    ______ ____
ROOT
ATOM      1  O   UNL     1     -15.382  42.169 -11.283  0.00  0.00    +0.000 OA
ATOM      2  N   UNL     1     -17.345  45.888 -13.958  0.00  0.00    +0.000 NA
ATOM      3  N   UNL     1     -16.795  43.899 -11.971  0.00  0.00    +0.000 N 
ATOM      4  C   UNL     1     -16.056  45.183 -13.946  0.00  0.00    +0.000 C 
ATOM      5  C   UNL     1     -18.417  45.007 -13.473  0.00  0.00    +0.000 C 
ATOM      6  C   UNL     1     -15.715  44.706 -12.535  0.00  0.00    +0.000 C 
ATOM      7  C   UNL     1     -18.125  44.512 -12.054  0.00  0.00    +0.000 C 
ATOM      8  C   UNL     1     -16.497  42.683 -11.352  0.00  0.00    +0.000 C 
ENDROOT
BRANCH   8  11
ATOM      9  N   UNL     1     -19.293  40.229 -10.869  0.00  0.00    +0.000 NA
ATOM     10  N   UNL     1     -20.698  39.800  -8.995  0.00  0.00    +0.000 N 
ATOM     11  C   UNL     1     -17.595  41.943 -10.715  0.00  0.00    +0.000 A 
ATOM     12  C   UNL     1     -17.980  42.216  -9.407  0.00  0.00    +0.000 A 
ATOM     13  C   UNL     1     -18.276  40.948 -11.397  0.00  0.00    +0.000 A 
ATOM     14  C   UNL     1     -19.021  41.498  -8.830  0.00  0.00    +0.000 A 
ATOM     15  C   UNL     1     -19.639  40.524  -9.596  0.00  0.00    +0.000 A 
ATOM     16  H   UNL     1     -20.693  39.686  -7.988  0.00  0.00    +0.000 HD
ATOM     17  H   UNL     1     -21.144  39.085  -9.556  0.00  0.00    +0.000 HD
ENDBRANCH   8  11
BRANCH   2  18
ATOM     18  C   UNL     1     -17.651  46.377 -15.301  0.00  0.00    +0.000 C 
BRANCH  18  19
ATOM     19  C   UNL     1     -18.927  45.723 -15.827  0.00  0.00    +0.000 C 
BRANCH  19  20
ATOM     20  C   UNL     1     -19.848  46.753 -16.481  0.00  0.00    +0.000 C 
ATOM     21  C   UNL     1     -20.613  46.154 -17.650  0.00  0.00    +0.000 C 
ENDBRANCH  19  20
ENDBRANCH  18  19
ENDBRANCH   2  18
TORSDOF 4
ENDMDL
MODEL 5
REMARK VINA RESULT:    -6.078      2.325      2.912
REMARK INTER + INTRA:          -6.687
REMARK INTER:                  -6.454
REMARK INTRA:                  -0.233
REMARK UNBOUND:                 0.812
REMARK  Name = 20795367
REMARK  5 active torsions:
REMARK  status: ('A' for Active; 'I' for Inactive)
REMARK    1  A    between atoms: N_2  and  C_10
REMARK    2  A    between atoms: C_10  and  C_11
REMARK    3  A    between atoms: C_11  and  C_13
REMARK    4  A    between atoms: C_12  and  C_14
REMARK    5  A    between atoms: C_13  and  C_15
REMARK                            x       y       z     vdW  Elec       q    Type
REMARK                         _______ _______ _______ _____ _____    ______ ____
ROOT
ATOM      1  O   UNL     1     -15.363  45.124 -12.113  0.00  0.00    +0.000 OA
ATOM      2  N   UNL     1     -18.329  41.136 -11.739  0.00  0.00    +0.000 NA
ATOM      3  N   UNL     1     -16.841  43.400 -12.668  0.00  0.00    +0.000 N 
ATOM      4  C   UNL     1     -17.290  41.743 -10.895  0.00  0.00    +0.000 C 
ATOM      5  C   UNL     1     -18.977  42.159 -12.572  0.00  0.00    +0.000 C 
ATOM      6  C   UNL     1     -16.234  42.435 -11.754  0.00  0.00    +0.000 C 
ATOM      7  C   UNL     1     -17.957  42.874 -13.462  0.00  0.00    +0.000 C 
ATOM      8  C   UNL     1     -16.298  44.683 -12.778  0.00  0.00    +0.000 C 
ENDROOT
BRANCH   8  11
ATOM      9  N   UNL     1     -18.656  47.106 -14.404  0.00  0.00    +0.000 NA
ATOM     10  N   UNL     1     -18.575  48.194 -16.522  0.00  0.00    +0.000 N 
ATOM     11  C   UNL     1     -16.876  45.596 -13.774  0.00  0.00    +0.000 A 
ATOM     12  C   UNL     1     -16.238  45.832 -14.986  0.00  0.00    +0.000 A 
ATOM     13  C   UNL     1     -18.072  46.253 -13.533  0.00  0.00    +0.000 A 
ATOM     14  C   UNL     1     -16.807  46.702 -15.908  0.00  0.00    +0.000 A 
ATOM     15  C   UNL     1     -18.007  47.309 -15.572  0.00  0.00    +0.000 A 
ATOM     16  H   UNL     1     -17.955  48.679 -17.159  0.00  0.00    +0.000 HD
ATOM     17  H   UNL     1     -19.448  48.639 -16.270  0.00  0.00    +0.000 HD
ENDBRANCH   8  11
BRANCH   2  18
ATOM     18  C   UNL     1     -19.318  40.441 -10.917  0.00  0.00    +0.000 C 
BRANCH  18  19
ATOM     19  C   UNL     1     -18.842  40.362  -9.467  0.00  0.00    +0.000 C 
BRANCH  19  20
ATOM     20  C   UNL     1     -20.023  40.367  -8.496  0.00  0.00    +0.000 C 
ATOM     21  C   UNL     1     -19.941  41.534  -7.525  0.00  0.00    +0.000 C 
ENDBRANCH  19  20
ENDBRANCH  18  19
ENDBRANCH   2  18
TORSDOF 4
ENDMDL
