MODEL 1
REMARK VINA RESULT:    -5.744      0.000      0.000
REMARK INTER + INTRA:          -6.800
REMARK INTER:                  -6.416
REMARK INTRA:                  -0.384
REMARK UNBOUND:                -0.384
REMARK  Name = 21029971
REMARK  3 active torsions:
REMARK  status: ('A' for Active; 'I' for Inactive)
REMARK    1  A    between atoms: N_2  and  C_10
REMARK    2  A    between atoms: N_3  and  C_12
REMARK    3  A    between atoms: C_11  and  C_14
REMARK                            x       y       z     vdW  Elec       q    Type
REMARK                         _______ _______ _______ _____ _____    ______ ____
ROOT
ATOM      1  N   UNL     1     -18.030  42.658  -9.576  0.00  0.00    +0.000 NA
ATOM      2  C   UNL     1     -17.872  42.234 -10.851  0.00  0.00    +0.000 A 
ATOM      3  C   UNL     1     -18.180  40.955 -11.286  0.00  0.00    +0.000 A 
ATOM      4  C   UNL     1     -18.684  40.055 -10.355  0.00  0.00    +0.000 A 
ATOM      5  C   UNL     1     -18.520  41.753  -8.700  0.00  0.00    +0.000 A 
ATOM      6  C   UNL     1     -18.859  40.453  -9.035  0.00  0.00    +0.000 A 
ENDROOT
BRANCH   2   7
ATOM      7  N   UNL     1     -17.366  43.147 -11.782  0.00  0.00    +0.000 N 
ATOM      8  N   UNL     1     -16.291  45.148 -13.506  0.00  0.00    +0.000 NA
ATOM      9  C   UNL     1     -18.242  44.187 -12.332  0.00  0.00    +0.000 C 
ATOM     10  C   UNL     1     -15.942  43.495 -11.703  0.00  0.00    +0.000 C 
ATOM     11  C   UNL     1     -17.683  44.716 -13.656  0.00  0.00    +0.000 C 
ATOM     12  C   UNL     1     -15.448  44.042 -13.045  0.00  0.00    +0.000 C 
ATOM     13  C   UNL     1     -15.780  45.712 -14.757  0.00  0.00    +0.000 C 
ENDBRANCH   2   7
BRANCH   3  16
ATOM     14  O   UNL     1     -18.866  40.661 -13.543  0.00  0.00    +0.000 OA
ATOM     15  N   UNL     1     -16.790  39.926 -12.990  0.00  0.00    +0.000 N 
ATOM     16  C   UNL     1     -17.999  40.529 -12.668  0.00  0.00    +0.000 C 
ATOM     17  H   UNL     1     -16.056  39.789 -12.304  0.00  0.00    +0.000 HD
ATOM     18  H   UNL     1     -16.605  39.601 -13.934  0.00  0.00    +0.000 HD
ENDBRANCH   3  16
TORSDOF 2
ENDMDL
MODEL 2
REMARK VINA RESULT:    -4.875      2.682      5.563
REMARK INTER + INTRA:          -5.829
REMARK INTER:                  -5.637
REMARK INTRA:                  -0.192
REMARK UNBOUND:                -0.384
REMARK  Name = 21029971
REMARK  3 active torsions:
REMARK  status: ('A' for Active; 'I' for Inactive)
REMARK    1  A    between atoms: N_2  and  C_10
REMARK    2  A    between atoms: N_3  and  C_12
REMARK    3  A    between atoms: C_11  and  C_14
REMARK                            x       y       z     vdW  Elec       q    Type
REMARK                         _______ _______ _______ _____ _____    ______ ____
ROOT
ATOM      1  N   UNL     1     -19.648  42.532 -15.605  0.00  0.00    +0.000 NA
ATOM      2  C   UNL     1     -19.097  43.203 -14.568  0.00  0.00    +0.000 A 
ATOM      3  C   UNL     1     -18.848  44.565 -14.570  0.00  0.00    +0.000 A 
ATOM      4  C   UNL     1     -19.189  45.287 -15.708  0.00  0.00    +0.000 A 
ATOM      5  C   UNL     1     -19.965  43.267 -16.694  0.00  0.00    +0.000 A 
ATOM      6  C   UNL     1     -19.758  44.633 -16.795  0.00  0.00    +0.000 A 
ENDROOT
BRANCH   2   7
ATOM      7  N   UNL     1     -18.758  42.469 -13.426  0.00  0.00    +0.000 N 
ATOM      8  N   UNL     1     -18.020  40.799 -11.235  0.00  0.00    +0.000 NA
ATOM      9  C   UNL     1     -19.766  41.624 -12.778  0.00  0.00    +0.000 C 
ATOM     10  C   UNL     1     -17.368  42.020 -13.282  0.00  0.00    +0.000 C 
ATOM     11  C   UNL     1     -19.378  41.343 -11.324  0.00  0.00    +0.000 C 
ATOM     12  C   UNL     1     -17.047  41.730 -11.813  0.00  0.00    +0.000 C 
ATOM     13  C   UNL     1     -17.676  40.473  -9.849  0.00  0.00    +0.000 C 
ENDBRANCH   2   7
BRANCH   3  16
ATOM     14  O   UNL     1     -18.904  45.666 -12.464  0.00  0.00    +0.000 OA
ATOM     15  N   UNL     1     -16.882  45.483 -13.480  0.00  0.00    +0.000 N 
ATOM     16  C   UNL     1     -18.252  45.259 -13.436  0.00  0.00    +0.000 C 
ATOM     17  H   UNL     1     -16.310  45.176 -14.260  0.00  0.00    +0.000 HD
ATOM     18  H   UNL     1     -16.408  45.967 -12.725  0.00  0.00    +0.000 HD
ENDBRANCH   3  16
TORSDOF 2
ENDMDL
MODEL 3
REMARK VINA RESULT:    -4.862      1.512      1.763
REMARK INTER + INTRA:          -5.814
REMARK INTER:                  -5.524
REMARK INTRA:                  -0.290
REMARK UNBOUND:                -0.384
REMARK  Name = 21029971
REMARK  3 active torsions:
REMARK  status: ('A' for Active; 'I' for Inactive)
REMARK    1  A    between atoms: N_2  and  C_10
REMARK    2  A    between atoms: N_3  and  C_12
REMARK    3  A    between atoms: C_11  and  C_14
REMARK                            x       y       z     vdW  Elec       q    Type
REMARK                         _______ _______ _______ _____ _____    ______ ____
ROOT
ATOM      1  N   UNL     1     -17.709  42.154  -9.955  0.00  0.00    +0.000 NA
ATOM      2  C   UNL     1     -17.984  42.533 -11.224  0.00  0.00    +0.000 A 
ATOM      3  C   UNL     1     -18.917  41.908 -12.035  0.00  0.00    +0.000 A 
ATOM      4  C   UNL     1     -19.615  40.827 -11.509  0.00  0.00    +0.000 A 
ATOM      5  C   UNL     1     -18.406  41.099  -9.480  0.00  0.00    +0.000 A 
ATOM      6  C   UNL     1     -19.360  40.408 -10.209  0.00  0.00    +0.000 A 
ENDROOT
BRANCH   2   7
ATOM      7  N   UNL     1     -17.278  43.623 -11.745  0.00  0.00    +0.000 N 
ATOM      8  N   UNL     1     -15.698  45.826 -12.629  0.00  0.00    +0.000 NA
ATOM      9  C   UNL     1     -17.596  44.980 -11.291  0.00  0.00    +0.000 C 
ATOM     10  C   UNL     1     -15.889  43.406 -12.170  0.00  0.00    +0.000 C 
ATOM     11  C   UNL     1     -17.116  46.015 -12.312  0.00  0.00    +0.000 C 
ATOM     12  C   UNL     1     -15.459  44.484 -13.168  0.00  0.00    +0.000 C 
ATOM     13  C   UNL     1     -15.227  46.856 -13.558  0.00  0.00    +0.000 C 
ENDBRANCH   2   7
BRANCH   3  16
ATOM     14  O   UNL     1     -18.751  41.759 -14.401  0.00  0.00    +0.000 OA
ATOM     15  N   UNL     1     -19.971  43.478 -13.558  0.00  0.00    +0.000 N 
ATOM     16  C   UNL     1     -19.190  42.340 -13.399  0.00  0.00    +0.000 C 
ATOM     17  H   UNL     1     -20.344  43.990 -12.766  0.00  0.00    +0.000 HD
ATOM     18  H   UNL     1     -20.192  43.834 -14.482  0.00  0.00    +0.000 HD
ENDBRANCH   3  16
TORSDOF 2
ENDMDL
MODEL 4
REMARK VINA RESULT:    -4.763      2.373      5.028
REMARK INTER + INTRA:          -5.704
REMARK INTER:                  -5.383
REMARK INTRA:                  -0.321
REMARK UNBOUND:                -0.384
REMARK  Name = 21029971
REMARK  3 active torsions:
REMARK  status: ('A' for Active; 'I' for Inactive)
REMARK    1  A    between atoms: N_2  and  C_10
REMARK    2  A    between atoms: N_3  and  C_12
REMARK    3  A    between atoms: C_11  and  C_14
REMARK                            x       y       z     vdW  Elec       q    Type
REMARK                         _______ _______ _______ _____ _____    ______ ____
ROOT
ATOM      1  N   UNL     1     -18.017  45.707 -11.860  0.00  0.00    +0.000 NA
ATOM      2  C   UNL     1     -17.120  44.695 -11.859  0.00  0.00    +0.000 A 
ATOM      3  C   UNL     1     -15.746  44.877 -11.872  0.00  0.00    +0.000 A 
ATOM      4  C   UNL     1     -15.263  46.180 -11.884  0.00  0.00    +0.000 A 
ATOM      5  C   UNL     1     -17.509  46.959 -11.873  0.00  0.00    +0.000 A 
ATOM      6  C   UNL     1     -16.154  47.246 -11.885  0.00  0.00    +0.000 A 
ENDROOT
BRANCH   2   7
ATOM      7  N   UNL     1     -17.615  43.386 -11.846  0.00  0.00    +0.000 N 
ATOM      8  N   UNL     1     -18.833  40.808 -11.813  0.00  0.00    +0.000 NA
ATOM      9  C   UNL     1     -17.908  42.732 -10.567  0.00  0.00    +0.000 C 
ATOM     10  C   UNL     1     -18.430  42.946 -12.985  0.00  0.00    +0.000 C 
ATOM     11  C   UNL     1     -17.927  41.210 -10.734  0.00  0.00    +0.000 C 
ATOM     12  C   UNL     1     -18.433  41.418 -13.084  0.00  0.00    +0.000 C 
ATOM     13  C   UNL     1     -18.897  39.350 -11.928  0.00  0.00    +0.000 C 
ENDBRANCH   2   7
BRANCH   3  16
ATOM     14  O   UNL     1     -14.411  43.203 -10.840  0.00  0.00    +0.000 OA
ATOM     15  N   UNL     1     -14.321  43.345 -13.104  0.00  0.00    +0.000 N 
ATOM     16  C   UNL     1     -14.805  43.765 -11.871  0.00  0.00    +0.000 C 
ATOM     17  H   UNL     1     -14.607  43.782 -13.973  0.00  0.00    +0.000 HD
ATOM     18  H   UNL     1     -13.657  42.580 -13.170  0.00  0.00    +0.000 HD
ENDBRANCH   3  16
TORSDOF 2
ENDMDL
MODEL 5
REMARK VINA RESULT:    -4.682      2.745      5.653
REMARK INTER + INTRA:          -5.613
REMARK INTER:                  -5.620
REMARK INTRA:                   0.007
REMARK UNBOUND:                -0.384
REMARK  Name = 21029971
REMARK  3 active torsions:
REMARK  status: ('A' for Active; 'I' for Inactive)
REMARK    1  A    between atoms: N_2  and  C_10
REMARK    2  A    between atoms: N_3  and  C_12
REMARK    3  A    between atoms: C_11  and  C_14
REMARK                            x       y       z     vdW  Elec       q    Type
REMARK                         _______ _______ _______ _____ _____    ______ ____
ROOT
ATOM      1  N   UNL     1     -17.807  45.548 -14.083  0.00  0.00    +0.000 NA
ATOM      2  C   UNL     1     -18.554  44.493 -14.480  0.00  0.00    +0.000 A 
ATOM      3  C   UNL     1     -19.418  44.518 -15.562  0.00  0.00    +0.000 A 
ATOM      4  C   UNL     1     -19.520  45.700 -16.286  0.00  0.00    +0.000 A 
ATOM      5  C   UNL     1     -17.934  46.680 -14.811  0.00  0.00    +0.000 A 
ATOM      6  C   UNL     1     -18.768  46.806 -15.909  0.00  0.00    +0.000 A 
ENDROOT
BRANCH   2   7
ATOM      7  N   UNL     1     -18.444  43.306 -13.747  0.00  0.00    +0.000 N 
ATOM      8  N   UNL     1     -18.228  41.014 -12.064  0.00  0.00    +0.000 NA
ATOM      9  C   UNL     1     -17.123  42.837 -13.315  0.00  0.00    +0.000 C 
ATOM     10  C   UNL     1     -19.566  42.924 -12.881  0.00  0.00    +0.000 C 
ATOM     11  C   UNL     1     -17.158  41.337 -13.012  0.00  0.00    +0.000 C 
ATOM     12  C   UNL     1     -19.533  41.421 -12.592  0.00  0.00    +0.000 C 
ATOM     13  C   UNL     1     -18.218  39.589 -11.728  0.00  0.00    +0.000 C 
ENDBRANCH   2   7
BRANCH   3  16
ATOM     14  O   UNL     1     -19.736  42.379 -16.549  0.00  0.00    +0.000 OA
ATOM     15  N   UNL     1     -21.570  43.400 -15.685  0.00  0.00    +0.000 N 
ATOM     16  C   UNL     1     -20.210  43.363 -15.964  0.00  0.00    +0.000 C 
ATOM     17  H   UNL     1     -22.003  44.189 -15.216  0.00  0.00    +0.000 HD
ATOM     18  H   UNL     1     -22.177  42.630 -15.945  0.00  0.00    +0.000 HD
ENDBRANCH   3  16
TORSDOF 2
ENDMDL
