MODEL 1
REMARK VINA RESULT:    -6.415      0.000      0.000
REMARK INTER + INTRA:          -6.841
REMARK INTER:                  -6.790
REMARK INTRA:                  -0.050
REMARK UNBOUND:                -0.050
REMARK  Name = 21113396
REMARK  2 active torsions:
REMARK  status: ('A' for Active; 'I' for Inactive)
REMARK    1  A    between atoms: C_4  and  C_6
REMARK    2  A    between atoms: C_6  and  C_10
REMARK                            x       y       z     vdW  Elec       q    Type
REMARK                         _______ _______ _______ _____ _____    ______ ____
ROOT
ATOM      1  N   UNL     1     -18.577  41.816  -8.130  0.00  0.00    +0.000 NA
ATOM      2  N   UNL     1     -17.252  40.627  -9.714  0.00  0.00    +0.000 N 
ATOM      3  C   UNL     1     -20.918  41.261  -7.884  0.00  0.00    +0.000 A 
ATOM      4  C   UNL     1     -20.797  40.283  -8.865  0.00  0.00    +0.000 A 
ATOM      5  C   UNL     1     -19.568  40.070  -9.479  0.00  0.00    +0.000 A 
ATOM      6  C   UNL     1     -19.789  41.994  -7.556  0.00  0.00    +0.000 A 
ATOM      7  C   UNL     1     -18.498  40.857  -9.080  0.00  0.00    +0.000 A 
ATOM      8  H   UNL     1     -17.057  39.701 -10.073  0.00  0.00    +0.000 HD
ATOM      9  H   UNL     1     -16.473  41.199  -9.415  0.00  0.00    +0.000 HD
ENDROOT
BRANCH   3  11
ATOM     10  O   UNL     1     -23.225  40.894  -7.553  0.00  0.00    +0.000 OA
ATOM     11  C   UNL     1     -22.188  41.507  -7.224  0.00  0.00    +0.000 C 
ATOM     12  C   UNL     1     -22.286  42.533  -6.099  0.00  0.00    +0.000 C 
ENDBRANCH   3  11
TORSDOF 1
ENDMDL
MODEL 2
REMARK VINA RESULT:    -5.882      2.323      4.123
REMARK INTER + INTRA:          -6.277
REMARK INTER:                  -6.226
REMARK INTRA:                  -0.050
REMARK UNBOUND:                -0.050
REMARK  Name = 21113396
REMARK  2 active torsions:
REMARK  status: ('A' for Active; 'I' for Inactive)
REMARK    1  A    between atoms: C_4  and  C_6
REMARK    2  A    between atoms: C_6  and  C_10
REMARK                            x       y       z     vdW  Elec       q    Type
REMARK                         _______ _______ _______ _____ _____    ______ ____
ROOT
ATOM      1  N   UNL     1     -18.830  42.188  -7.918  0.00  0.00    +0.000 NA
ATOM      2  N   UNL     1     -20.568  42.567  -6.333  0.00  0.00    +0.000 N 
ATOM      3  C   UNL     1     -19.117  40.487  -9.612  0.00  0.00    +0.000 A 
ATOM      4  C   UNL     1     -20.375  40.183  -9.105  0.00  0.00    +0.000 A 
ATOM      5  C   UNL     1     -20.862  40.881  -8.005  0.00  0.00    +0.000 A 
ATOM      6  C   UNL     1     -18.390  41.488  -8.988  0.00  0.00    +0.000 A 
ATOM      7  C   UNL     1     -20.057  41.865  -7.452  0.00  0.00    +0.000 A 
ATOM      8  H   UNL     1     -21.571  42.662  -6.239  0.00  0.00    +0.000 HD
ATOM      9  H   UNL     1     -19.980  43.290  -5.937  0.00  0.00    +0.000 HD
ENDROOT
BRANCH   3  11
ATOM     10  O   UNL     1     -19.250  38.914 -11.365  0.00  0.00    +0.000 OA
ATOM     11  C   UNL     1     -18.580  39.776 -10.759  0.00  0.00    +0.000 C 
ATOM     12  C   UNL     1     -17.168  40.071 -11.257  0.00  0.00    +0.000 C 
ENDBRANCH   3  11
TORSDOF 1
ENDMDL
MODEL 3
REMARK VINA RESULT:    -5.402      2.410      3.348
REMARK INTER + INTRA:          -5.769
REMARK INTER:                  -5.695
REMARK INTRA:                  -0.074
REMARK UNBOUND:                -0.050
REMARK  Name = 21113396
REMARK  2 active torsions:
REMARK  status: ('A' for Active; 'I' for Inactive)
REMARK    1  A    between atoms: C_4  and  C_6
REMARK    2  A    between atoms: C_6  and  C_10
REMARK                            x       y       z     vdW  Elec       q    Type
REMARK                         _______ _______ _______ _____ _____    ______ ____
ROOT
ATOM      1  N   UNL     1     -18.720  39.380 -11.979  0.00  0.00    +0.000 NA
ATOM      2  N   UNL     1     -16.638  39.744 -13.079  0.00  0.00    +0.000 N 
ATOM      3  C   UNL     1     -19.105  40.367  -9.806  0.00  0.00    +0.000 A 
ATOM      4  C   UNL     1     -17.836  40.935  -9.830  0.00  0.00    +0.000 A 
ATOM      5  C   UNL     1     -17.009  40.726 -10.928  0.00  0.00    +0.000 A 
ATOM      6  C   UNL     1     -19.496  39.605 -10.894  0.00  0.00    +0.000 A 
ATOM      7  C   UNL     1     -17.493  39.947 -11.967  0.00  0.00    +0.000 A 
ATOM      8  H   UNL     1     -15.951  40.455 -13.295  0.00  0.00    +0.000 HD
ATOM      9  H   UNL     1     -16.999  39.180 -13.838  0.00  0.00    +0.000 HD
ENDROOT
BRANCH   3  11
ATOM     10  O   UNL     1     -21.127  40.048  -8.634  0.00  0.00    +0.000 OA
ATOM     11  C   UNL     1     -19.992  40.567  -8.674  0.00  0.00    +0.000 C 
ATOM     12  C   UNL     1     -19.553  41.426  -7.492  0.00  0.00    +0.000 C 
ENDBRANCH   3  11
TORSDOF 1
ENDMDL
MODEL 4
REMARK VINA RESULT:    -5.354      2.696      4.401
REMARK INTER + INTRA:          -5.717
REMARK INTER:                  -5.644
REMARK INTRA:                  -0.073
REMARK UNBOUND:                -0.050
REMARK  Name = 21113396
REMARK  2 active torsions:
REMARK  status: ('A' for Active; 'I' for Inactive)
REMARK    1  A    between atoms: C_4  and  C_6
REMARK    2  A    between atoms: C_6  and  C_10
REMARK                            x       y       z     vdW  Elec       q    Type
REMARK                         _______ _______ _______ _____ _____    ______ ____
ROOT
ATOM      1  N   UNL     1     -21.199  40.694  -8.277  0.00  0.00    +0.000 NA
ATOM      2  N   UNL     1     -21.345  42.161  -6.406  0.00  0.00    +0.000 N 
ATOM      3  C   UNL     1     -19.127  40.547  -9.515  0.00  0.00    +0.000 A 
ATOM      4  C   UNL     1     -18.546  41.483  -8.667  0.00  0.00    +0.000 A 
ATOM      5  C   UNL     1     -19.289  42.024  -7.624  0.00  0.00    +0.000 A 
ATOM      6  C   UNL     1     -20.445  40.190  -9.281  0.00  0.00    +0.000 A 
ATOM      7  C   UNL     1     -20.600  41.601  -7.474  0.00  0.00    +0.000 A 
ATOM      8  H   UNL     1     -20.846  42.475  -5.583  0.00  0.00    +0.000 HD
ATOM      9  H   UNL     1     -22.299  41.844  -6.296  0.00  0.00    +0.000 HD
ENDROOT
BRANCH   3  11
ATOM     10  O   UNL     1     -18.822  38.999 -11.269  0.00  0.00    +0.000 OA
ATOM     11  C   UNL     1     -18.377  39.964 -10.613  0.00  0.00    +0.000 C 
ATOM     12  C   UNL     1     -17.010  40.523 -10.996  0.00  0.00    +0.000 C 
ENDBRANCH   3  11
TORSDOF 1
ENDMDL
MODEL 5
REMARK VINA RESULT:    -4.767      3.813      4.866
REMARK INTER + INTRA:          -5.096
REMARK INTER:                  -5.025
REMARK INTRA:                  -0.071
REMARK UNBOUND:                -0.050
REMARK  Name = 21113396
REMARK  2 active torsions:
REMARK  status: ('A' for Active; 'I' for Inactive)
REMARK    1  A    between atoms: C_4  and  C_6
REMARK    2  A    between atoms: C_6  and  C_10
REMARK                            x       y       z     vdW  Elec       q    Type
REMARK                         _______ _______ _______ _____ _____    ______ ____
ROOT
ATOM      1  N   UNL     1     -19.474  41.838 -13.537  0.00  0.00    +0.000 NA
ATOM      2  N   UNL     1     -18.488  43.671 -14.697  0.00  0.00    +0.000 N 
ATOM      3  C   UNL     1     -18.802  41.371 -11.263  0.00  0.00    +0.000 A 
ATOM      4  C   UNL     1     -17.921  42.446 -11.294  0.00  0.00    +0.000 A 
ATOM      5  C   UNL     1     -17.816  43.218 -12.446  0.00  0.00    +0.000 A 
ATOM      6  C   UNL     1     -19.549  41.110 -12.400  0.00  0.00    +0.000 A 
ATOM      7  C   UNL     1     -18.607  42.874 -13.531  0.00  0.00    +0.000 A 
ATOM      8  H   UNL     1     -18.212  44.639 -14.594  0.00  0.00    +0.000 HD
ATOM      9  H   UNL     1     -19.073  43.421 -15.485  0.00  0.00    +0.000 HD
ENDROOT
BRANCH   3  11
ATOM     10  O   UNL     1     -19.371  39.377 -10.136  0.00  0.00    +0.000 OA
ATOM     11  C   UNL     1     -18.935  40.546 -10.075  0.00  0.00    +0.000 C 
ATOM     12  C   UNL     1     -18.539  41.095  -8.707  0.00  0.00    +0.000 C 
ENDBRANCH   3  11
TORSDOF 1
ENDMDL
