MODEL 1
REMARK VINA RESULT:    -7.699      0.000      0.000
REMARK INTER + INTRA:          -9.855
REMARK INTER:                  -9.274
REMARK INTRA:                  -0.581
REMARK UNBOUND:                -0.581
REMARK  Name = 21221050
REMARK  4 active torsions:
REMARK  status: ('A' for Active; 'I' for Inactive)
REMARK    1  A    between atoms: N_3  and  C_11
REMARK    2  A    between atoms: N_5  and  C_14
REMARK    3  A    between atoms: C_6  and  C_11
REMARK    4  A    between atoms: C_12  and  C_13
REMARK                            x       y       z     vdW  Elec       q    Type
REMARK                         _______ _______ _______ _____ _____    ______ ____
ROOT
ATOM      1  O   UNL     1     -17.558  40.152 -10.335  0.00  0.00    +0.000 OA
ATOM      2  N   UNL     1     -19.080  41.533  -9.259  0.00  0.00    +0.000 N 
ATOM      3  C   UNL     1     -18.357  41.083 -10.362  0.00  0.00    +0.000 C 
ATOM      4  H   UNL     1     -19.711  42.321  -9.370  0.00  0.00    +0.000 HD
ENDROOT
BRANCH   3   6
ATOM      5  N   UNL     1     -19.555  41.962 -13.838  0.00  0.00    +0.000 NA
ATOM      6  C   UNL     1     -18.573  41.818 -11.635  0.00  0.00    +0.000 A 
ATOM      7  C   UNL     1     -19.342  41.315 -12.671  0.00  0.00    +0.000 A 
ATOM      8  C   UNL     1     -17.984  43.065 -11.808  0.00  0.00    +0.000 A 
ATOM      9  C   UNL     1     -18.181  43.762 -12.995  0.00  0.00    +0.000 A 
ATOM     10  C   UNL     1     -18.967  43.171 -13.971  0.00  0.00    +0.000 A 
BRANCH   7  11
ATOM     11  N   UNL     1     -19.946  40.042 -12.501  0.00  0.00    +0.000 N 
ATOM     12  H   UNL     1     -19.354  39.307 -12.135  0.00  0.00    +0.000 HD
ATOM     13  H   UNL     1     -20.934  40.000 -12.287  0.00  0.00    +0.000 HD
ENDBRANCH   7  11
ENDBRANCH   3   6
BRANCH   2  14
ATOM     14  C   UNL     1     -18.962  40.944  -7.959  0.00  0.00    +0.000 C 
BRANCH  14  16
ATOM     15  N   UNL     1     -22.842  42.362  -6.681  0.00  0.00    +0.000 NA
ATOM     16  C   UNL     1     -20.287  41.013  -7.204  0.00  0.00    +0.000 C 
ATOM     17  C   UNL     1     -21.477  40.921  -8.167  0.00  0.00    +0.000 C 
ATOM     18  C   UNL     1     -20.382  42.301  -6.375  0.00  0.00    +0.000 C 
ATOM     19  C   UNL     1     -22.802  41.103  -7.428  0.00  0.00    +0.000 C 
ATOM     20  C   UNL     1     -21.750  42.427  -5.706  0.00  0.00    +0.000 C 
ATOM     21  H   UNL     1     -23.733  42.435  -6.192  0.00  0.00    +0.000 HD
ENDBRANCH  14  16
ENDBRANCH   2  14
TORSDOF 4
ENDMDL
MODEL 2
REMARK VINA RESULT:    -7.065      1.487      6.082
REMARK INTER + INTRA:          -9.092
REMARK INTER:                  -8.425
REMARK INTRA:                  -0.667
REMARK UNBOUND:                -0.581
REMARK  Name = 21221050
REMARK  4 active torsions:
REMARK  status: ('A' for Active; 'I' for Inactive)
REMARK    1  A    between atoms: N_3  and  C_11
REMARK    2  A    between atoms: N_5  and  C_14
REMARK    3  A    between atoms: C_6  and  C_11
REMARK    4  A    between atoms: C_12  and  C_13
REMARK                            x       y       z     vdW  Elec       q    Type
REMARK                         _______ _______ _______ _____ _____    ______ ____
ROOT
ATOM      1  O   UNL     1     -18.409  40.347  -8.459  0.00  0.00    +0.000 OA
ATOM      2  N   UNL     1     -19.842  40.059 -10.260  0.00  0.00    +0.000 N 
ATOM      3  C   UNL     1     -19.525  40.447  -8.960  0.00  0.00    +0.000 C 
ATOM      4  H   UNL     1     -20.797  40.166 -10.589  0.00  0.00    +0.000 HD
ENDROOT
BRANCH   3   6
ATOM      5  N   UNL     1     -21.503  42.621  -6.582  0.00  0.00    +0.000 NA
ATOM      6  C   UNL     1     -20.642  40.991  -8.145  0.00  0.00    +0.000 A 
ATOM      7  C   UNL     1     -20.504  42.105  -7.333  0.00  0.00    +0.000 A 
ATOM      8  C   UNL     1     -21.883  40.367  -8.189  0.00  0.00    +0.000 A 
ATOM      9  C   UNL     1     -22.935  40.869  -7.430  0.00  0.00    +0.000 A 
ATOM     10  C   UNL     1     -22.695  41.988  -6.650  0.00  0.00    +0.000 A 
BRANCH   7  11
ATOM     11  N   UNL     1     -19.241  42.747  -7.283  0.00  0.00    +0.000 N 
ATOM     12  H   UNL     1     -19.112  43.434  -6.550  0.00  0.00    +0.000 HD
ATOM     13  H   UNL     1     -18.426  42.236  -7.596  0.00  0.00    +0.000 HD
ENDBRANCH   7  11
ENDBRANCH   3   6
BRANCH   2  14
ATOM     14  C   UNL     1     -18.881  39.494 -11.159  0.00  0.00    +0.000 C 
BRANCH  14  16
ATOM     15  N   UNL     1     -18.022  43.269 -13.085  0.00  0.00    +0.000 NA
ATOM     16  C   UNL     1     -18.489  40.495 -12.243  0.00  0.00    +0.000 C 
ATOM     17  C   UNL     1     -17.229  41.274 -11.845  0.00  0.00    +0.000 C 
ATOM     18  C   UNL     1     -19.637  41.471 -12.534  0.00  0.00    +0.000 C 
ATOM     19  C   UNL     1     -16.898  42.353 -12.874  0.00  0.00    +0.000 C 
ATOM     20  C   UNL     1     -19.211  42.542 -13.537  0.00  0.00    +0.000 C 
ATOM     21  H   UNL     1     -17.765  43.961 -13.789  0.00  0.00    +0.000 HD
ENDBRANCH  14  16
ENDBRANCH   2  14
TORSDOF 4
ENDMDL
MODEL 3
REMARK VINA RESULT:    -6.953      1.582      5.778
REMARK INTER + INTRA:          -8.957
REMARK INTER:                  -8.311
REMARK INTRA:                  -0.646
REMARK UNBOUND:                -0.581
REMARK  Name = 21221050
REMARK  4 active torsions:
REMARK  status: ('A' for Active; 'I' for Inactive)
REMARK    1  A    between atoms: N_3  and  C_11
REMARK    2  A    between atoms: N_5  and  C_14
REMARK    3  A    between atoms: C_6  and  C_11
REMARK    4  A    between atoms: C_12  and  C_13
REMARK                            x       y       z     vdW  Elec       q    Type
REMARK                         _______ _______ _______ _____ _____    ______ ____
ROOT
ATOM      1  O   UNL     1     -17.974  40.451  -8.266  0.00  0.00    +0.000 OA
ATOM      2  N   UNL     1     -18.371  42.405  -9.452  0.00  0.00    +0.000 N 
ATOM      3  C   UNL     1     -18.714  41.382  -8.571  0.00  0.00    +0.000 C 
ATOM      4  H   UNL     1     -19.053  43.130  -9.658  0.00  0.00    +0.000 HD
ENDROOT
BRANCH   3   6
ATOM      5  N   UNL     1     -22.356  40.614  -7.903  0.00  0.00    +0.000 NA
ATOM      6  C   UNL     1     -20.085  41.437  -8.000  0.00  0.00    +0.000 A 
ATOM      7  C   UNL     1     -21.101  40.587  -8.406  0.00  0.00    +0.000 A 
ATOM      8  C   UNL     1     -20.375  42.375  -7.016  0.00  0.00    +0.000 A 
ATOM      9  C   UNL     1     -21.655  42.434  -6.475  0.00  0.00    +0.000 A 
ATOM     10  C   UNL     1     -22.600  41.539  -6.949  0.00  0.00    +0.000 A 
BRANCH   7  11
ATOM     11  N   UNL     1     -20.812  39.627  -9.409  0.00  0.00    +0.000 N 
ATOM     12  H   UNL     1     -21.390  39.655 -10.240  0.00  0.00    +0.000 HD
ATOM     13  H   UNL     1     -19.858  39.306  -9.511  0.00  0.00    +0.000 HD
ENDBRANCH   7  11
ENDBRANCH   3   6
BRANCH   2  14
ATOM     14  C   UNL     1     -17.097  42.477 -10.102  0.00  0.00    +0.000 C 
BRANCH  14  16
ATOM     15  N   UNL     1     -18.410  40.122 -13.482  0.00  0.00    +0.000 NA
ATOM     16  C   UNL     1     -17.175  41.929 -11.524  0.00  0.00    +0.000 C 
ATOM     17  C   UNL     1     -18.549  42.207 -12.148  0.00  0.00    +0.000 C 
ATOM     18  C   UNL     1     -16.884  40.423 -11.551  0.00  0.00    +0.000 C 
ATOM     19  C   UNL     1     -18.670  41.563 -13.528  0.00  0.00    +0.000 C 
ATOM     20  C   UNL     1     -17.070  39.849 -12.955  0.00  0.00    +0.000 C 
ATOM     21  H   UNL     1     -18.484  39.736 -14.423  0.00  0.00    +0.000 HD
ENDBRANCH  14  16
ENDBRANCH   2  14
TORSDOF 4
ENDMDL
MODEL 4
REMARK VINA RESULT:    -6.462      2.894      3.684
REMARK INTER + INTRA:          -8.365
REMARK INTER:                  -7.730
REMARK INTRA:                  -0.635
REMARK UNBOUND:                -0.581
REMARK  Name = 21221050
REMARK  4 active torsions:
REMARK  status: ('A' for Active; 'I' for Inactive)
REMARK    1  A    between atoms: N_3  and  C_11
REMARK    2  A    between atoms: N_5  and  C_14
REMARK    3  A    between atoms: C_6  and  C_11
REMARK    4  A    between atoms: C_12  and  C_13
REMARK                            x       y       z     vdW  Elec       q    Type
REMARK                         _______ _______ _______ _____ _____    ______ ____
ROOT
ATOM      1  O   UNL     1     -16.921  41.913 -12.930  0.00  0.00    +0.000 OA
ATOM      2  N   UNL     1     -17.102  42.020 -10.620  0.00  0.00    +0.000 N 
ATOM      3  C   UNL     1     -16.870  42.555 -11.885  0.00  0.00    +0.000 C 
ATOM      4  H   UNL     1     -17.025  42.624  -9.806  0.00  0.00    +0.000 HD
ENDROOT
BRANCH   3   6
ATOM      5  N   UNL     1     -14.915  45.751 -12.394  0.00  0.00    +0.000 NA
ATOM      6  C   UNL     1     -16.513  43.997 -11.935  0.00  0.00    +0.000 A 
ATOM      7  C   UNL     1     -15.267  44.447 -12.339  0.00  0.00    +0.000 A 
ATOM      8  C   UNL     1     -17.459  44.945 -11.565  0.00  0.00    +0.000 A 
ATOM      9  C   UNL     1     -17.136  46.297 -11.609  0.00  0.00    +0.000 A 
ATOM     10  C   UNL     1     -15.861  46.644 -12.027  0.00  0.00    +0.000 A 
BRANCH   7  11
ATOM     11  N   UNL     1     -14.296  43.485 -12.718  0.00  0.00    +0.000 N 
ATOM     12  H   UNL     1     -13.996  42.839 -11.998  0.00  0.00    +0.000 HD
ATOM     13  H   UNL     1     -14.286  43.160 -13.676  0.00  0.00    +0.000 HD
ENDBRANCH   7  11
ENDBRANCH   3   6
BRANCH   2  14
ATOM     14  C   UNL     1     -17.431  40.643 -10.406  0.00  0.00    +0.000 C 
BRANCH  14  16
ATOM     15  N   UNL     1     -20.980  41.253  -8.012  0.00  0.00    +0.000 NA
ATOM     16  C   UNL     1     -18.438  40.490  -9.270  0.00  0.00    +0.000 C 
ATOM     17  C   UNL     1     -19.795  40.005  -9.797  0.00  0.00    +0.000 C 
ATOM     18  C   UNL     1     -18.615  41.809  -8.507  0.00  0.00    +0.000 C 
ATOM     19  C   UNL     1     -20.837  39.957  -8.680  0.00  0.00    +0.000 C 
ATOM     20  C   UNL     1     -19.703  41.690  -7.441  0.00  0.00    +0.000 C 
ATOM     21  H   UNL     1     -21.670  41.172  -7.266  0.00  0.00    +0.000 HD
ENDBRANCH  14  16
ENDBRANCH   2  14
TORSDOF 4
ENDMDL
MODEL 5
REMARK VINA RESULT:    -6.357      2.020      5.919
REMARK INTER + INTRA:          -8.239
REMARK INTER:                  -7.659
REMARK INTRA:                  -0.580
REMARK UNBOUND:                -0.581
REMARK  Name = 21221050
REMARK  4 active torsions:
REMARK  status: ('A' for Active; 'I' for Inactive)
REMARK    1  A    between atoms: N_3  and  C_11
REMARK    2  A    between atoms: N_5  and  C_14
REMARK    3  A    between atoms: C_6  and  C_11
REMARK    4  A    between atoms: C_12  and  C_13
REMARK                            x       y       z     vdW  Elec       q    Type
REMARK                         _______ _______ _______ _____ _____    ______ ____
ROOT
ATOM      1  O   UNL     1     -17.075  40.446 -11.030  0.00  0.00    +0.000 OA
ATOM      2  N   UNL     1     -17.311  42.742 -10.798  0.00  0.00    +0.000 N 
ATOM      3  C   UNL     1     -17.632  41.414 -10.522  0.00  0.00    +0.000 C 
ATOM      4  H   UNL     1     -17.835  43.483 -10.341  0.00  0.00    +0.000 HD
ENDROOT
BRANCH   3   6
ATOM      5  N   UNL     1     -20.770  40.034  -8.928  0.00  0.00    +0.000 NA
ATOM      6  C   UNL     1     -18.746  41.192  -9.565  0.00  0.00    +0.000 A 
ATOM      7  C   UNL     1     -19.746  40.258  -9.782  0.00  0.00    +0.000 A 
ATOM      8  C   UNL     1     -18.801  41.944  -8.398  0.00  0.00    +0.000 A 
ATOM      9  C   UNL     1     -19.839  41.743  -7.495  0.00  0.00    +0.000 A 
ATOM     10  C   UNL     1     -20.790  40.785  -7.805  0.00  0.00    +0.000 A 
BRANCH   7  11
ATOM     11  N   UNL     1     -19.697  39.486 -10.971  0.00  0.00    +0.000 N 
ATOM     12  H   UNL     1     -19.990  39.949 -11.822  0.00  0.00    +0.000 HD
ATOM     13  H   UNL     1     -18.996  38.760 -11.048  0.00  0.00    +0.000 HD
ENDBRANCH   7  11
ENDBRANCH   3   6
BRANCH   2  14
ATOM     14  C   UNL     1     -16.279  43.117 -11.717  0.00  0.00    +0.000 C 
BRANCH  14  16
ATOM     15  N   UNL     1     -18.862  46.067 -13.540  0.00  0.00    +0.000 NA
ATOM     16  C   UNL     1     -16.745  44.245 -12.634  0.00  0.00    +0.000 C 
ATOM     17  C   UNL     1     -17.176  45.474 -11.822  0.00  0.00    +0.000 C 
ATOM     18  C   UNL     1     -17.897  43.783 -13.534  0.00  0.00    +0.000 C 
ATOM     19  C   UNL     1     -17.748  46.563 -12.729  0.00  0.00    +0.000 C 
ATOM     20  C   UNL     1     -18.440  44.939 -14.374  0.00  0.00    +0.000 C 
ATOM     21  H   UNL     1     -19.201  46.818 -14.140  0.00  0.00    +0.000 HD
ENDBRANCH  14  16
ENDBRANCH   2  14
TORSDOF 4
ENDMDL
