MODEL 1
REMARK VINA RESULT:    -6.557      0.000      0.000
REMARK INTER + INTRA:          -8.014
REMARK INTER:                  -7.707
REMARK INTRA:                  -0.307
REMARK UNBOUND:                -0.307
REMARK  Name = 21281446
REMARK  3 active torsions:
REMARK  status: ('A' for Active; 'I' for Inactive)
REMARK    1  A    between atoms: N_3  and  C_9
REMARK    2  A    between atoms: N_5  and  C_9
REMARK    3  A    between atoms: C_6  and  C_7
REMARK                            x       y       z     vdW  Elec       q    Type
REMARK                         _______ _______ _______ _____ _____    ______ ____
ROOT
ATOM      1  O   UNL     1     -18.109  40.512  -8.880  0.00  0.00    +0.000 OA
ATOM      2  N   UNL     1     -19.781  39.856 -10.342  0.00  0.00    +0.000 N 
ATOM      3  C   UNL     1     -19.322  40.417  -9.145  0.00  0.00    +0.000 C 
ATOM      4  H   UNL     1     -20.776  39.745 -10.507  0.00  0.00    +0.000 HD
ENDROOT
BRANCH   3   6
ATOM      5  N   UNL     1     -22.637  40.977  -7.518  0.00  0.00    +0.000 NA
ATOM      6  C   UNL     1     -20.323  40.912  -8.217  0.00  0.00    +0.000 A 
ATOM      7  C   UNL     1     -19.976  41.760  -7.172  0.00  0.00    +0.000 A 
ATOM      8  C   UNL     1     -21.655  40.553  -8.345  0.00  0.00    +0.000 A 
ATOM      9  C   UNL     1     -20.958  42.218  -6.300  0.00  0.00    +0.000 A 
ATOM     10  C   UNL     1     -22.261  41.801  -6.514  0.00  0.00    +0.000 A 
ENDBRANCH   3   6
BRANCH   2  11
ATOM     11  C   UNL     1     -18.898  39.341 -11.370  0.00  0.00    +0.000 C 
BRANCH  11  13
ATOM     12  O   UNL     1     -19.389  42.262 -12.691  0.00  0.00    +0.000 OA
ATOM     13  N   UNL     1     -19.250  39.915 -12.669  0.00  0.00    +0.000 NA
ATOM     14  C   UNL     1     -19.319  41.087 -12.678  0.00  0.00    +0.000 C 
ENDBRANCH  11  13
ENDBRANCH   2  11
TORSDOF 3
ENDMDL
MODEL 2
REMARK VINA RESULT:    -6.296      2.058      2.442
REMARK INTER + INTRA:          -7.707
REMARK INTER:                  -7.315
REMARK INTRA:                  -0.392
REMARK UNBOUND:                -0.307
REMARK  Name = 21281446
REMARK  3 active torsions:
REMARK  status: ('A' for Active; 'I' for Inactive)
REMARK    1  A    between atoms: N_3  and  C_9
REMARK    2  A    between atoms: N_5  and  C_9
REMARK    3  A    between atoms: C_6  and  C_7
REMARK                            x       y       z     vdW  Elec       q    Type
REMARK                         _______ _______ _______ _____ _____    ______ ____
ROOT
ATOM      1  O   UNL     1     -19.327  38.971 -10.961  0.00  0.00    +0.000 OA
ATOM      2  N   UNL     1     -17.550  40.458 -10.937  0.00  0.00    +0.000 N 
ATOM      3  C   UNL     1     -18.769  39.964 -10.456  0.00  0.00    +0.000 C 
ATOM      4  H   UNL     1     -17.146  41.299 -10.539  0.00  0.00    +0.000 HD
ENDROOT
BRANCH   3   6
ATOM      5  N   UNL     1     -19.125  42.254  -7.527  0.00  0.00    +0.000 NA
ATOM      6  C   UNL     1     -19.358  40.646  -9.318  0.00  0.00    +0.000 A 
ATOM      7  C   UNL     1     -20.662  40.379  -8.919  0.00  0.00    +0.000 A 
ATOM      8  C   UNL     1     -18.639  41.584  -8.596  0.00  0.00    +0.000 A 
ATOM      9  C   UNL     1     -21.199  41.047  -7.824  0.00  0.00    +0.000 A 
ATOM     10  C   UNL     1     -20.397  41.967  -7.168  0.00  0.00    +0.000 A 
ENDBRANCH   3   6
BRANCH   2  11
ATOM     11  C   UNL     1     -16.836  39.867 -12.051  0.00  0.00    +0.000 C 
BRANCH  11  13
ATOM     12  O   UNL     1     -17.147  42.978 -12.912  0.00  0.00    +0.000 OA
ATOM     13  N   UNL     1     -17.055  40.656 -13.265  0.00  0.00    +0.000 NA
ATOM     14  C   UNL     1     -17.101  41.815 -13.086  0.00  0.00    +0.000 C 
ENDBRANCH  11  13
ENDBRANCH   2  11
TORSDOF 3
ENDMDL
MODEL 3
REMARK VINA RESULT:    -5.687      2.123      5.339
REMARK INTER + INTRA:          -6.992
REMARK INTER:                  -6.835
REMARK INTRA:                  -0.156
REMARK UNBOUND:                -0.307
REMARK  Name = 21281446
REMARK  3 active torsions:
REMARK  status: ('A' for Active; 'I' for Inactive)
REMARK    1  A    between atoms: N_3  and  C_9
REMARK    2  A    between atoms: N_5  and  C_9
REMARK    3  A    between atoms: C_6  and  C_7
REMARK                            x       y       z     vdW  Elec       q    Type
REMARK                         _______ _______ _______ _____ _____    ______ ____
ROOT
ATOM      1  O   UNL     1     -18.178  40.595  -8.519  0.00  0.00    +0.000 OA
ATOM      2  N   UNL     1     -20.405  40.827  -9.112  0.00  0.00    +0.000 N 
ATOM      3  C   UNL     1     -19.037  40.773  -9.403  0.00  0.00    +0.000 C 
ATOM      4  H   UNL     1     -21.077  41.024  -9.845  0.00  0.00    +0.000 HD
ENDROOT
BRANCH   3   6
ATOM      5  N   UNL     1     -19.312  41.171 -13.107  0.00  0.00    +0.000 NA
ATOM      6  C   UNL     1     -18.650  40.911 -10.795  0.00  0.00    +0.000 A 
ATOM      7  C   UNL     1     -17.312  40.920 -11.170  0.00  0.00    +0.000 A 
ATOM      8  C   UNL     1     -19.603  41.039 -11.793  0.00  0.00    +0.000 A 
ATOM      9  C   UNL     1     -16.972  41.054 -12.512  0.00  0.00    +0.000 A 
ATOM     10  C   UNL     1     -17.999  41.175 -13.432  0.00  0.00    +0.000 A 
ENDBRANCH   3   6
BRANCH   2  11
ATOM     11  C   UNL     1     -20.940  40.683  -7.772  0.00  0.00    +0.000 C 
BRANCH  11  13
ATOM     12  O   UNL     1     -23.038  42.615  -6.228  0.00  0.00    +0.000 OA
ATOM     13  N   UNL     1     -22.375  40.969  -7.769  0.00  0.00    +0.000 NA
ATOM     14  C   UNL     1     -22.704  41.791  -6.998  0.00  0.00    +0.000 C 
ENDBRANCH  11  13
ENDBRANCH   2  11
TORSDOF 3
ENDMDL
MODEL 4
REMARK VINA RESULT:    -5.198      4.045      5.876
REMARK INTER + INTRA:          -6.417
REMARK INTER:                  -6.025
REMARK INTRA:                  -0.391
REMARK UNBOUND:                -0.307
REMARK  Name = 21281446
REMARK  3 active torsions:
REMARK  status: ('A' for Active; 'I' for Inactive)
REMARK    1  A    between atoms: N_3  and  C_9
REMARK    2  A    between atoms: N_5  and  C_9
REMARK    3  A    between atoms: C_6  and  C_7
REMARK                            x       y       z     vdW  Elec       q    Type
REMARK                         _______ _______ _______ _____ _____    ______ ____
ROOT
ATOM      1  O   UNL     1     -18.877  44.325 -12.895  0.00  0.00    +0.000 OA
ATOM      2  N   UNL     1     -18.981  43.301 -14.970  0.00  0.00    +0.000 N 
ATOM      3  C   UNL     1     -18.804  43.289 -13.582  0.00  0.00    +0.000 C 
ATOM      4  H   UNL     1     -18.865  42.449 -15.508  0.00  0.00    +0.000 HD
ENDROOT
BRANCH   3   6
ATOM      5  N   UNL     1     -19.307  40.233 -11.493  0.00  0.00    +0.000 NA
ATOM      6  C   UNL     1     -18.550  42.003 -12.957  0.00  0.00    +0.000 A 
ATOM      7  C   UNL     1     -17.367  41.312 -13.192  0.00  0.00    +0.000 A 
ATOM      8  C   UNL     1     -19.479  41.425 -12.108  0.00  0.00    +0.000 A 
ATOM      9  C   UNL     1     -17.152  40.083 -12.579  0.00  0.00    +0.000 A 
ATOM     10  C   UNL     1     -18.143  39.591 -11.746  0.00  0.00    +0.000 A 
ENDBRANCH   3   6
BRANCH   2  11
ATOM     11  C   UNL     1     -19.261  44.506 -15.726  0.00  0.00    +0.000 C 
BRANCH  11  13
ATOM     12  O   UNL     1     -20.499  41.947 -17.289  0.00  0.00    +0.000 OA
ATOM     13  N   UNL     1     -19.734  44.159 -17.068  0.00  0.00    +0.000 NA
ATOM     14  C   UNL     1     -20.115  43.054 -17.176  0.00  0.00    +0.000 C 
ENDBRANCH  11  13
ENDBRANCH   2  11
TORSDOF 3
ENDMDL
MODEL 5
REMARK VINA RESULT:    -5.136      2.734      5.592
REMARK INTER + INTRA:          -6.343
REMARK INTER:                  -5.929
REMARK INTRA:                  -0.413
REMARK UNBOUND:                -0.307
REMARK  Name = 21281446
REMARK  3 active torsions:
REMARK  status: ('A' for Active; 'I' for Inactive)
REMARK    1  A    between atoms: N_3  and  C_9
REMARK    2  A    between atoms: N_5  and  C_9
REMARK    3  A    between atoms: C_6  and  C_7
REMARK                            x       y       z     vdW  Elec       q    Type
REMARK                         _______ _______ _______ _____ _____    ______ ____
ROOT
ATOM      1  O   UNL     1     -19.754  40.811 -12.181  0.00  0.00    +0.000 OA
ATOM      2  N   UNL     1     -19.024  40.972  -9.988  0.00  0.00    +0.000 N 
ATOM      3  C   UNL     1     -18.925  41.243 -11.358  0.00  0.00    +0.000 C 
ATOM      4  H   UNL     1     -18.306  41.294  -9.349  0.00  0.00    +0.000 HD
ENDROOT
BRANCH   3   6
ATOM      5  N   UNL     1     -16.926  43.663 -13.383  0.00  0.00    +0.000 NA
ATOM      6  C   UNL     1     -17.817  42.076 -11.790  0.00  0.00    +0.000 A 
ATOM      7  C   UNL     1     -16.623  42.107 -11.080  0.00  0.00    +0.000 A 
ATOM      8  C   UNL     1     -17.917  42.866 -12.924  0.00  0.00    +0.000 A 
ATOM      9  C   UNL     1     -15.580  42.915 -11.519  0.00  0.00    +0.000 A 
ATOM     10  C   UNL     1     -15.779  43.666 -12.665  0.00  0.00    +0.000 A 
ENDBRANCH   3   6
BRANCH   2  11
ATOM     11  C   UNL     1     -20.087  40.173  -9.410  0.00  0.00    +0.000 C 
BRANCH  11  13
ATOM     12  O   UNL     1     -19.110  42.369  -7.233  0.00  0.00    +0.000 OA
ATOM     13  N   UNL     1     -20.584  40.806  -8.187  0.00  0.00    +0.000 NA
ATOM     14  C   UNL     1     -19.846  41.586  -7.712  0.00  0.00    +0.000 C 
ENDBRANCH  11  13
ENDBRANCH   2  11
TORSDOF 3
ENDMDL
