MODEL 1
REMARK VINA RESULT:    -7.286      0.000      0.000
REMARK INTER + INTRA:          -7.769
REMARK INTER:                  -7.712
REMARK INTRA:                  -0.057
REMARK UNBOUND:                -0.057
REMARK  Name = 21330884
REMARK  1 active torsions:
REMARK  status: ('A' for Active; 'I' for Inactive)
REMARK    1  A    between atoms: C_6  and  C_11
REMARK                            x       y       z     vdW  Elec       q    Type
REMARK                         _______ _______ _______ _____ _____    ______ ____
ROOT
ATOM      1  O   UNL     1     -18.341  39.270 -11.286  0.00  0.00    +0.000 OA
ATOM      2  N   UNL     1     -20.047  40.435  -9.315  0.00  0.00    +0.000 NA
ATOM      3  N   UNL     1     -17.737  40.843  -9.626  0.00  0.00    +0.000 N 
ATOM      4  C   UNL     1     -21.225  41.584  -7.543  0.00  0.00    +0.000 A 
ATOM      5  C   UNL     1     -18.926  41.086  -8.927  0.00  0.00    +0.000 A 
ATOM      6  C   UNL     1     -20.053  42.235  -7.175  0.00  0.00    +0.000 A 
ATOM      7  C   UNL     1     -18.877  41.985  -7.875  0.00  0.00    +0.000 A 
ATOM      8  C   UNL     1     -21.170  40.702  -8.611  0.00  0.00    +0.000 A 
ATOM      9  C   UNL     1     -17.543  39.991 -10.705  0.00  0.00    +0.000 C 
ATOM     10  H   UNL     1     -16.918  41.353  -9.303  0.00  0.00    +0.000 HD
ENDROOT
BRANCH   4  13
ATOM     11  O   UNL     1     -23.383  40.976  -6.821  0.00  0.00    +0.000 OA
ATOM     12  N   UNL     1     -22.606  43.026  -6.148  0.00  0.00    +0.000 N 
ATOM     13  C   UNL     1     -22.470  41.822  -6.833  0.00  0.00    +0.000 C 
ATOM     14  H   UNL     1     -21.911  43.761  -6.104  0.00  0.00    +0.000 HD
ATOM     15  H   UNL     1     -23.463  43.216  -5.637  0.00  0.00    +0.000 HD
ENDBRANCH   4  13
TORSDOF 1
ENDMDL
MODEL 2
REMARK VINA RESULT:    -6.600      1.417      4.961
REMARK INTER + INTRA:          -7.043
REMARK INTER:                  -6.985
REMARK INTRA:                  -0.058
REMARK UNBOUND:                -0.057
REMARK  Name = 21330884
REMARK  1 active torsions:
REMARK  status: ('A' for Active; 'I' for Inactive)
REMARK    1  A    between atoms: C_6  and  C_11
REMARK                            x       y       z     vdW  Elec       q    Type
REMARK                         _______ _______ _______ _____ _____    ______ ____
ROOT
ATOM      1  O   UNL     1     -22.979  41.646  -6.427  0.00  0.00    +0.000 OA
ATOM      2  N   UNL     1     -20.984  40.872  -8.318  0.00  0.00    +0.000 NA
ATOM      3  N   UNL     1     -20.777  42.493  -6.607  0.00  0.00    +0.000 N 
ATOM      4  C   UNL     1     -19.102  40.437  -9.772  0.00  0.00    +0.000 A 
ATOM      5  C   UNL     1     -20.221  41.789  -7.682  0.00  0.00    +0.000 A 
ATOM      6  C   UNL     1     -18.347  41.387  -9.092  0.00  0.00    +0.000 A 
ATOM      7  C   UNL     1     -18.911  42.081  -8.027  0.00  0.00    +0.000 A 
ATOM      8  C   UNL     1     -20.403  40.219  -9.349  0.00  0.00    +0.000 A 
ATOM      9  C   UNL     1     -22.058  42.374  -6.083  0.00  0.00    +0.000 C 
ATOM     10  H   UNL     1     -20.170  43.173  -6.156  0.00  0.00    +0.000 HD
ENDROOT
BRANCH   4  13
ATOM     11  O   UNL     1     -17.329  39.747 -11.161  0.00  0.00    +0.000 OA
ATOM     12  N   UNL     1     -19.408  38.907 -11.643  0.00  0.00    +0.000 N 
ATOM     13  C   UNL     1     -18.543  39.695 -10.889  0.00  0.00    +0.000 C 
ATOM     14  H   UNL     1     -20.403  38.807 -11.485  0.00  0.00    +0.000 HD
ATOM     15  H   UNL     1     -19.043  38.373 -12.425  0.00  0.00    +0.000 HD
ENDBRANCH   4  13
TORSDOF 1
ENDMDL
MODEL 3
REMARK VINA RESULT:    -6.189      2.070      5.758
REMARK INTER + INTRA:          -6.608
REMARK INTER:                  -6.555
REMARK INTRA:                  -0.053
REMARK UNBOUND:                -0.057
REMARK  Name = 21330884
REMARK  1 active torsions:
REMARK  status: ('A' for Active; 'I' for Inactive)
REMARK    1  A    between atoms: C_6  and  C_11
REMARK                            x       y       z     vdW  Elec       q    Type
REMARK                         _______ _______ _______ _____ _____    ______ ____
ROOT
ATOM      1  O   UNL     1     -19.554  42.312  -6.810  0.00  0.00    +0.000 OA
ATOM      2  N   UNL     1     -18.398  41.180  -9.163  0.00  0.00    +0.000 NA
ATOM      3  N   UNL     1     -20.595  40.849  -8.351  0.00  0.00    +0.000 N 
ATOM      4  C   UNL     1     -17.708  40.074 -11.200  0.00  0.00    +0.000 A 
ATOM      5  C   UNL     1     -19.608  40.594  -9.310  0.00  0.00    +0.000 A 
ATOM      6  C   UNL     1     -18.966  39.491 -11.318  0.00  0.00    +0.000 A 
ATOM      7  C   UNL     1     -19.938  39.750 -10.358  0.00  0.00    +0.000 A 
ATOM      8  C   UNL     1     -17.478  40.904 -10.114  0.00  0.00    +0.000 A 
ATOM      9  C   UNL     1     -20.499  41.654  -7.222  0.00  0.00    +0.000 C 
ATOM     10  H   UNL     1     -21.491  40.390  -8.499  0.00  0.00    +0.000 HD
ENDROOT
BRANCH   4  13
ATOM     11  O   UNL     1     -16.932  39.751 -13.399  0.00  0.00    +0.000 OA
ATOM     12  N   UNL     1     -15.363  39.682 -11.728  0.00  0.00    +0.000 N 
ATOM     13  C   UNL     1     -16.671  39.824 -12.184  0.00  0.00    +0.000 C 
ATOM     14  H   UNL     1     -15.068  39.732 -10.761  0.00  0.00    +0.000 HD
ATOM     15  H   UNL     1     -14.617  39.513 -12.395  0.00  0.00    +0.000 HD
ENDBRANCH   4  13
TORSDOF 1
ENDMDL
MODEL 4
REMARK VINA RESULT:    -5.838      3.993      5.262
REMARK INTER + INTRA:          -6.236
REMARK INTER:                  -6.177
REMARK INTRA:                  -0.058
REMARK UNBOUND:                -0.057
REMARK  Name = 21330884
REMARK  1 active torsions:
REMARK  status: ('A' for Active; 'I' for Inactive)
REMARK    1  A    between atoms: C_6  and  C_11
REMARK                            x       y       z     vdW  Elec       q    Type
REMARK                         _______ _______ _______ _____ _____    ______ ____
ROOT
ATOM      1  O   UNL     1     -20.421  42.612 -16.110  0.00  0.00    +0.000 OA
ATOM      2  N   UNL     1     -19.637  41.772 -13.496  0.00  0.00    +0.000 NA
ATOM      3  N   UNL     1     -18.844  43.655 -14.688  0.00  0.00    +0.000 N 
ATOM      4  C   UNL     1     -18.774  41.320 -11.283  0.00  0.00    +0.000 A 
ATOM      5  C   UNL     1     -18.829  42.856 -13.539  0.00  0.00    +0.000 A 
ATOM      6  C   UNL     1     -17.958  42.444 -11.364  0.00  0.00    +0.000 A 
ATOM      7  C   UNL     1     -17.980  43.230 -12.511  0.00  0.00    +0.000 A 
ATOM      8  C   UNL     1     -19.588  41.031 -12.366  0.00  0.00    +0.000 A 
ATOM      9  C   UNL     1     -19.606  43.481 -15.837  0.00  0.00    +0.000 C 
ATOM     10  H   UNL     1     -18.223  44.460 -14.680  0.00  0.00    +0.000 HD
ENDROOT
BRANCH   4  13
ATOM     11  O   UNL     1     -19.595  39.552  -9.962  0.00  0.00    +0.000 OA
ATOM     12  N   UNL     1     -17.813  40.729  -9.124  0.00  0.00    +0.000 N 
ATOM     13  C   UNL     1     -18.774  40.478 -10.100  0.00  0.00    +0.000 C 
ATOM     14  H   UNL     1     -17.110  41.456  -9.162  0.00  0.00    +0.000 HD
ATOM     15  H   UNL     1     -17.786  40.150  -8.290  0.00  0.00    +0.000 HD
ENDBRANCH   4  13
TORSDOF 1
ENDMDL
MODEL 5
REMARK VINA RESULT:    -5.299      2.944      4.272
REMARK INTER + INTRA:          -5.666
REMARK INTER:                  -5.614
REMARK INTRA:                  -0.052
REMARK UNBOUND:                -0.057
REMARK  Name = 21330884
REMARK  1 active torsions:
REMARK  status: ('A' for Active; 'I' for Inactive)
REMARK    1  A    between atoms: C_6  and  C_11
REMARK                            x       y       z     vdW  Elec       q    Type
REMARK                         _______ _______ _______ _____ _____    ______ ____
ROOT
ATOM      1  O   UNL     1     -15.614  44.504 -12.065  0.00  0.00    +0.000 OA
ATOM      2  N   UNL     1     -17.290  42.640 -10.697  0.00  0.00    +0.000 NA
ATOM      3  N   UNL     1     -16.133  42.294 -12.731  0.00  0.00    +0.000 N 
ATOM      4  C   UNL     1     -18.640  40.855  -9.782  0.00  0.00    +0.000 A 
ATOM      5  C   UNL     1     -16.982  41.818 -11.725  0.00  0.00    +0.000 A 
ATOM      6  C   UNL     1     -18.301  40.038 -10.855  0.00  0.00    +0.000 A 
ATOM      7  C   UNL     1     -17.457  40.522 -11.850  0.00  0.00    +0.000 A 
ATOM      8  C   UNL     1     -18.113  42.136  -9.750  0.00  0.00    +0.000 A 
ATOM      9  C   UNL     1     -15.539  43.546 -12.822  0.00  0.00    +0.000 C 
ATOM     10  H   UNL     1     -15.926  41.643 -13.486  0.00  0.00    +0.000 HD
ENDROOT
BRANCH   4  13
ATOM     11  O   UNL     1     -19.233  40.534  -7.526  0.00  0.00    +0.000 OA
ATOM     12  N   UNL     1     -20.706  39.758  -9.103  0.00  0.00    +0.000 N 
ATOM     13  C   UNL     1     -19.519  40.381  -8.728  0.00  0.00    +0.000 C 
ATOM     14  H   UNL     1     -21.014  39.600 -10.054  0.00  0.00    +0.000 HD
ATOM     15  H   UNL     1     -21.342  39.423  -8.386  0.00  0.00    +0.000 HD
ENDBRANCH   4  13
TORSDOF 1
ENDMDL
