MODEL 1
REMARK VINA RESULT:    -6.658      0.000      0.000
REMARK INTER + INTRA:          -6.961
REMARK INTER:                  -7.242
REMARK INTRA:                   0.281
REMARK UNBOUND:                 0.281
REMARK  Name = 21344160
REMARK  4 active torsions:
REMARK  status: ('A' for Active; 'I' for Inactive)
REMARK    1  A    between atoms: N_2  and  C_11
REMARK    2  A    between atoms: N_2  and  C_12
REMARK    3  A    between atoms: N_4  and  N_5
REMARK    4  A    between atoms: C_6  and  C_7
REMARK                            x       y       z     vdW  Elec       q    Type
REMARK                         _______ _______ _______ _____ _____    ______ ____
ROOT
ATOM      1  N   UNL     1     -21.694  40.500  -8.302  0.00  0.00    +0.000 NA
ATOM      2  N   UNL     1     -22.706  41.810  -6.589  0.00  0.00    +0.000 N 
ATOM      3  C   UNL     1     -19.402  40.936  -8.934  0.00  0.00    +0.000 A 
ATOM      4  C   UNL     1     -19.329  41.957  -7.993  0.00  0.00    +0.000 A 
ATOM      5  C   UNL     1     -20.596  40.244  -9.049  0.00  0.00    +0.000 A 
ATOM      6  C   UNL     1     -20.437  42.250  -7.207  0.00  0.00    +0.000 A 
ATOM      7  C   UNL     1     -21.586  41.500  -7.398  0.00  0.00    +0.000 A 
ATOM      8  H   UNL     1     -23.556  41.284  -6.753  0.00  0.00    +0.000 HD
ENDROOT
BRANCH   3  11
ATOM      9  O   UNL     1     -17.219  40.264  -9.195  0.00  0.00    +0.000 OA
ATOM     10  N   UNL     1     -18.392  40.699 -11.170  0.00  0.00    +0.000 N 
ATOM     11  C   UNL     1     -18.247  40.600  -9.782  0.00  0.00    +0.000 C 
ATOM     12  C   UNL     1     -17.258  40.388 -12.030  0.00  0.00    +0.000 C 
ATOM     13  C   UNL     1     -19.617  41.099 -11.858  0.00  0.00    +0.000 C 
ENDBRANCH   3  11
BRANCH   2  14
ATOM     14  N   UNL     1     -22.766  42.971  -5.861  0.00  0.00    +0.000 NA
ATOM     15  H   UNL     1     -23.496  43.564  -6.253  0.00  0.00    +0.000 HD
ATOM     16  H   UNL     1     -21.892  43.480  -5.984  0.00  0.00    +0.000 HD
ENDBRANCH   2  14
TORSDOF 2
ENDMDL
MODEL 2
REMARK VINA RESULT:    -5.895      4.409      5.618
REMARK INTER + INTRA:          -6.131
REMARK INTER:                  -6.125
REMARK INTRA:                  -0.006
REMARK UNBOUND:                 0.281
REMARK  Name = 21344160
REMARK  4 active torsions:
REMARK  status: ('A' for Active; 'I' for Inactive)
REMARK    1  A    between atoms: N_2  and  C_11
REMARK    2  A    between atoms: N_2  and  C_12
REMARK    3  A    between atoms: N_4  and  N_5
REMARK    4  A    between atoms: C_6  and  C_7
REMARK                            x       y       z     vdW  Elec       q    Type
REMARK                         _______ _______ _______ _____ _____    ______ ____
ROOT
ATOM      1  N   UNL     1     -19.221  41.685 -13.524  0.00  0.00    +0.000 NA
ATOM      2  N   UNL     1     -19.577  39.472 -12.719  0.00  0.00    +0.000 N 
ATOM      3  C   UNL     1     -17.965  43.252 -12.177  0.00  0.00    +0.000 A 
ATOM      4  C   UNL     1     -17.793  42.282 -11.195  0.00  0.00    +0.000 A 
ATOM      5  C   UNL     1     -18.680  42.906 -13.312  0.00  0.00    +0.000 A 
ATOM      6  C   UNL     1     -18.334  41.014 -11.377  0.00  0.00    +0.000 A 
ATOM      7  C   UNL     1     -19.033  40.768 -12.548  0.00  0.00    +0.000 A 
ATOM      8  H   UNL     1     -20.117  39.302 -13.558  0.00  0.00    +0.000 HD
ENDROOT
BRANCH   3  11
ATOM      9  O   UNL     1     -18.189  45.479 -11.651  0.00  0.00    +0.000 OA
ATOM     10  N   UNL     1     -16.049  44.797 -12.299  0.00  0.00    +0.000 N 
ATOM     11  C   UNL     1     -17.405  44.603 -12.016  0.00  0.00    +0.000 C 
ATOM     12  C   UNL     1     -15.475  46.128 -12.165  0.00  0.00    +0.000 C 
ATOM     13  C   UNL     1     -15.126  43.750 -12.731  0.00  0.00    +0.000 C 
ENDBRANCH   3  11
BRANCH   2  14
ATOM     14  N   UNL     1     -19.671  38.589 -11.672  0.00  0.00    +0.000 NA
ATOM     15  H   UNL     1     -20.395  38.916 -11.034  0.00  0.00    +0.000 HD
ATOM     16  H   UNL     1     -18.799  38.613 -11.145  0.00  0.00    +0.000 HD
ENDBRANCH   2  14
TORSDOF 2
ENDMDL
MODEL 3
REMARK VINA RESULT:    -5.574      3.945      5.406
REMARK INTER + INTRA:          -5.781
REMARK INTER:                  -5.747
REMARK INTRA:                  -0.034
REMARK UNBOUND:                 0.281
REMARK  Name = 21344160
REMARK  4 active torsions:
REMARK  status: ('A' for Active; 'I' for Inactive)
REMARK    1  A    between atoms: N_2  and  C_11
REMARK    2  A    between atoms: N_2  and  C_12
REMARK    3  A    between atoms: N_4  and  N_5
REMARK    4  A    between atoms: C_6  and  C_7
REMARK                            x       y       z     vdW  Elec       q    Type
REMARK                         _______ _______ _______ _____ _____    ______ ____
ROOT
ATOM      1  N   UNL     1     -18.381  41.668 -10.614  0.00  0.00    +0.000 NA
ATOM      2  N   UNL     1     -19.559  39.617 -10.890  0.00  0.00    +0.000 N 
ATOM      3  C   UNL     1     -17.199  42.624 -12.495  0.00  0.00    +0.000 A 
ATOM      4  C   UNL     1     -17.602  41.561 -13.296  0.00  0.00    +0.000 A 
ATOM      5  C   UNL     1     -17.612  42.631 -11.172  0.00  0.00    +0.000 A 
ATOM      6  C   UNL     1     -18.393  40.553 -12.758  0.00  0.00    +0.000 A 
ATOM      7  C   UNL     1     -18.752  40.652 -11.424  0.00  0.00    +0.000 A 
ATOM      8  H   UNL     1     -19.792  39.672  -9.906  0.00  0.00    +0.000 HD
ENDROOT
BRANCH   3  11
ATOM      9  O   UNL     1     -15.149  43.596 -12.862  0.00  0.00    +0.000 OA
ATOM     10  N   UNL     1     -16.996  44.776 -13.677  0.00  0.00    +0.000 N 
ATOM     11  C   UNL     1     -16.363  43.708 -13.033  0.00  0.00    +0.000 C 
ATOM     12  C   UNL     1     -16.191  45.870 -14.203  0.00  0.00    +0.000 C 
ATOM     13  C   UNL     1     -18.438  44.899 -13.876  0.00  0.00    +0.000 C 
ENDBRANCH   3  11
BRANCH   2  14
ATOM     14  N   UNL     1     -19.739  38.431 -11.556  0.00  0.00    +0.000 NA
ATOM     15  H   UNL     1     -20.085  38.633 -12.493  0.00  0.00    +0.000 HD
ATOM     16  H   UNL     1     -20.476  37.903 -11.091  0.00  0.00    +0.000 HD
ENDBRANCH   2  14
TORSDOF 2
ENDMDL
MODEL 4
REMARK VINA RESULT:    -5.500      4.820      6.119
REMARK INTER + INTRA:          -5.701
REMARK INTER:                  -5.709
REMARK INTRA:                   0.008
REMARK UNBOUND:                 0.281
REMARK  Name = 21344160
REMARK  4 active torsions:
REMARK  status: ('A' for Active; 'I' for Inactive)
REMARK    1  A    between atoms: N_2  and  C_11
REMARK    2  A    between atoms: N_2  and  C_12
REMARK    3  A    between atoms: N_4  and  N_5
REMARK    4  A    between atoms: C_6  and  C_7
REMARK                            x       y       z     vdW  Elec       q    Type
REMARK                         _______ _______ _______ _____ _____    ______ ____
ROOT
ATOM      1  N   UNL     1     -17.178  41.154 -12.641  0.00  0.00    +0.000 NA
ATOM      2  N   UNL     1     -18.353  39.289 -11.740  0.00  0.00    +0.000 N 
ATOM      3  C   UNL     1     -18.416  43.096 -13.380  0.00  0.00    +0.000 A 
ATOM      4  C   UNL     1     -19.610  42.481 -13.018  0.00  0.00    +0.000 A 
ATOM      5  C   UNL     1     -17.238  42.397 -13.173  0.00  0.00    +0.000 A 
ATOM      6  C   UNL     1     -19.588  41.204 -12.468  0.00  0.00    +0.000 A 
ATOM      7  C   UNL     1     -18.358  40.589 -12.302  0.00  0.00    +0.000 A 
ATOM      8  H   UNL     1     -17.457  38.826 -11.651  0.00  0.00    +0.000 HD
ENDROOT
BRANCH   3  11
ATOM      9  O   UNL     1     -18.682  44.527 -15.159  0.00  0.00    +0.000 OA
ATOM     10  N   UNL     1     -18.065  45.522 -13.136  0.00  0.00    +0.000 N 
ATOM     11  C   UNL     1     -18.403  44.446 -13.963  0.00  0.00    +0.000 C 
ATOM     12  C   UNL     1     -18.029  46.867 -13.694  0.00  0.00    +0.000 C 
ATOM     13  C   UNL     1     -17.736  45.417 -11.716  0.00  0.00    +0.000 C 
ENDBRANCH   3  11
BRANCH   2  14
ATOM     14  N   UNL     1     -19.503  38.548 -11.634  0.00  0.00    +0.000 NA
ATOM     15  H   UNL     1     -19.390  37.692 -12.173  0.00  0.00    +0.000 HD
ATOM     16  H   UNL     1     -20.264  39.061 -12.076  0.00  0.00    +0.000 HD
ENDBRANCH   2  14
TORSDOF 2
ENDMDL
MODEL 5
REMARK VINA RESULT:    -5.391      2.179      3.053
REMARK INTER + INTRA:          -5.583
REMARK INTER:                  -5.541
REMARK INTRA:                  -0.042
REMARK UNBOUND:                 0.281
REMARK  Name = 21344160
REMARK  4 active torsions:
REMARK  status: ('A' for Active; 'I' for Inactive)
REMARK    1  A    between atoms: N_2  and  C_11
REMARK    2  A    between atoms: N_2  and  C_12
REMARK    3  A    between atoms: N_4  and  N_5
REMARK    4  A    between atoms: C_6  and  C_7
REMARK                            x       y       z     vdW  Elec       q    Type
REMARK                         _______ _______ _______ _____ _____    ______ ____
ROOT
ATOM      1  N   UNL     1     -19.570  40.073 -10.746  0.00  0.00    +0.000 NA
ATOM      2  N   UNL     1     -21.021  40.075  -8.857  0.00  0.00    +0.000 N 
ATOM      3  C   UNL     1     -17.699  41.603 -10.809  0.00  0.00    +0.000 A 
ATOM      4  C   UNL     1     -18.059  42.106  -9.563  0.00  0.00    +0.000 A 
ATOM      5  C   UNL     1     -18.481  40.596 -11.353  0.00  0.00    +0.000 A 
ATOM      6  C   UNL     1     -19.173  41.593  -8.909  0.00  0.00    +0.000 A 
ATOM      7  C   UNL     1     -19.889  40.587  -9.537  0.00  0.00    +0.000 A 
ATOM      8  H   UNL     1     -21.564  39.364  -9.331  0.00  0.00    +0.000 HD
ENDROOT
BRANCH   3  11
ATOM      9  O   UNL     1     -15.464  41.528 -11.342  0.00  0.00    +0.000 OA
ATOM     10  N   UNL     1     -16.692  43.244 -12.347  0.00  0.00    +0.000 N 
ATOM     11  C   UNL     1     -16.525  42.123 -11.529  0.00  0.00    +0.000 C 
ATOM     12  C   UNL     1     -15.542  43.788 -13.056  0.00  0.00    +0.000 C 
ATOM     13  C   UNL     1     -17.957  43.943 -12.563  0.00  0.00    +0.000 C 
ENDBRANCH   3  11
BRANCH   2  14
ATOM     14  N   UNL     1     -21.565  40.724  -7.777  0.00  0.00    +0.000 NA
ATOM     15  H   UNL     1     -21.666  41.711  -8.008  0.00  0.00    +0.000 HD
ATOM     16  H   UNL     1     -20.903  40.682  -7.003  0.00  0.00    +0.000 HD
ENDBRANCH   2  14
TORSDOF 2
ENDMDL
