MODEL 1
REMARK VINA RESULT:    -7.273      0.000      0.000
REMARK INTER + INTRA:          -9.838
REMARK INTER:                  -9.399
REMARK INTRA:                  -0.440
REMARK UNBOUND:                -0.440
REMARK  Name = 21472602
REMARK  7 active torsions:
REMARK  status: ('A' for Active; 'I' for Inactive)
REMARK    1  A    between atoms: N_2  and  C_6
REMARK    2  A    between atoms: C_5  and  C_9
REMARK    3  A    between atoms: C_5  and  C_13
REMARK    4  A    between atoms: C_6  and  C_10
REMARK    5  A    between atoms: C_7  and  C_8
REMARK    6  A    between atoms: C_7  and  C_14
REMARK    7  A    between atoms: C_11  and  C_12
REMARK                            x       y       z     vdW  Elec       q    Type
REMARK                         _______ _______ _______ _____ _____    ______ ____
ROOT
ATOM      1  O   UNL     1     -17.998  40.226  -9.126  0.00  0.00    +0.000 OA
ATOM      2  N   UNL     1     -19.823  40.059 -10.551  0.00  0.00    +0.000 N 
ATOM      3  C   UNL     1     -19.185  40.429  -9.371  0.00  0.00    +0.000 C 
ATOM      4  H   UNL     1     -20.822  40.198 -10.657  0.00  0.00    +0.000 HD
ENDROOT
BRANCH   3   7
ATOM      5  N   UNL     1     -22.224  41.413  -7.375  0.00  0.00    +0.000 NA
ATOM      6  N   UNL     1     -22.477  42.890  -5.522  0.00  0.00    +0.000 N 
ATOM      7  C   UNL     1     -20.034  41.091  -8.346  0.00  0.00    +0.000 A 
ATOM      8  C   UNL     1     -19.486  41.974  -7.424  0.00  0.00    +0.000 A 
ATOM      9  C   UNL     1     -21.396  40.846  -8.280  0.00  0.00    +0.000 A 
ATOM     10  C   UNL     1     -20.305  42.578  -6.476  0.00  0.00    +0.000 A 
ATOM     11  C   UNL     1     -21.655  42.266  -6.493  0.00  0.00    +0.000 A 
ATOM     12  H   UNL     1     -23.461  42.655  -5.535  0.00  0.00    +0.000 HD
ATOM     13  H   UNL     1     -22.060  43.160  -4.640  0.00  0.00    +0.000 HD
ENDBRANCH   3   7
BRANCH   2  14
ATOM     14  C   UNL     1     -19.143  39.389 -11.623  0.00  0.00    +0.000 C 
BRANCH  14  16
ATOM     15  C   UNL     1     -19.236  41.660 -12.660  0.00  0.00    +0.000 C 
ATOM     16  C   UNL     1     -18.838  40.379 -12.701  0.00  0.00    +0.000 C 
BRANCH  15  17
ATOM     17  C   UNL     1     -18.986  42.690 -13.671  0.00  0.00    +0.000 C 
ATOM     18  C   UNL     1     -19.809  42.764 -14.737  0.00  0.00    +0.000 C 
ATOM     19  C   UNL     1     -17.803  43.600 -13.466  0.00  0.00    +0.000 C 
BRANCH  18  20
ATOM     20  C   UNL     1     -19.768  43.751 -15.870  0.00  0.00    +0.000 C 
ATOM     21  C   UNL     1     -19.954  43.063 -17.213  0.00  0.00    +0.000 C 
ENDBRANCH  18  20
ENDBRANCH  15  17
ENDBRANCH  14  16
ENDBRANCH   2  14
TORSDOF 5
ENDMDL
MODEL 2
REMARK VINA RESULT:    -6.865      1.918      2.412
REMARK INTER + INTRA:          -9.311
REMARK INTER:                  -8.790
REMARK INTRA:                  -0.522
REMARK UNBOUND:                -0.440
REMARK  Name = 21472602
REMARK  7 active torsions:
REMARK  status: ('A' for Active; 'I' for Inactive)
REMARK    1  A    between atoms: N_2  and  C_6
REMARK    2  A    between atoms: C_5  and  C_9
REMARK    3  A    between atoms: C_5  and  C_13
REMARK    4  A    between atoms: C_6  and  C_10
REMARK    5  A    between atoms: C_7  and  C_8
REMARK    6  A    between atoms: C_7  and  C_14
REMARK    7  A    between atoms: C_11  and  C_12
REMARK                            x       y       z     vdW  Elec       q    Type
REMARK                         _______ _______ _______ _____ _____    ______ ____
ROOT
ATOM      1  O   UNL     1     -19.528  39.406 -10.385  0.00  0.00    +0.000 OA
ATOM      2  N   UNL     1     -17.692  40.755  -9.941  0.00  0.00    +0.000 N 
ATOM      3  C   UNL     1     -18.988  40.295  -9.730  0.00  0.00    +0.000 C 
ATOM      4  H   UNL     1     -17.334  41.539  -9.406  0.00  0.00    +0.000 HD
ENDROOT
BRANCH   3   7
ATOM      5  N   UNL     1     -19.767  42.473  -6.758  0.00  0.00    +0.000 NA
ATOM      6  N   UNL     1     -21.809  42.876  -5.597  0.00  0.00    +0.000 N 
ATOM      7  C   UNL     1     -19.753  40.964  -8.647  0.00  0.00    +0.000 A 
ATOM      8  C   UNL     1     -21.115  40.740  -8.488  0.00  0.00    +0.000 A 
ATOM      9  C   UNL     1     -19.131  41.832  -7.763  0.00  0.00    +0.000 A 
ATOM     10  C   UNL     1     -21.806  41.381  -7.465  0.00  0.00    +0.000 A 
ATOM     11  C   UNL     1     -21.092  42.231  -6.635  0.00  0.00    +0.000 A 
ATOM     12  H   UNL     1     -21.284  43.500  -4.996  0.00  0.00    +0.000 HD
ATOM     13  H   UNL     1     -22.795  43.059  -5.734  0.00  0.00    +0.000 HD
ENDBRANCH   3   7
BRANCH   2  14
ATOM     14  C   UNL     1     -16.837  40.226 -10.966  0.00  0.00    +0.000 C 
BRANCH  14  16
ATOM     15  C   UNL     1     -17.132  42.513 -11.929  0.00  0.00    +0.000 C 
ATOM     16  C   UNL     1     -16.589  41.286 -11.990  0.00  0.00    +0.000 C 
BRANCH  15  17
ATOM     17  C   UNL     1     -16.947  43.604 -12.887  0.00  0.00    +0.000 C 
ATOM     18  C   UNL     1     -18.029  44.095 -13.526  0.00  0.00    +0.000 C 
ATOM     19  C   UNL     1     -15.545  44.104 -13.117  0.00  0.00    +0.000 C 
BRANCH  18  20
ATOM     20  C   UNL     1     -18.085  45.226 -14.515  0.00  0.00    +0.000 C 
ATOM     21  C   UNL     1     -18.230  46.568 -13.815  0.00  0.00    +0.000 C 
ENDBRANCH  18  20
ENDBRANCH  15  17
ENDBRANCH  14  16
ENDBRANCH   2  14
TORSDOF 5
ENDMDL
MODEL 3
REMARK VINA RESULT:    -6.063      2.735      3.930
REMARK INTER + INTRA:          -8.275
REMARK INTER:                  -7.783
REMARK INTRA:                  -0.492
REMARK UNBOUND:                -0.440
REMARK  Name = 21472602
REMARK  7 active torsions:
REMARK  status: ('A' for Active; 'I' for Inactive)
REMARK    1  A    between atoms: N_2  and  C_6
REMARK    2  A    between atoms: C_5  and  C_9
REMARK    3  A    between atoms: C_5  and  C_13
REMARK    4  A    between atoms: C_6  and  C_10
REMARK    5  A    between atoms: C_7  and  C_8
REMARK    6  A    between atoms: C_7  and  C_14
REMARK    7  A    between atoms: C_11  and  C_12
REMARK                            x       y       z     vdW  Elec       q    Type
REMARK                         _______ _______ _______ _____ _____    ______ ____
ROOT
ATOM      1  O   UNL     1     -19.496  40.635 -11.307  0.00  0.00    +0.000 OA
ATOM      2  N   UNL     1     -17.463  40.474 -10.198  0.00  0.00    +0.000 N 
ATOM      3  C   UNL     1     -18.828  40.728 -10.279  0.00  0.00    +0.000 C 
ATOM      4  H   UNL     1     -16.962  40.637  -9.331  0.00  0.00    +0.000 HD
ENDROOT
BRANCH   3   7
ATOM      5  N   UNL     1     -19.384  42.431  -6.966  0.00  0.00    +0.000 NA
ATOM      6  N   UNL     1     -21.258  42.432  -5.494  0.00  0.00    +0.000 N 
ATOM      7  C   UNL     1     -19.490  41.164  -9.022  0.00  0.00    +0.000 A 
ATOM      8  C   UNL     1     -20.779  40.749  -8.709  0.00  0.00    +0.000 A 
ATOM      9  C   UNL     1     -18.841  41.997  -8.125  0.00  0.00    +0.000 A 
ATOM     10  C   UNL     1     -21.373  41.173  -7.526  0.00  0.00    +0.000 A 
ATOM     11  C   UNL     1     -20.640  42.007  -6.696  0.00  0.00    +0.000 A 
ATOM     12  H   UNL     1     -20.721  43.045  -4.893  0.00  0.00    +0.000 HD
ATOM     13  H   UNL     1     -22.267  42.500  -5.469  0.00  0.00    +0.000 HD
ENDBRANCH   3   7
BRANCH   2  14
ATOM     14  C   UNL     1     -16.680  40.070 -11.332  0.00  0.00    +0.000 C 
BRANCH  14  16
ATOM     15  C   UNL     1     -15.817  42.414 -11.390  0.00  0.00    +0.000 C 
ATOM     16  C   UNL     1     -16.169  41.288 -12.031  0.00  0.00    +0.000 C 
BRANCH  15  17
ATOM     17  C   UNL     1     -15.314  43.649 -11.995  0.00  0.00    +0.000 C 
ATOM     18  C   UNL     1     -14.266  44.273 -11.417  0.00  0.00    +0.000 C 
ATOM     19  C   UNL     1     -16.014  44.162 -13.226  0.00  0.00    +0.000 C 
BRANCH  18  20
ATOM     20  C   UNL     1     -13.565  45.520 -11.877  0.00  0.00    +0.000 C 
ATOM     21  C   UNL     1     -14.164  46.762 -11.237  0.00  0.00    +0.000 C 
ENDBRANCH  18  20
ENDBRANCH  15  17
ENDBRANCH  14  16
ENDBRANCH   2  14
TORSDOF 5
ENDMDL
MODEL 4
REMARK VINA RESULT:    -5.770      5.878      7.729
REMARK INTER + INTRA:          -7.897
REMARK INTER:                  -7.490
REMARK INTRA:                  -0.407
REMARK UNBOUND:                -0.440
REMARK  Name = 21472602
REMARK  7 active torsions:
REMARK  status: ('A' for Active; 'I' for Inactive)
REMARK    1  A    between atoms: N_2  and  C_6
REMARK    2  A    between atoms: C_5  and  C_9
REMARK    3  A    between atoms: C_5  and  C_13
REMARK    4  A    between atoms: C_6  and  C_10
REMARK    5  A    between atoms: C_7  and  C_8
REMARK    6  A    between atoms: C_7  and  C_14
REMARK    7  A    between atoms: C_11  and  C_12
REMARK                            x       y       z     vdW  Elec       q    Type
REMARK                         _______ _______ _______ _____ _____    ______ ____
ROOT
ATOM      1  O   UNL     1     -16.132  43.938 -11.789  0.00  0.00    +0.000 OA
ATOM      2  N   UNL     1     -14.628  42.248 -11.271  0.00  0.00    +0.000 N 
ATOM      3  C   UNL     1     -15.873  42.746 -11.640  0.00  0.00    +0.000 C 
ATOM      4  H   UNL     1     -14.504  41.255 -11.100  0.00  0.00    +0.000 HD
ENDROOT
BRANCH   3   7
ATOM      5  N   UNL     1     -18.763  40.895 -13.193  0.00  0.00    +0.000 NA
ATOM      6  N   UNL     1     -19.975  38.978 -12.464  0.00  0.00    +0.000 N 
ATOM      7  C   UNL     1     -16.950  41.741 -11.835  0.00  0.00    +0.000 A 
ATOM      8  C   UNL     1     -17.168  40.734 -10.903  0.00  0.00    +0.000 A 
ATOM      9  C   UNL     1     -17.768  41.778 -12.953  0.00  0.00    +0.000 A 
ATOM     10  C   UNL     1     -18.182  39.806 -11.113  0.00  0.00    +0.000 A 
ATOM     11  C   UNL     1     -18.945  39.930 -12.264  0.00  0.00    +0.000 A 
ATOM     12  H   UNL     1     -20.526  39.068 -13.308  0.00  0.00    +0.000 HD
ATOM     13  H   UNL     1     -19.865  38.056 -12.060  0.00  0.00    +0.000 HD
ENDBRANCH   3   7
BRANCH   2  14
ATOM     14  C   UNL     1     -13.496  43.095 -11.022  0.00  0.00    +0.000 C 
BRANCH  14  16
ATOM     15  C   UNL     1     -11.947  41.175 -10.628  0.00  0.00    +0.000 C 
ATOM     16  C   UNL     1     -12.242  42.319 -11.266  0.00  0.00    +0.000 C 
BRANCH  15  17
ATOM     17  C   UNL     1     -10.744  40.358 -10.803  0.00  0.00    +0.000 C 
ATOM     18  C   UNL     1     -10.625  39.614 -11.923  0.00  0.00    +0.000 C 
ATOM     19  C   UNL     1      -9.714  40.382  -9.705  0.00  0.00    +0.000 C 
BRANCH  18  20
ATOM     20  C   UNL     1      -9.475  38.735 -12.330  0.00  0.00    +0.000 C 
ATOM     21  C   UNL     1      -8.707  39.333 -13.498  0.00  0.00    +0.000 C 
ENDBRANCH  18  20
ENDBRANCH  15  17
ENDBRANCH  14  16
ENDBRANCH   2  14
TORSDOF 5
ENDMDL
MODEL 5
REMARK VINA RESULT:    -5.737      3.879      8.089
REMARK INTER + INTRA:          -7.854
REMARK INTER:                  -8.324
REMARK INTRA:                   0.470
REMARK UNBOUND:                -0.440
REMARK  Name = 21472602
REMARK  7 active torsions:
REMARK  status: ('A' for Active; 'I' for Inactive)
REMARK    1  A    between atoms: N_2  and  C_6
REMARK    2  A    between atoms: C_5  and  C_9
REMARK    3  A    between atoms: C_5  and  C_13
REMARK    4  A    between atoms: C_6  and  C_10
REMARK    5  A    between atoms: C_7  and  C_8
REMARK    6  A    between atoms: C_7  and  C_14
REMARK    7  A    between atoms: C_11  and  C_12
REMARK                            x       y       z     vdW  Elec       q    Type
REMARK                         _______ _______ _______ _____ _____    ______ ____
ROOT
ATOM      1  O   UNL     1     -19.566  41.938 -14.295  0.00  0.00    +0.000 OA
ATOM      2  N   UNL     1     -18.109  43.738 -14.138  0.00  0.00    +0.000 N 
ATOM      3  C   UNL     1     -19.204  43.055 -14.658  0.00  0.00    +0.000 C 
ATOM      4  H   UNL     1     -17.828  44.630 -14.532  0.00  0.00    +0.000 HD
ENDROOT
BRANCH   3   7
ATOM      5  N   UNL     1     -20.104  45.591 -17.293  0.00  0.00    +0.000 NA
ATOM      6  N   UNL     1     -21.965  45.725 -18.776  0.00  0.00    +0.000 N 
ATOM      7  C   UNL     1     -19.951  43.742 -15.743  0.00  0.00    +0.000 A 
ATOM      8  C   UNL     1     -21.147  43.227 -16.228  0.00  0.00    +0.000 A 
ATOM      9  C   UNL     1     -19.476  44.917 -16.304  0.00  0.00    +0.000 A 
ATOM     10  C   UNL     1     -21.823  43.891 -17.245  0.00  0.00    +0.000 A 
ATOM     11  C   UNL     1     -21.264  45.059 -17.740  0.00  0.00    +0.000 A 
ATOM     12  H   UNL     1     -21.550  46.575 -19.137  0.00  0.00    +0.000 HD
ATOM     13  H   UNL     1     -22.547  45.175 -19.394  0.00  0.00    +0.000 HD
ENDBRANCH   3   7
BRANCH   2  14
ATOM     14  C   UNL     1     -17.275  43.195 -13.103  0.00  0.00    +0.000 C 
BRANCH  14  16
ATOM     15  C   UNL     1     -17.844  42.125 -10.918  0.00  0.00    +0.000 C 
ATOM     16  C   UNL     1     -18.102  42.315 -12.222  0.00  0.00    +0.000 C 
BRANCH  15  17
ATOM     17  C   UNL     1     -18.596  41.280  -9.988  0.00  0.00    +0.000 C 
ATOM     18  C   UNL     1     -18.682  41.657  -8.696  0.00  0.00    +0.000 C 
ATOM     19  C   UNL     1     -19.218  40.020 -10.532  0.00  0.00    +0.000 C 
BRANCH  18  20
ATOM     20  C   UNL     1     -19.423  40.975  -7.581  0.00  0.00    +0.000 C 
ATOM     21  C   UNL     1     -20.265  41.961  -6.788  0.00  0.00    +0.000 C 
ENDBRANCH  18  20
ENDBRANCH  15  17
ENDBRANCH  14  16
ENDBRANCH   2  14
TORSDOF 5
ENDMDL
