MODEL 1
REMARK VINA RESULT:    -6.234      0.000      0.000
REMARK INTER + INTRA:          -9.689
REMARK INTER:                  -8.784
REMARK INTRA:                  -0.905
REMARK UNBOUND:                -0.905
REMARK  Name = 21521594
REMARK  9 active torsions:
REMARK  status: ('A' for Active; 'I' for Inactive)
REMARK    1  A    between atoms: N_2  and  C_6
REMARK    2  A    between atoms: N_2  and  C_8
REMARK    3  A    between atoms: N_2  and  C_9
REMARK    4  A    between atoms: N_3  and  C_10
REMARK    5  A    between atoms: C_6  and  C_7
REMARK    6  A    between atoms: C_7  and  C_10
REMARK    7  A    between atoms: C_8  and  C_11
REMARK    8  A    between atoms: C_9  and  C_12
REMARK    9  A    between atoms: C_13  and  C_14
REMARK                            x       y       z     vdW  Elec       q    Type
REMARK                         _______ _______ _______ _____ _____    ______ ____
ROOT
ATOM      1  O   UNL     1     -19.535  39.211 -10.723  0.00  0.00    +0.000 OA
ATOM      2  N   UNL     1     -17.602  40.449 -10.394  0.00  0.00    +0.000 N 
ATOM      3  C   UNL     1     -18.906  40.065 -10.105  0.00  0.00    +0.000 C 
ATOM      4  H   UNL     1     -17.116  41.109  -9.795  0.00  0.00    +0.000 HD
ENDROOT
BRANCH   3   7
ATOM      5  N   UNL     1     -19.365  42.284  -7.136  0.00  0.00    +0.000 NA
ATOM      6  N   UNL     1     -21.299  42.782  -5.835  0.00  0.00    +0.000 N 
ATOM      7  C   UNL     1     -19.563  40.774  -8.977  0.00  0.00    +0.000 A 
ATOM      8  C   UNL     1     -20.905  40.593  -8.744  0.00  0.00    +0.000 A 
ATOM      9  C   UNL     1     -18.830  41.608  -8.176  0.00  0.00    +0.000 A 
ATOM     10  C   UNL     1     -21.492  41.271  -7.682  0.00  0.00    +0.000 A 
ATOM     11  C   UNL     1     -20.686  42.098  -6.915  0.00  0.00    +0.000 A 
ATOM     12  H   UNL     1     -22.285  43.004  -5.904  0.00  0.00    +0.000 HD
ATOM     13  H   UNL     1     -20.708  43.390  -5.283  0.00  0.00    +0.000 HD
ENDBRANCH   3   7
BRANCH   2  14
ATOM     14  C   UNL     1     -16.842  39.873 -11.469  0.00  0.00    +0.000 C 
BRANCH  14  15
ATOM     15  C   UNL     1     -16.486  40.894 -12.547  0.00  0.00    +0.000 C 
BRANCH  15  16
ATOM     16  C   UNL     1     -16.336  42.330 -12.034  0.00  0.00    +0.000 C 
BRANCH  16  17
ATOM     17  N   UNL     1     -17.498  43.149 -12.359  0.00  0.00    +0.000 NA
BRANCH  17  18
ATOM     18  C   UNL     1     -17.100  44.536 -12.601  0.00  0.00    +0.000 C 
ATOM     19  C   UNL     1     -18.064  45.510 -11.956  0.00  0.00    +0.000 C 
ENDBRANCH  17  18
BRANCH  17  20
ATOM     20  C   UNL     1     -18.198  42.610 -13.527  0.00  0.00    +0.000 C 
ATOM     21  C   UNL     1     -19.644  42.293 -13.208  0.00  0.00    +0.000 C 
ENDBRANCH  17  20
ENDBRANCH  16  17
ENDBRANCH  15  16
ENDBRANCH  14  15
ENDBRANCH   2  14
TORSDOF 7
ENDMDL
MODEL 2
REMARK VINA RESULT:    -5.351      3.292      6.836
REMARK INTER + INTRA:          -8.446
REMARK INTER:                  -7.779
REMARK INTRA:                  -0.667
REMARK UNBOUND:                -0.905
REMARK  Name = 21521594
REMARK  9 active torsions:
REMARK  status: ('A' for Active; 'I' for Inactive)
REMARK    1  A    between atoms: N_2  and  C_6
REMARK    2  A    between atoms: N_2  and  C_8
REMARK    3  A    between atoms: N_2  and  C_9
REMARK    4  A    between atoms: N_3  and  C_10
REMARK    5  A    between atoms: C_6  and  C_7
REMARK    6  A    between atoms: C_7  and  C_10
REMARK    7  A    between atoms: C_8  and  C_11
REMARK    8  A    between atoms: C_9  and  C_12
REMARK    9  A    between atoms: C_13  and  C_14
REMARK                            x       y       z     vdW  Elec       q    Type
REMARK                         _______ _______ _______ _____ _____    ______ ____
ROOT
ATOM      1  O   UNL     1     -18.009  45.789 -13.317  0.00  0.00    +0.000 OA
ATOM      2  N   UNL     1     -18.072  43.586 -12.593  0.00  0.00    +0.000 N 
ATOM      3  C   UNL     1     -18.311  44.613 -13.499  0.00  0.00    +0.000 C 
ATOM      4  H   UNL     1     -18.281  42.624 -12.839  0.00  0.00    +0.000 HD
ENDROOT
BRANCH   3   7
ATOM      5  N   UNL     1     -20.189  42.564 -15.994  0.00  0.00    +0.000 NA
ATOM      6  N   UNL     1     -20.946  43.080 -18.194  0.00  0.00    +0.000 N 
ATOM      7  C   UNL     1     -19.005  44.228 -14.755  0.00  0.00    +0.000 A 
ATOM      8  C   UNL     1     -19.105  45.132 -15.785  0.00  0.00    +0.000 A 
ATOM      9  C   UNL     1     -19.544  42.976 -14.881  0.00  0.00    +0.000 A 
ATOM     10  C   UNL     1     -19.761  44.744 -16.948  0.00  0.00    +0.000 A 
ATOM     11  C   UNL     1     -20.281  43.461 -17.002  0.00  0.00    +0.000 A 
ATOM     12  H   UNL     1     -21.393  43.801 -18.748  0.00  0.00    +0.000 HD
ATOM     13  H   UNL     1     -21.330  42.144 -18.226  0.00  0.00    +0.000 HD
ENDBRANCH   3   7
BRANCH   2  14
ATOM     14  C   UNL     1     -17.432  43.803 -11.324  0.00  0.00    +0.000 C 
BRANCH  14  15
ATOM     15  C   UNL     1     -17.653  42.647 -10.351  0.00  0.00    +0.000 C 
BRANCH  15  16
ATOM     16  C   UNL     1     -17.404  41.259 -10.951  0.00  0.00    +0.000 C 
BRANCH  16  17
ATOM     17  N   UNL     1     -18.083  40.211 -10.199  0.00  0.00    +0.000 NA
BRANCH  17  18
ATOM     18  C   UNL     1     -18.583  40.731  -8.925  0.00  0.00    +0.000 C 
ATOM     19  C   UNL     1     -19.980  40.226  -8.631  0.00  0.00    +0.000 C 
ENDBRANCH  17  18
BRANCH  17  20
ATOM     20  C   UNL     1     -19.182  39.643 -10.982  0.00  0.00    +0.000 C 
ATOM     21  C   UNL     1     -18.984  39.878 -12.465  0.00  0.00    +0.000 C 
ENDBRANCH  17  20
ENDBRANCH  16  17
ENDBRANCH  15  16
ENDBRANCH  14  15
ENDBRANCH   2  14
TORSDOF 7
ENDMDL
MODEL 3
REMARK VINA RESULT:    -5.251      1.366      2.116
REMARK INTER + INTRA:          -8.304
REMARK INTER:                  -7.712
REMARK INTRA:                  -0.592
REMARK UNBOUND:                -0.905
REMARK  Name = 21521594
REMARK  9 active torsions:
REMARK  status: ('A' for Active; 'I' for Inactive)
REMARK    1  A    between atoms: N_2  and  C_6
REMARK    2  A    between atoms: N_2  and  C_8
REMARK    3  A    between atoms: N_2  and  C_9
REMARK    4  A    between atoms: N_3  and  C_10
REMARK    5  A    between atoms: C_6  and  C_7
REMARK    6  A    between atoms: C_7  and  C_10
REMARK    7  A    between atoms: C_8  and  C_11
REMARK    8  A    between atoms: C_9  and  C_12
REMARK    9  A    between atoms: C_13  and  C_14
REMARK                            x       y       z     vdW  Elec       q    Type
REMARK                         _______ _______ _______ _____ _____    ______ ____
ROOT
ATOM      1  O   UNL     1     -17.794  39.760 -10.577  0.00  0.00    +0.000 OA
ATOM      2  N   UNL     1     -18.527  41.712 -11.592  0.00  0.00    +0.000 N 
ATOM      3  C   UNL     1     -18.423  40.814 -10.537  0.00  0.00    +0.000 C 
ATOM      4  H   UNL     1     -19.002  42.600 -11.467  0.00  0.00    +0.000 HD
ENDROOT
BRANCH   3   7
ATOM      5  N   UNL     1     -19.204  42.399  -7.247  0.00  0.00    +0.000 NA
ATOM      6  N   UNL     1     -21.119  42.226  -5.839  0.00  0.00    +0.000 N 
ATOM      7  C   UNL     1     -19.158  41.173  -9.297  0.00  0.00    +0.000 A 
ATOM      8  C   UNL     1     -20.405  40.646  -9.063  0.00  0.00    +0.000 A 
ATOM      9  C   UNL     1     -18.590  42.030  -8.392  0.00  0.00    +0.000 A 
ATOM     10  C   UNL     1     -21.068  41.001  -7.895  0.00  0.00    +0.000 A 
ATOM     11  C   UNL     1     -20.431  41.874  -7.027  0.00  0.00    +0.000 A 
ATOM     12  H   UNL     1     -22.132  42.216  -5.849  0.00  0.00    +0.000 HD
ATOM     13  H   UNL     1     -20.653  42.869  -5.212  0.00  0.00    +0.000 HD
ENDBRANCH   3   7
BRANCH   2  14
ATOM     14  C   UNL     1     -17.894  41.494 -12.864  0.00  0.00    +0.000 C 
BRANCH  14  15
ATOM     15  C   UNL     1     -16.959  42.636 -13.257  0.00  0.00    +0.000 C 
BRANCH  15  16
ATOM     16  C   UNL     1     -16.735  43.678 -12.157  0.00  0.00    +0.000 C 
BRANCH  16  17
ATOM     17  N   UNL     1     -16.289  44.955 -12.698  0.00  0.00    +0.000 NA
BRANCH  17  18
ATOM     18  C   UNL     1     -16.935  45.225 -13.984  0.00  0.00    +0.000 C 
ATOM     19  C   UNL     1     -16.039  46.039 -14.894  0.00  0.00    +0.000 C 
ENDBRANCH  17  18
BRANCH  17  20
ATOM     20  C   UNL     1     -16.564  46.040 -11.754  0.00  0.00    +0.000 C 
ATOM     21  C   UNL     1     -18.048  46.326 -11.656  0.00  0.00    +0.000 C 
ENDBRANCH  17  20
ENDBRANCH  16  17
ENDBRANCH  15  16
ENDBRANCH  14  15
ENDBRANCH   2  14
TORSDOF 7
ENDMDL
MODEL 4
REMARK VINA RESULT:    -5.176      4.120      5.435
REMARK INTER + INTRA:          -8.199
REMARK INTER:                  -7.800
REMARK INTRA:                  -0.399
REMARK UNBOUND:                -0.905
REMARK  Name = 21521594
REMARK  9 active torsions:
REMARK  status: ('A' for Active; 'I' for Inactive)
REMARK    1  A    between atoms: N_2  and  C_6
REMARK    2  A    between atoms: N_2  and  C_8
REMARK    3  A    between atoms: N_2  and  C_9
REMARK    4  A    between atoms: N_3  and  C_10
REMARK    5  A    between atoms: C_6  and  C_7
REMARK    6  A    between atoms: C_7  and  C_10
REMARK    7  A    between atoms: C_8  and  C_11
REMARK    8  A    between atoms: C_9  and  C_12
REMARK    9  A    between atoms: C_13  and  C_14
REMARK                            x       y       z     vdW  Elec       q    Type
REMARK                         _______ _______ _______ _____ _____    ______ ____
ROOT
ATOM      1  O   UNL     1     -17.417  43.120 -13.423  0.00  0.00    +0.000 OA
ATOM      2  N   UNL     1     -19.582  42.493 -13.971  0.00  0.00    +0.000 N 
ATOM      3  C   UNL     1     -18.484  42.589 -13.125  0.00  0.00    +0.000 C 
ATOM      4  H   UNL     1     -20.458  42.106 -13.634  0.00  0.00    +0.000 HD
ENDROOT
BRANCH   3   7
ATOM      5  N   UNL     1     -19.710  40.344 -10.403  0.00  0.00    +0.000 NA
ATOM      6  N   UNL     1     -19.122  40.210  -8.098  0.00  0.00    +0.000 N 
ATOM      7  C   UNL     1     -18.637  41.974 -11.781  0.00  0.00    +0.000 A 
ATOM      8  C   UNL     1     -17.885  42.436 -10.728  0.00  0.00    +0.000 A 
ATOM      9  C   UNL     1     -19.524  40.948 -11.598  0.00  0.00    +0.000 A 
ATOM     10  C   UNL     1     -18.049  41.840  -9.483  0.00  0.00    +0.000 A 
ATOM     11  C   UNL     1     -18.966  40.806  -9.374  0.00  0.00    +0.000 A 
ATOM     12  H   UNL     1     -18.333  40.219  -7.462  0.00  0.00    +0.000 HD
ATOM     13  H   UNL     1     -19.788  39.451  -8.025  0.00  0.00    +0.000 HD
ENDBRANCH   3   7
BRANCH   2  14
ATOM     14  C   UNL     1     -19.581  43.017 -15.309  0.00  0.00    +0.000 C 
BRANCH  14  15
ATOM     15  C   UNL     1     -20.989  43.184 -15.875  0.00  0.00    +0.000 C 
BRANCH  15  16
ATOM     16  C   UNL     1     -21.113  42.860 -17.367  0.00  0.00    +0.000 C 
BRANCH  16  17
ATOM     17  N   UNL     1     -21.837  43.898 -18.092  0.00  0.00    +0.000 NA
BRANCH  17  18
ATOM     18  C   UNL     1     -22.247  44.970 -17.184  0.00  0.00    +0.000 C 
ATOM     19  C   UNL     1     -23.748  45.170 -17.204  0.00  0.00    +0.000 C 
ENDBRANCH  17  18
BRANCH  17  20
ATOM     20  C   UNL     1     -21.015  44.437 -19.177  0.00  0.00    +0.000 C 
ATOM     21  C   UNL     1     -20.801  45.928 -19.021  0.00  0.00    +0.000 C 
ENDBRANCH  17  20
ENDBRANCH  16  17
ENDBRANCH  15  16
ENDBRANCH  14  15
ENDBRANCH   2  14
TORSDOF 7
ENDMDL
MODEL 5
REMARK VINA RESULT:    -5.031      3.918      5.940
REMARK INTER + INTRA:          -7.995
REMARK INTER:                  -7.061
REMARK INTRA:                  -0.933
REMARK UNBOUND:                -0.905
REMARK  Name = 21521594
REMARK  9 active torsions:
REMARK  status: ('A' for Active; 'I' for Inactive)
REMARK    1  A    between atoms: N_2  and  C_6
REMARK    2  A    between atoms: N_2  and  C_8
REMARK    3  A    between atoms: N_2  and  C_9
REMARK    4  A    between atoms: N_3  and  C_10
REMARK    5  A    between atoms: C_6  and  C_7
REMARK    6  A    between atoms: C_7  and  C_10
REMARK    7  A    between atoms: C_8  and  C_11
REMARK    8  A    between atoms: C_9  and  C_12
REMARK    9  A    between atoms: C_13  and  C_14
REMARK                            x       y       z     vdW  Elec       q    Type
REMARK                         _______ _______ _______ _____ _____    ______ ____
ROOT
ATOM      1  O   UNL     1     -16.886  44.918 -13.015  0.00  0.00    +0.000 OA
ATOM      2  N   UNL     1     -18.447  44.579 -14.697  0.00  0.00    +0.000 N 
ATOM      3  C   UNL     1     -17.809  44.271 -13.501  0.00  0.00    +0.000 C 
ATOM      4  H   UNL     1     -19.253  44.043 -15.003  0.00  0.00    +0.000 HD
ENDROOT
BRANCH   3   7
ATOM      5  N   UNL     1     -19.638  41.081 -12.841  0.00  0.00    +0.000 NA
ATOM      6  N   UNL     1     -19.663  39.655 -10.933  0.00  0.00    +0.000 N 
ATOM      7  C   UNL     1     -18.288  43.052 -12.799  0.00  0.00    +0.000 A 
ATOM      8  C   UNL     1     -17.847  42.778 -11.527  0.00  0.00    +0.000 A 
ATOM      9  C   UNL     1     -19.165  42.206 -13.423  0.00  0.00    +0.000 A 
ATOM     10  C   UNL     1     -18.312  41.630 -10.895  0.00  0.00    +0.000 A 
ATOM     11  C   UNL     1     -19.198  40.821 -11.590  0.00  0.00    +0.000 A 
ATOM     12  H   UNL     1     -19.066  39.224 -10.237  0.00  0.00    +0.000 HD
ATOM     13  H   UNL     1     -20.304  39.064 -11.446  0.00  0.00    +0.000 HD
ENDBRANCH   3   7
BRANCH   2  14
ATOM     14  C   UNL     1     -18.081  45.711 -15.503  0.00  0.00    +0.000 C 
BRANCH  14  15
ATOM     15  C   UNL     1     -19.291  46.393 -16.138  0.00  0.00    +0.000 C 
BRANCH  15  16
ATOM     16  C   UNL     1     -20.207  45.452 -16.927  0.00  0.00    +0.000 C 
BRANCH  16  17
ATOM     17  N   UNL     1     -19.483  44.301 -17.452  0.00  0.00    +0.000 NA
BRANCH  17  18
ATOM     18  C   UNL     1     -20.248  43.071 -17.244  0.00  0.00    +0.000 C 
ATOM     19  C   UNL     1     -21.443  43.307 -16.344  0.00  0.00    +0.000 C 
ENDBRANCH  17  18
BRANCH  17  20
ATOM     20  C   UNL     1     -19.190  44.482 -18.876  0.00  0.00    +0.000 C 
ATOM     21  C   UNL     1     -20.446  44.786 -19.665  0.00  0.00    +0.000 C 
ENDBRANCH  17  20
ENDBRANCH  16  17
ENDBRANCH  15  16
ENDBRANCH  14  15
ENDBRANCH   2  14
TORSDOF 7
ENDMDL
