MODEL 1
REMARK VINA RESULT:    -7.873      0.000      0.000
REMARK INTER + INTRA:         -10.166
REMARK INTER:                  -9.714
REMARK INTRA:                  -0.451
REMARK UNBOUND:                -0.451
REMARK  Name = 21521575
REMARK  5 active torsions:
REMARK  status: ('A' for Active; 'I' for Inactive)
REMARK    1  A    between atoms: N_2  and  C_11
REMARK    2  A    between atoms: N_3  and  C_10
REMARK    3  A    between atoms: C_6  and  C_10
REMARK    4  A    between atoms: C_11  and  C_12
REMARK    5  A    between atoms: C_13  and  C_14
REMARK                            x       y       z     vdW  Elec       q    Type
REMARK                         _______ _______ _______ _____ _____    ______ ____
ROOT
ATOM      1  O   UNL     1     -17.992  40.338  -9.202  0.00  0.00    +0.000 OA
ATOM      2  N   UNL     1     -19.876  39.849 -10.466  0.00  0.00    +0.000 N 
ATOM      3  C   UNL     1     -19.206  40.404  -9.379  0.00  0.00    +0.000 C 
ATOM      4  H   UNL     1     -20.887  39.890 -10.519  0.00  0.00    +0.000 HD
ENDROOT
BRANCH   3   7
ATOM      5  N   UNL     1     -22.241  41.473  -7.421  0.00  0.00    +0.000 NA
ATOM      6  N   UNL     1     -22.480  42.980  -5.592  0.00  0.00    +0.000 N 
ATOM      7  C   UNL     1     -20.050  41.095  -8.371  0.00  0.00    +0.000 A 
ATOM      8  C   UNL     1     -19.493  41.982  -7.456  0.00  0.00    +0.000 A 
ATOM      9  C   UNL     1     -21.417  40.878  -8.312  0.00  0.00    +0.000 A 
ATOM     10  C   UNL     1     -20.308  42.614  -6.524  0.00  0.00    +0.000 A 
ATOM     11  C   UNL     1     -21.663  42.328  -6.548  0.00  0.00    +0.000 A 
ATOM     12  H   UNL     1     -22.065  43.255  -4.709  0.00  0.00    +0.000 HD
ATOM     13  H   UNL     1     -23.469  42.764  -5.608  0.00  0.00    +0.000 HD
ENDBRANCH   3   7
BRANCH   2  14
ATOM     14  C   UNL     1     -19.203  39.130 -11.508  0.00  0.00    +0.000 C 
BRANCH  14  16
ATOM     15  N   UNL     1     -18.531  42.214 -13.412  0.00  0.00    +0.000 NA
ATOM     16  C   UNL     1     -18.830  40.048 -12.660  0.00  0.00    +0.000 C 
ATOM     17  C   UNL     1     -17.323  40.278 -12.795  0.00  0.00    +0.000 C 
ATOM     18  C   UNL     1     -19.404  41.454 -12.517  0.00  0.00    +0.000 C 
ATOM     19  C   UNL     1     -17.172  41.768 -13.099  0.00  0.00    +0.000 C 
BRANCH  15  20
ATOM     20  C   UNL     1     -18.694  43.653 -13.259  0.00  0.00    +0.000 C 
ATOM     21  C   UNL     1     -17.944  44.171 -12.050  0.00  0.00    +0.000 C 
ENDBRANCH  15  20
ENDBRANCH  14  16
ENDBRANCH   2  14
TORSDOF 4
ENDMDL
MODEL 2
REMARK VINA RESULT:    -7.374      1.462      2.072
REMARK INTER + INTRA:          -9.549
REMARK INTER:                  -9.029
REMARK INTRA:                  -0.520
REMARK UNBOUND:                -0.451
REMARK  Name = 21521575
REMARK  5 active torsions:
REMARK  status: ('A' for Active; 'I' for Inactive)
REMARK    1  A    between atoms: N_2  and  C_11
REMARK    2  A    between atoms: N_3  and  C_10
REMARK    3  A    between atoms: C_6  and  C_10
REMARK    4  A    between atoms: C_11  and  C_12
REMARK    5  A    between atoms: C_13  and  C_14
REMARK                            x       y       z     vdW  Elec       q    Type
REMARK                         _______ _______ _______ _____ _____    ______ ____
ROOT
ATOM      1  O   UNL     1     -19.517  39.363 -10.485  0.00  0.00    +0.000 OA
ATOM      2  N   UNL     1     -17.652  40.682 -10.078  0.00  0.00    +0.000 N 
ATOM      3  C   UNL     1     -18.950  40.240  -9.838  0.00  0.00    +0.000 C 
ATOM      4  H   UNL     1     -17.266  41.451  -9.542  0.00  0.00    +0.000 HD
ENDROOT
BRANCH   3   7
ATOM      5  N   UNL     1     -19.621  42.385  -6.815  0.00  0.00    +0.000 NA
ATOM      6  N   UNL     1     -21.632  42.829  -5.618  0.00  0.00    +0.000 N 
ATOM      7  C   UNL     1     -19.679  40.912  -8.732  0.00  0.00    +0.000 A 
ATOM      8  C   UNL     1     -21.046  40.727  -8.557  0.00  0.00    +0.000 A 
ATOM      9  C   UNL     1     -19.018  41.744  -7.841  0.00  0.00    +0.000 A 
ATOM     10  C   UNL     1     -21.701  41.370  -7.513  0.00  0.00    +0.000 A 
ATOM     11  C   UNL     1     -20.950  42.181  -6.678  0.00  0.00    +0.000 A 
ATOM     12  H   UNL     1     -22.615  43.045  -5.739  0.00  0.00    +0.000 HD
ATOM     13  H   UNL     1     -21.081  43.426  -5.014  0.00  0.00    +0.000 HD
ENDBRANCH   3   7
BRANCH   2  14
ATOM     14  C   UNL     1     -16.831  40.148 -11.125  0.00  0.00    +0.000 C 
BRANCH  14  16
ATOM     15  N   UNL     1     -17.421  42.916 -13.488  0.00  0.00    +0.000 NA
ATOM     16  C   UNL     1     -16.579  41.183 -12.210  0.00  0.00    +0.000 C 
ATOM     17  C   UNL     1     -15.956  42.478 -11.686  0.00  0.00    +0.000 C 
ATOM     18  C   UNL     1     -17.855  41.645 -12.905  0.00  0.00    +0.000 C 
ATOM     19  C   UNL     1     -16.687  43.600 -12.422  0.00  0.00    +0.000 C 
BRANCH  15  20
ATOM     20  C   UNL     1     -18.535  43.705 -13.993  0.00  0.00    +0.000 C 
ATOM     21  C   UNL     1     -19.743  42.839 -14.284  0.00  0.00    +0.000 C 
ENDBRANCH  15  20
ENDBRANCH  14  16
ENDBRANCH   2  14
TORSDOF 4
ENDMDL
MODEL 3
REMARK VINA RESULT:    -6.801      1.758      6.262
REMARK INTER + INTRA:          -8.842
REMARK INTER:                  -8.422
REMARK INTRA:                  -0.420
REMARK UNBOUND:                -0.451
REMARK  Name = 21521575
REMARK  5 active torsions:
REMARK  status: ('A' for Active; 'I' for Inactive)
REMARK    1  A    between atoms: N_2  and  C_11
REMARK    2  A    between atoms: N_3  and  C_10
REMARK    3  A    between atoms: C_6  and  C_10
REMARK    4  A    between atoms: C_11  and  C_12
REMARK    5  A    between atoms: C_13  and  C_14
REMARK                            x       y       z     vdW  Elec       q    Type
REMARK                         _______ _______ _______ _____ _____    ______ ____
ROOT
ATOM      1  O   UNL     1     -16.397  42.323 -11.231  0.00  0.00    +0.000 OA
ATOM      2  N   UNL     1     -18.415  41.455 -10.483  0.00  0.00    +0.000 N 
ATOM      3  C   UNL     1     -17.602  42.140 -11.383  0.00  0.00    +0.000 C 
ATOM      4  H   UNL     1     -19.414  41.391 -10.643  0.00  0.00    +0.000 HD
ENDROOT
BRANCH   3   7
ATOM      5  N   UNL     1     -19.906  42.422 -14.349  0.00  0.00    +0.000 NA
ATOM      6  N   UNL     1     -20.206  44.163 -15.946  0.00  0.00    +0.000 N 
ATOM      7  C   UNL     1     -18.275  42.694 -12.585  0.00  0.00    +0.000 A 
ATOM      8  C   UNL     1     -17.941  43.950 -13.078  0.00  0.00    +0.000 A 
ATOM      9  C   UNL     1     -19.255  41.976 -13.251  0.00  0.00    +0.000 A 
ATOM     10  C   UNL     1     -18.589  44.444 -14.205  0.00  0.00    +0.000 A 
ATOM     11  C   UNL     1     -19.555  43.647 -14.798  0.00  0.00    +0.000 A 
ATOM     12  H   UNL     1     -20.289  45.169 -16.042  0.00  0.00    +0.000 HD
ATOM     13  H   UNL     1     -20.915  43.581 -16.373  0.00  0.00    +0.000 HD
ENDBRANCH   3   7
BRANCH   2  14
ATOM     14  C   UNL     1     -17.918  40.884  -9.265  0.00  0.00    +0.000 C 
BRANCH  14  16
ATOM     15  N   UNL     1     -20.890  41.495  -7.173  0.00  0.00    +0.000 NA
ATOM     16  C   UNL     1     -19.040  40.646  -8.269  0.00  0.00    +0.000 C 
ATOM     17  C   UNL     1     -20.276  39.989  -8.887  0.00  0.00    +0.000 C 
ATOM     18  C   UNL     1     -19.579  41.932  -7.653  0.00  0.00    +0.000 C 
ATOM     19  C   UNL     1     -21.468  40.721  -8.273  0.00  0.00    +0.000 C 
BRANCH  15  20
ATOM     20  C   UNL     1     -21.736  42.609  -6.770  0.00  0.00    +0.000 C 
ATOM     21  C   UNL     1     -21.890  42.673  -5.265  0.00  0.00    +0.000 C 
ENDBRANCH  15  20
ENDBRANCH  14  16
ENDBRANCH   2  14
TORSDOF 4
ENDMDL
MODEL 4
REMARK VINA RESULT:    -6.327      4.610      7.921
REMARK INTER + INTRA:          -8.258
REMARK INTER:                  -7.967
REMARK INTRA:                  -0.291
REMARK UNBOUND:                -0.451
REMARK  Name = 21521575
REMARK  5 active torsions:
REMARK  status: ('A' for Active; 'I' for Inactive)
REMARK    1  A    between atoms: N_2  and  C_11
REMARK    2  A    between atoms: N_3  and  C_10
REMARK    3  A    between atoms: C_6  and  C_10
REMARK    4  A    between atoms: C_11  and  C_12
REMARK    5  A    between atoms: C_13  and  C_14
REMARK                            x       y       z     vdW  Elec       q    Type
REMARK                         _______ _______ _______ _____ _____    ______ ____
ROOT
ATOM      1  O   UNL     1     -20.023  42.265 -16.877  0.00  0.00    +0.000 OA
ATOM      2  N   UNL     1     -19.861  43.530 -14.937  0.00  0.00    +0.000 N 
ATOM      3  C   UNL     1     -20.359  43.237 -16.204  0.00  0.00    +0.000 C 
ATOM      4  H   UNL     1     -20.139  44.381 -14.462  0.00  0.00    +0.000 HD
ENDROOT
BRANCH   3   7
ATOM      5  N   UNL     1     -21.777  46.219 -18.016  0.00  0.00    +0.000 NA
ATOM      6  N   UNL     1     -24.025  46.933 -18.349  0.00  0.00    +0.000 N 
ATOM      7  C   UNL     1     -21.345  44.198 -16.760  0.00  0.00    +0.000 A 
ATOM      8  C   UNL     1     -22.710  44.015 -16.571  0.00  0.00    +0.000 A 
ATOM      9  C   UNL     1     -20.933  45.306 -17.484  0.00  0.00    +0.000 A 
ATOM     10  C   UNL     1     -23.609  44.932 -17.104  0.00  0.00    +0.000 A 
ATOM     11  C   UNL     1     -23.096  46.007 -17.812  0.00  0.00    +0.000 A 
ATOM     12  H   UNL     1     -24.953  46.602 -18.586  0.00  0.00    +0.000 HD
ATOM     13  H   UNL     1     -23.647  47.713 -18.871  0.00  0.00    +0.000 HD
ENDBRANCH   3   7
BRANCH   2  14
ATOM     14  C   UNL     1     -18.886  42.711 -14.277  0.00  0.00    +0.000 C 
BRANCH  14  16
ATOM     15  N   UNL     1     -19.285  41.306 -10.893  0.00  0.00    +0.000 NA
ATOM     16  C   UNL     1     -19.153  42.630 -12.784  0.00  0.00    +0.000 C 
ATOM     17  C   UNL     1     -17.924  42.938 -11.926  0.00  0.00    +0.000 C 
ATOM     18  C   UNL     1     -19.580  41.240 -12.325  0.00  0.00    +0.000 C 
ATOM     19  C   UNL     1     -17.954  41.908 -10.799  0.00  0.00    +0.000 C 
BRANCH  15  20
ATOM     20  C   UNL     1     -19.354  40.002 -10.250  0.00  0.00    +0.000 C 
ATOM     21  C   UNL     1     -20.118  40.067  -8.944  0.00  0.00    +0.000 C 
ENDBRANCH  15  20
ENDBRANCH  14  16
ENDBRANCH   2  14
TORSDOF 4
ENDMDL
MODEL 5
REMARK VINA RESULT:    -6.280      2.478      6.552
REMARK INTER + INTRA:          -8.200
REMARK INTER:                  -7.573
REMARK INTRA:                  -0.627
REMARK UNBOUND:                -0.451
REMARK  Name = 21521575
REMARK  5 active torsions:
REMARK  status: ('A' for Active; 'I' for Inactive)
REMARK    1  A    between atoms: N_2  and  C_11
REMARK    2  A    between atoms: N_3  and  C_10
REMARK    3  A    between atoms: C_6  and  C_10
REMARK    4  A    between atoms: C_11  and  C_12
REMARK    5  A    between atoms: C_13  and  C_14
REMARK                            x       y       z     vdW  Elec       q    Type
REMARK                         _______ _______ _______ _____ _____    ______ ____
ROOT
ATOM      1  O   UNL     1     -17.817  44.222 -11.693  0.00  0.00    +0.000 OA
ATOM      2  N   UNL     1     -17.104  42.230 -12.649  0.00  0.00    +0.000 N 
ATOM      3  C   UNL     1     -17.770  43.453 -12.651  0.00  0.00    +0.000 C 
ATOM      4  H   UNL     1     -17.156  41.618 -13.456  0.00  0.00    +0.000 HD
ENDROOT
BRANCH   3   7
ATOM      5  N   UNL     1     -18.953  45.454 -15.615  0.00  0.00    +0.000 NA
ATOM      6  N   UNL     1     -20.429  44.895 -17.400  0.00  0.00    +0.000 N 
ATOM      7  C   UNL     1     -18.482  43.811 -13.904  0.00  0.00    +0.000 A 
ATOM      8  C   UNL     1     -19.317  42.899 -14.540  0.00  0.00    +0.000 A 
ATOM      9  C   UNL     1     -18.335  45.065 -14.477  0.00  0.00    +0.000 A 
ATOM     10  C   UNL     1     -19.969  43.262 -15.713  0.00  0.00    +0.000 A 
ATOM     11  C   UNL     1     -19.756  44.540 -16.204  0.00  0.00    +0.000 A 
ATOM     12  H   UNL     1     -20.661  44.161 -18.059  0.00  0.00    +0.000 HD
ATOM     13  H   UNL     1     -20.265  45.827 -17.760  0.00  0.00    +0.000 HD
ENDBRANCH   3   7
BRANCH   2  14
ATOM     14  C   UNL     1     -16.393  41.734 -11.507  0.00  0.00    +0.000 C 
BRANCH  14  16
ATOM     15  N   UNL     1     -19.027  39.854  -9.742  0.00  0.00    +0.000 NA
ATOM     16  C   UNL     1     -17.134  40.579 -10.854  0.00  0.00    +0.000 C 
ATOM     17  C   UNL     1     -17.949  39.740 -11.842  0.00  0.00    +0.000 C 
ATOM     18  C   UNL     1     -18.163  41.032  -9.824  0.00  0.00    +0.000 C 
ATOM     19  C   UNL     1     -19.269  39.454 -11.129  0.00  0.00    +0.000 C 
BRANCH  15  20
ATOM     20  C   UNL     1     -20.260  40.117  -9.014  0.00  0.00    +0.000 C 
ATOM     21  C   UNL     1     -20.087  41.248  -8.021  0.00  0.00    +0.000 C 
ENDBRANCH  15  20
ENDBRANCH  14  16
ENDBRANCH   2  14
TORSDOF 4
ENDMDL
