MODEL 1
REMARK VINA RESULT:    -6.083      0.000      0.000
REMARK INTER + INTRA:          -7.253
REMARK INTER:                  -6.972
REMARK INTRA:                  -0.281
REMARK UNBOUND:                -0.281
REMARK  Name = 21551407
REMARK  5 active torsions:
REMARK  status: ('A' for Active; 'I' for Inactive)
REMARK    1  A    between atoms: N_2  and  C_5
REMARK    2  A    between atoms: N_4  and  C_10
REMARK    3  A    between atoms: C_5  and  C_6
REMARK    4  A    between atoms: C_5  and  C_7
REMARK    5  A    between atoms: C_8  and  C_9
REMARK                            x       y       z     vdW  Elec       q    Type
REMARK                         _______ _______ _______ _____ _____    ______ ____
ROOT
ATOM      1  N   UNL     1     -17.545  41.294 -11.338  0.00  0.00    +0.000 NA
ATOM      2  C   UNL     1     -19.185  40.788  -9.634  0.00  0.00    +0.000 A 
ATOM      3  C   UNL     1     -18.154  41.551 -10.157  0.00  0.00    +0.000 A 
ATOM      4  C   UNL     1     -19.620  39.692 -10.369  0.00  0.00    +0.000 A 
ATOM      5  C   UNL     1     -19.020  39.396 -11.588  0.00  0.00    +0.000 A 
ATOM      6  C   UNL     1     -17.996  40.221 -12.023  0.00  0.00    +0.000 A 
ENDROOT
BRANCH   2   9
ATOM      7  O   UNL     1     -19.132  41.397  -7.370  0.00  0.00    +0.000 OA
ATOM      8  N   UNL     1     -21.219  41.039  -8.317  0.00  0.00    +0.000 N 
ATOM      9  C   UNL     1     -19.833  41.096  -8.334  0.00  0.00    +0.000 C 
ATOM     10  H   UNL     1     -21.716  40.840  -9.182  0.00  0.00    +0.000 HD
BRANCH   8  11
ATOM     11  C   UNL     1     -21.993  41.335  -7.137  0.00  0.00    +0.000 C 
ATOM     12  C   UNL     1     -23.417  40.819  -7.294  0.00  0.00    +0.000 C 
ATOM     13  C   UNL     1     -21.977  42.832  -6.849  0.00  0.00    +0.000 C 
ENDBRANCH   8  11
ENDBRANCH   2   9
BRANCH   3  14
ATOM     14  N   UNL     1     -17.704  42.671  -9.414  0.00  0.00    +0.000 N 
ATOM     15  H   UNL     1     -16.715  42.750  -9.208  0.00  0.00    +0.000 HD
ATOM     16  H   UNL     1     -18.356  43.061  -8.745  0.00  0.00    +0.000 HD
ENDBRANCH   3  14
TORSDOF 3
ENDMDL
MODEL 2
REMARK VINA RESULT:    -5.914      1.600      4.868
REMARK INTER + INTRA:          -7.059
REMARK INTER:                  -6.843
REMARK INTRA:                  -0.216
REMARK UNBOUND:                -0.281
REMARK  Name = 21551407
REMARK  5 active torsions:
REMARK  status: ('A' for Active; 'I' for Inactive)
REMARK    1  A    between atoms: N_2  and  C_5
REMARK    2  A    between atoms: N_4  and  C_10
REMARK    3  A    between atoms: C_5  and  C_6
REMARK    4  A    between atoms: C_5  and  C_7
REMARK    5  A    between atoms: C_8  and  C_9
REMARK                            x       y       z     vdW  Elec       q    Type
REMARK                         _______ _______ _______ _____ _____    ______ ____
ROOT
ATOM      1  N   UNL     1     -21.695  42.601  -6.489  0.00  0.00    +0.000 NA
ATOM      2  C   UNL     1     -20.687  41.056  -8.052  0.00  0.00    +0.000 A 
ATOM      3  C   UNL     1     -20.640  42.152  -7.206  0.00  0.00    +0.000 A 
ATOM      4  C   UNL     1     -21.894  40.377  -8.170  0.00  0.00    +0.000 A 
ATOM      5  C   UNL     1     -23.002  40.807  -7.448  0.00  0.00    +0.000 A 
ATOM      6  C   UNL     1     -22.851  41.915  -6.629  0.00  0.00    +0.000 A 
ENDROOT
BRANCH   2   9
ATOM      7  O   UNL     1     -18.422  40.487  -8.264  0.00  0.00    +0.000 OA
ATOM      8  N   UNL     1     -19.745  40.270 -10.157  0.00  0.00    +0.000 N 
ATOM      9  C   UNL     1     -19.510  40.587  -8.827  0.00  0.00    +0.000 C 
ATOM     10  H   UNL     1     -20.694  40.327 -10.518  0.00  0.00    +0.000 HD
BRANCH   8  11
ATOM     11  C   UNL     1     -18.709  39.779 -11.031  0.00  0.00    +0.000 C 
ATOM     12  C   UNL     1     -17.668  40.862 -11.280  0.00  0.00    +0.000 C 
ATOM     13  C   UNL     1     -19.308  39.277 -12.340  0.00  0.00    +0.000 C 
ENDBRANCH   8  11
ENDBRANCH   2   9
BRANCH   3  14
ATOM     14  N   UNL     1     -19.413  42.851  -7.080  0.00  0.00    +0.000 N 
ATOM     15  H   UNL     1     -18.568  42.319  -6.912  0.00  0.00    +0.000 HD
ATOM     16  H   UNL     1     -19.464  43.787  -6.699  0.00  0.00    +0.000 HD
ENDBRANCH   3  14
TORSDOF 3
ENDMDL
MODEL 3
REMARK VINA RESULT:    -5.804      2.002      2.763
REMARK INTER + INTRA:          -6.933
REMARK INTER:                  -6.498
REMARK INTRA:                  -0.435
REMARK UNBOUND:                -0.281
REMARK  Name = 21551407
REMARK  5 active torsions:
REMARK  status: ('A' for Active; 'I' for Inactive)
REMARK    1  A    between atoms: N_2  and  C_5
REMARK    2  A    between atoms: N_4  and  C_10
REMARK    3  A    between atoms: C_5  and  C_6
REMARK    4  A    between atoms: C_5  and  C_7
REMARK    5  A    between atoms: C_8  and  C_9
REMARK                            x       y       z     vdW  Elec       q    Type
REMARK                         _______ _______ _______ _____ _____    ______ ____
ROOT
ATOM      1  N   UNL     1     -18.408  41.900 -13.431  0.00  0.00    +0.000 NA
ATOM      2  C   UNL     1     -18.584  41.518 -11.050  0.00  0.00    +0.000 A 
ATOM      3  C   UNL     1     -18.947  41.268 -12.363  0.00  0.00    +0.000 A 
ATOM      4  C   UNL     1     -17.605  42.478 -10.817  0.00  0.00    +0.000 A 
ATOM      5  C   UNL     1     -17.027  43.148 -11.889  0.00  0.00    +0.000 A 
ATOM      6  C   UNL     1     -17.461  42.825 -13.165  0.00  0.00    +0.000 A 
ENDROOT
BRANCH   2   9
ATOM      7  O   UNL     1     -19.182  39.579  -9.876  0.00  0.00    +0.000 OA
ATOM      8  N   UNL     1     -19.725  41.612  -8.899  0.00  0.00    +0.000 N 
ATOM      9  C   UNL     1     -19.194  40.808  -9.897  0.00  0.00    +0.000 C 
ATOM     10  H   UNL     1     -19.634  42.622  -8.977  0.00  0.00    +0.000 HD
BRANCH   8  11
ATOM     11  C   UNL     1     -20.329  41.070  -7.707  0.00  0.00    +0.000 C 
ATOM     12  C   UNL     1     -21.811  40.803  -7.939  0.00  0.00    +0.000 C 
ATOM     13  C   UNL     1     -20.116  42.009  -6.525  0.00  0.00    +0.000 C 
ENDBRANCH   8  11
ENDBRANCH   2   9
BRANCH   3  14
ATOM     14  N   UNL     1     -19.945  40.292 -12.609  0.00  0.00    +0.000 N 
ATOM     15  H   UNL     1     -20.903  40.598 -12.729  0.00  0.00    +0.000 HD
ATOM     16  H   UNL     1     -19.791  39.376 -12.205  0.00  0.00    +0.000 HD
ENDBRANCH   3  14
TORSDOF 3
ENDMDL
MODEL 4
REMARK VINA RESULT:    -5.762      2.257      5.301
REMARK INTER + INTRA:          -6.885
REMARK INTER:                  -6.421
REMARK INTRA:                  -0.464
REMARK UNBOUND:                -0.281
REMARK  Name = 21551407
REMARK  5 active torsions:
REMARK  status: ('A' for Active; 'I' for Inactive)
REMARK    1  A    between atoms: N_2  and  C_5
REMARK    2  A    between atoms: N_4  and  C_10
REMARK    3  A    between atoms: C_5  and  C_6
REMARK    4  A    between atoms: C_5  and  C_7
REMARK    5  A    between atoms: C_8  and  C_9
REMARK                            x       y       z     vdW  Elec       q    Type
REMARK                         _______ _______ _______ _____ _____    ______ ____
ROOT
ATOM      1  N   UNL     1     -20.962  40.324  -8.728  0.00  0.00    +0.000 NA
ATOM      2  C   UNL     1     -18.791  41.174  -9.371  0.00  0.00    +0.000 A 
ATOM      3  C   UNL     1     -19.897  40.361  -9.562  0.00  0.00    +0.000 A 
ATOM      4  C   UNL     1     -18.778  42.002  -8.254  0.00  0.00    +0.000 A 
ATOM      5  C   UNL     1     -19.854  41.992  -7.375  0.00  0.00    +0.000 A 
ATOM      6  C   UNL     1     -20.912  41.142  -7.655  0.00  0.00    +0.000 A 
ENDROOT
BRANCH   2   9
ATOM      7  O   UNL     1     -16.943  40.184 -10.421  0.00  0.00    +0.000 OA
ATOM      8  N   UNL     1     -17.441  42.373 -11.006  0.00  0.00    +0.000 N 
ATOM      9  C   UNL     1     -17.637  41.192 -10.304  0.00  0.00    +0.000 C 
ATOM     10  H   UNL     1     -18.106  43.134 -10.888  0.00  0.00    +0.000 HD
BRANCH   8  11
ATOM     11  C   UNL     1     -16.378  42.537 -11.967  0.00  0.00    +0.000 C 
ATOM     12  C   UNL     1     -15.158  43.163 -11.305  0.00  0.00    +0.000 C 
ATOM     13  C   UNL     1     -16.852  43.370 -13.152  0.00  0.00    +0.000 C 
ENDBRANCH   8  11
ENDBRANCH   2   9
BRANCH   3  14
ATOM     14  N   UNL     1     -19.919  39.514 -10.697  0.00  0.00    +0.000 N 
ATOM     15  H   UNL     1     -20.808  39.325 -11.144  0.00  0.00    +0.000 HD
ATOM     16  H   UNL     1     -19.211  38.791 -10.735  0.00  0.00    +0.000 HD
ENDBRANCH   3  14
TORSDOF 3
ENDMDL
MODEL 5
REMARK VINA RESULT:    -5.587      3.382      5.587
REMARK INTER + INTRA:          -6.685
REMARK INTER:                  -6.284
REMARK INTRA:                  -0.401
REMARK UNBOUND:                -0.281
REMARK  Name = 21551407
REMARK  5 active torsions:
REMARK  status: ('A' for Active; 'I' for Inactive)
REMARK    1  A    between atoms: N_2  and  C_5
REMARK    2  A    between atoms: N_4  and  C_10
REMARK    3  A    between atoms: C_5  and  C_6
REMARK    4  A    between atoms: C_5  and  C_7
REMARK    5  A    between atoms: C_8  and  C_9
REMARK                            x       y       z     vdW  Elec       q    Type
REMARK                         _______ _______ _______ _____ _____    ______ ____
ROOT
ATOM      1  N   UNL     1     -19.466  39.701 -10.020  0.00  0.00    +0.000 NA
ATOM      2  C   UNL     1     -18.570  41.373 -11.520  0.00  0.00    +0.000 A 
ATOM      3  C   UNL     1     -19.221  40.177 -11.262  0.00  0.00    +0.000 A 
ATOM      4  C   UNL     1     -18.145  42.129 -10.433  0.00  0.00    +0.000 A 
ATOM      5  C   UNL     1     -18.380  41.673  -9.141  0.00  0.00    +0.000 A 
ATOM      6  C   UNL     1     -19.038  40.464  -8.990  0.00  0.00    +0.000 A 
ENDROOT
BRANCH   2   9
ATOM      7  O   UNL     1     -17.342  41.445 -13.516  0.00  0.00    +0.000 OA
ATOM      8  N   UNL     1     -19.234  42.781 -13.394  0.00  0.00    +0.000 N 
ATOM      9  C   UNL     1     -18.315  41.869 -12.896  0.00  0.00    +0.000 C 
ATOM     10  H   UNL     1     -20.043  43.026 -12.827  0.00  0.00    +0.000 HD
BRANCH   8  11
ATOM     11  C   UNL     1     -19.136  43.335 -14.721  0.00  0.00    +0.000 C 
ATOM     12  C   UNL     1     -18.694  44.791 -14.657  0.00  0.00    +0.000 C 
ATOM     13  C   UNL     1     -20.462  43.192 -15.460  0.00  0.00    +0.000 C 
ENDBRANCH   8  11
ENDBRANCH   2   9
BRANCH   3  14
ATOM     14  N   UNL     1     -19.657  39.400 -12.364  0.00  0.00    +0.000 N 
ATOM     15  H   UNL     1     -19.582  39.794 -13.295  0.00  0.00    +0.000 HD
ATOM     16  H   UNL     1     -20.413  38.750 -12.188  0.00  0.00    +0.000 HD
ENDBRANCH   3  14
TORSDOF 3
ENDMDL
