MODEL 1
REMARK VINA RESULT:    -5.619      0.000      0.000
REMARK INTER + INTRA:          -5.909
REMARK INTER:                  -5.947
REMARK INTRA:                   0.038
REMARK UNBOUND:                 0.038
REMARK  Name = 21568270
REMARK  4 active torsions:
REMARK  status: ('A' for Active; 'I' for Inactive)
REMARK    1  A    between atoms: N_2  and  C_7
REMARK    2  A    between atoms: N_3  and  C_13
REMARK    3  A    between atoms: N_3  and  C_14
REMARK    4  A    between atoms: C_7  and  C_11
REMARK                            x       y       z     vdW  Elec       q    Type
REMARK                         _______ _______ _______ _____ _____    ______ ____
ROOT
ATOM      1  O   UNL     1     -19.749  42.679 -15.523  0.00  0.00    +0.000 OA
ATOM      2  N   UNL     1     -17.684  42.694 -12.077  0.00  0.00    +0.000 N 
ATOM      3  N   UNL     1     -18.197  40.403 -11.847  0.00  0.00    +0.000 N 
ATOM      4  N   UNL     1     -19.022  41.526 -13.688  0.00  0.00    +0.000 NA
ATOM      5  N   UNL     1     -17.441  45.108 -12.194  0.00  0.00    +0.000 NA
ATOM      6  C   UNL     1     -18.319  41.560 -12.581  0.00  0.00    +0.000 A 
ATOM      7  C   UNL     1     -17.920  43.943 -12.707  0.00  0.00    +0.000 A 
ATOM      8  C   UNL     1     -18.666  43.947 -13.890  0.00  0.00    +0.000 A 
ATOM      9  C   UNL     1     -19.183  42.671 -14.433  0.00  0.00    +0.000 A 
ATOM     10  C   UNL     1     -18.915  45.152 -14.552  0.00  0.00    +0.000 A 
ATOM     11  C   UNL     1     -19.366  39.732 -11.309  0.00  0.00    +0.000 C 
ATOM     12  C   UNL     1     -16.939  39.680 -11.791  0.00  0.00    +0.000 C 
ATOM     13  C   UNL     1     -18.422  46.336 -14.025  0.00  0.00    +0.000 A 
ATOM     14  C   UNL     1     -17.698  46.261 -12.852  0.00  0.00    +0.000 A 
ENDROOT
BRANCH   2  15
ATOM     15  C   UNL     1     -16.869  42.745 -10.866  0.00  0.00    +0.000 C 
ATOM     16  C   UNL     1     -17.756  42.723  -9.637  0.00  0.00    +0.000 C 
ENDBRANCH   2  15
TORSDOF 1
ENDMDL
MODEL 2
REMARK VINA RESULT:    -5.228      1.976      5.197
REMARK INTER + INTRA:          -5.496
REMARK INTER:                  -5.632
REMARK INTRA:                   0.136
REMARK UNBOUND:                 0.038
REMARK  Name = 21568270
REMARK  4 active torsions:
REMARK  status: ('A' for Active; 'I' for Inactive)
REMARK    1  A    between atoms: N_2  and  C_7
REMARK    2  A    between atoms: N_3  and  C_13
REMARK    3  A    between atoms: N_3  and  C_14
REMARK    4  A    between atoms: C_7  and  C_11
REMARK                            x       y       z     vdW  Elec       q    Type
REMARK                         _______ _______ _______ _____ _____    ______ ____
ROOT
ATOM      1  O   UNL     1     -15.252  42.614 -11.302  0.00  0.00    +0.000 OA
ATOM      2  N   UNL     1     -18.680  43.226 -13.304  0.00  0.00    +0.000 N 
ATOM      3  N   UNL     1     -18.068  45.495 -13.509  0.00  0.00    +0.000 N 
ATOM      4  N   UNL     1     -16.647  44.080 -12.363  0.00  0.00    +0.000 NA
ATOM      5  N   UNL     1     -19.414  40.964 -12.806  0.00  0.00    +0.000 NA
ATOM      6  C   UNL     1     -17.762  44.239 -13.036  0.00  0.00    +0.000 A 
ATOM      7  C   UNL     1     -18.492  41.958 -12.695  0.00  0.00    +0.000 A 
ATOM      8  C   UNL     1     -17.315  41.750 -11.969  0.00  0.00    +0.000 A 
ATOM      9  C   UNL     1     -16.323  42.843 -11.856  0.00  0.00    +0.000 A 
ATOM     10  C   UNL     1     -17.080  40.514 -11.361  0.00  0.00    +0.000 A 
ATOM     11  C   UNL     1     -18.231  46.617 -12.603  0.00  0.00    +0.000 C 
ATOM     12  C   UNL     1     -17.996  45.798 -14.927  0.00  0.00    +0.000 C 
ATOM     13  C   UNL     1     -18.023  39.505 -11.480  0.00  0.00    +0.000 A 
ATOM     14  C   UNL     1     -19.165  39.778 -12.206  0.00  0.00    +0.000 A 
ENDROOT
BRANCH   2  15
ATOM     15  C   UNL     1     -19.909  43.374 -14.080  0.00  0.00    +0.000 C 
ATOM     16  C   UNL     1     -19.668  42.977 -15.523  0.00  0.00    +0.000 C 
ENDBRANCH   2  15
TORSDOF 1
ENDMDL
MODEL 3
REMARK VINA RESULT:    -5.201      2.313      4.678
REMARK INTER + INTRA:          -5.467
REMARK INTER:                  -5.474
REMARK INTRA:                   0.007
REMARK UNBOUND:                 0.038
REMARK  Name = 21568270
REMARK  4 active torsions:
REMARK  status: ('A' for Active; 'I' for Inactive)
REMARK    1  A    between atoms: N_2  and  C_7
REMARK    2  A    between atoms: N_3  and  C_13
REMARK    3  A    between atoms: N_3  and  C_14
REMARK    4  A    between atoms: C_7  and  C_11
REMARK                            x       y       z     vdW  Elec       q    Type
REMARK                         _______ _______ _______ _____ _____    ______ ____
ROOT
ATOM      1  O   UNL     1     -19.614  41.308 -13.400  0.00  0.00    +0.000 OA
ATOM      2  N   UNL     1     -18.971  44.948 -14.971  0.00  0.00    +0.000 N 
ATOM      3  N   UNL     1     -19.987  44.187 -16.960  0.00  0.00    +0.000 N 
ATOM      4  N   UNL     1     -19.783  42.705 -15.201  0.00  0.00    +0.000 NA
ATOM      5  N   UNL     1     -17.664  45.594 -13.028  0.00  0.00    +0.000 NA
ATOM      6  C   UNL     1     -19.581  43.911 -15.674  0.00  0.00    +0.000 A 
ATOM      7  C   UNL     1     -18.388  44.665 -13.709  0.00  0.00    +0.000 A 
ATOM      8  C   UNL     1     -18.581  43.389 -13.172  0.00  0.00    +0.000 A 
ATOM      9  C   UNL     1     -19.369  42.389 -13.928  0.00  0.00    +0.000 A 
ATOM     10  C   UNL     1     -18.035  43.067 -11.927  0.00  0.00    +0.000 A 
ATOM     11  C   UNL     1     -19.450  43.448 -18.088  0.00  0.00    +0.000 C 
ATOM     12  C   UNL     1     -21.132  45.041 -17.217  0.00  0.00    +0.000 C 
ATOM     13  C   UNL     1     -17.300  44.018 -11.237  0.00  0.00    +0.000 A 
ATOM     14  C   UNL     1     -17.144  45.257 -11.826  0.00  0.00    +0.000 A 
ENDROOT
BRANCH   2  15
ATOM     15  C   UNL     1     -18.768  46.308 -15.467  0.00  0.00    +0.000 C 
ATOM     16  C   UNL     1     -17.533  46.365 -16.344  0.00  0.00    +0.000 C 
ENDBRANCH   2  15
TORSDOF 1
ENDMDL
MODEL 4
REMARK VINA RESULT:    -5.143      2.563      5.495
REMARK INTER + INTRA:          -5.405
REMARK INTER:                  -5.413
REMARK INTRA:                   0.007
REMARK UNBOUND:                 0.038
REMARK  Name = 21568270
REMARK  4 active torsions:
REMARK  status: ('A' for Active; 'I' for Inactive)
REMARK    1  A    between atoms: N_2  and  C_7
REMARK    2  A    between atoms: N_3  and  C_13
REMARK    3  A    between atoms: N_3  and  C_14
REMARK    4  A    between atoms: C_7  and  C_11
REMARK                            x       y       z     vdW  Elec       q    Type
REMARK                         _______ _______ _______ _____ _____    ______ ____
ROOT
ATOM      1  O   UNL     1     -17.014  45.715 -12.655  0.00  0.00    +0.000 OA
ATOM      2  N   UNL     1     -19.305  43.833 -15.364  0.00  0.00    +0.000 N 
ATOM      3  N   UNL     1     -19.280  45.811 -16.649  0.00  0.00    +0.000 N 
ATOM      4  N   UNL     1     -18.160  45.807 -14.630  0.00  0.00    +0.000 NA
ATOM      5  N   UNL     1     -19.563  41.931 -13.876  0.00  0.00    +0.000 NA
ATOM      6  C   UNL     1     -18.886  45.155 -15.506  0.00  0.00    +0.000 A 
ATOM      7  C   UNL     1     -19.068  43.172 -14.132  0.00  0.00    +0.000 A 
ATOM      8  C   UNL     1     -18.298  43.836 -13.172  0.00  0.00    +0.000 A 
ATOM      9  C   UNL     1     -17.770  45.187 -13.465  0.00  0.00    +0.000 A 
ATOM     10  C   UNL     1     -18.028  43.220 -11.947  0.00  0.00    +0.000 A 
ATOM     11  C   UNL     1     -20.096  47.010 -16.580  0.00  0.00    +0.000 C 
ATOM     12  C   UNL     1     -18.698  45.484 -17.938  0.00  0.00    +0.000 C 
ATOM     13  C   UNL     1     -18.533  41.954 -11.693  0.00  0.00    +0.000 A 
ATOM     14  C   UNL     1     -19.289  41.357 -12.682  0.00  0.00    +0.000 A 
ENDROOT
BRANCH   2  15
ATOM     15  C   UNL     1     -20.084  43.078 -16.343  0.00  0.00    +0.000 C 
ATOM     16  C   UNL     1     -21.557  43.413 -16.209  0.00  0.00    +0.000 C 
ENDBRANCH   2  15
TORSDOF 1
ENDMDL
MODEL 5
REMARK VINA RESULT:    -5.135      1.502      4.457
REMARK INTER + INTRA:          -5.397
REMARK INTER:                  -5.416
REMARK INTRA:                   0.019
REMARK UNBOUND:                 0.038
REMARK  Name = 21568270
REMARK  4 active torsions:
REMARK  status: ('A' for Active; 'I' for Inactive)
REMARK    1  A    between atoms: N_2  and  C_7
REMARK    2  A    between atoms: N_3  and  C_13
REMARK    3  A    between atoms: N_3  and  C_14
REMARK    4  A    between atoms: C_7  and  C_11
REMARK                            x       y       z     vdW  Elec       q    Type
REMARK                         _______ _______ _______ _____ _____    ______ ____
ROOT
ATOM      1  O   UNL     1     -20.356  42.320 -14.424  0.00  0.00    +0.000 OA
ATOM      2  N   UNL     1     -17.095  43.568 -12.439  0.00  0.00    +0.000 N 
ATOM      3  N   UNL     1     -17.201  45.574 -13.676  0.00  0.00    +0.000 N 
ATOM      4  N   UNL     1     -18.781  43.944 -14.101  0.00  0.00    +0.000 NA
ATOM      5  N   UNL     1     -16.839  41.381 -11.414  0.00  0.00    +0.000 NA
ATOM      6  C   UNL     1     -17.731  44.331 -13.416  0.00  0.00    +0.000 A 
ATOM      7  C   UNL     1     -17.500  42.221 -12.255  0.00  0.00    +0.000 A 
ATOM      8  C   UNL     1     -18.615  41.772 -12.969  0.00  0.00    +0.000 A 
ATOM      9  C   UNL     1     -19.321  42.698 -13.882  0.00  0.00    +0.000 A 
ATOM     10  C   UNL     1     -19.059  40.456 -12.812  0.00  0.00    +0.000 A 
ATOM     11  C   UNL     1     -16.703  45.913 -14.996  0.00  0.00    +0.000 C 
ATOM     12  C   UNL     1     -17.344  46.662 -12.726  0.00  0.00    +0.000 C 
ATOM     13  C   UNL     1     -18.383  39.605 -11.952  0.00  0.00    +0.000 A 
ATOM     14  C   UNL     1     -17.287  40.111 -11.283  0.00  0.00    +0.000 A 
ENDROOT
BRANCH   2  15
ATOM     15  C   UNL     1     -15.947  43.993 -11.641  0.00  0.00    +0.000 C 
ATOM     16  C   UNL     1     -14.657  43.685 -12.376  0.00  0.00    +0.000 C 
ENDBRANCH   2  15
TORSDOF 1
ENDMDL
