MODEL 1
REMARK VINA RESULT:    -6.338      0.000      0.000
REMARK INTER + INTRA:          -6.524
REMARK INTER:                  -6.524
REMARK INTRA:                   0.000
REMARK UNBOUND:                 0.000
REMARK  Name = 21568271
REMARK  1 active torsions:
REMARK  status: ('A' for Active; 'I' for Inactive)
REMARK    1  A    between atoms: N_2  and  N_5
REMARK                            x       y       z     vdW  Elec       q    Type
REMARK                         _______ _______ _______ _____ _____    ______ ____
ROOT
ATOM      1  O   UNL     1     -19.595  38.556 -11.656  0.00  0.00    +0.000 OA
ATOM      2  N   UNL     1     -17.085  41.586 -10.914  0.00  0.00    +0.000 N 
ATOM      3  N   UNL     1     -18.235  42.138  -8.855  0.00  0.00    +0.000 NA
ATOM      4  N   UNL     1     -17.774  39.782 -12.318  0.00  0.00    +0.000 NA
ATOM      5  C   UNL     1     -18.108  41.365  -9.963  0.00  0.00    +0.000 A 
ATOM      6  C   UNL     1     -18.988  40.304 -10.221  0.00  0.00    +0.000 A 
ATOM      7  C   UNL     1     -20.018  40.035  -9.319  0.00  0.00    +0.000 A 
ATOM      8  C   UNL     1     -18.812  39.479 -11.452  0.00  0.00    +0.000 A 
ATOM      9  C   UNL     1     -17.002  40.776 -12.013  0.00  0.00    +0.000 A 
ATOM     10  C   UNL     1     -20.150  40.824  -8.184  0.00  0.00    +0.000 A 
ATOM     11  C   UNL     1     -19.243  41.851  -8.000  0.00  0.00    +0.000 A 
ENDROOT
BRANCH   2  12
ATOM     12  N   UNL     1     -16.161  42.602 -10.761  0.00  0.00    +0.000 N 
ATOM     13  H   UNL     1     -15.229  42.196 -10.699  0.00  0.00    +0.000 HD
ATOM     14  H   UNL     1     -16.166  43.184 -11.599  0.00  0.00    +0.000 HD
ENDBRANCH   2  12
TORSDOF 1
ENDMDL
MODEL 2
REMARK VINA RESULT:    -5.862      2.321      4.115
REMARK INTER + INTRA:          -6.034
REMARK INTER:                  -6.034
REMARK INTRA:                   0.000
REMARK UNBOUND:                 0.000
REMARK  Name = 21568271
REMARK  1 active torsions:
REMARK  status: ('A' for Active; 'I' for Inactive)
REMARK    1  A    between atoms: N_2  and  N_5
REMARK                            x       y       z     vdW  Elec       q    Type
REMARK                         _______ _______ _______ _____ _____    ______ ____
ROOT
ATOM      1  O   UNL     1     -18.229  42.338  -8.337  0.00  0.00    +0.000 OA
ATOM      2  N   UNL     1     -19.262  40.138 -11.517  0.00  0.00    +0.000 N 
ATOM      3  N   UNL     1     -18.091  41.625 -13.027  0.00  0.00    +0.000 NA
ATOM      4  N   UNL     1     -19.327  40.502  -9.158  0.00  0.00    +0.000 NA
ATOM      5  C   UNL     1     -18.477  41.285 -11.771  0.00  0.00    +0.000 A 
ATOM      6  C   UNL     1     -18.113  42.057 -10.658  0.00  0.00    +0.000 A 
ATOM      7  C   UNL     1     -17.338  43.202 -10.844  0.00  0.00    +0.000 A 
ATOM      8  C   UNL     1     -18.559  41.646  -9.294  0.00  0.00    +0.000 A 
ATOM      9  C   UNL     1     -19.622  39.839 -10.232  0.00  0.00    +0.000 A 
ATOM     10  C   UNL     1     -16.941  43.553 -12.128  0.00  0.00    +0.000 A 
ATOM     11  C   UNL     1     -17.339  42.741 -13.174  0.00  0.00    +0.000 A 
ENDROOT
BRANCH   2  12
ATOM     12  N   UNL     1     -19.677  39.303 -12.538  0.00  0.00    +0.000 N 
ATOM     13  H   UNL     1     -19.085  39.457 -13.353  0.00  0.00    +0.000 HD
ATOM     14  H   UNL     1     -19.529  38.334 -12.255  0.00  0.00    +0.000 HD
ENDBRANCH   2  12
TORSDOF 1
ENDMDL
MODEL 3
REMARK VINA RESULT:    -5.837      2.095      2.937
REMARK INTER + INTRA:          -6.007
REMARK INTER:                  -6.007
REMARK INTRA:                   0.000
REMARK UNBOUND:                 0.000
REMARK  Name = 21568271
REMARK  1 active torsions:
REMARK  status: ('A' for Active; 'I' for Inactive)
REMARK    1  A    between atoms: N_2  and  N_5
REMARK                            x       y       z     vdW  Elec       q    Type
REMARK                         _______ _______ _______ _____ _____    ______ ____
ROOT
ATOM      1  O   UNL     1     -16.388  42.721 -11.011  0.00  0.00    +0.000 OA
ATOM      2  N   UNL     1     -19.073  39.907 -11.963  0.00  0.00    +0.000 N 
ATOM      3  N   UNL     1     -20.080  40.011  -9.763  0.00  0.00    +0.000 NA
ATOM      4  N   UNL     1     -17.217  41.275 -12.585  0.00  0.00    +0.000 NA
ATOM      5  C   UNL     1     -19.148  40.434 -10.654  0.00  0.00    +0.000 A 
ATOM      6  C   UNL     1     -18.208  41.420 -10.318  0.00  0.00    +0.000 A 
ATOM      7  C   UNL     1     -18.231  41.979  -9.040  0.00  0.00    +0.000 A 
ATOM      8  C   UNL     1     -17.200  41.857 -11.328  0.00  0.00    +0.000 A 
ATOM      9  C   UNL     1     -18.114  40.371 -12.822  0.00  0.00    +0.000 A 
ATOM     10  C   UNL     1     -19.184  41.549  -8.126  0.00  0.00    +0.000 A 
ATOM     11  C   UNL     1     -20.076  40.573  -8.532  0.00  0.00    +0.000 A 
ENDROOT
BRANCH   2  12
ATOM     12  N   UNL     1     -19.949  38.933 -12.403  0.00  0.00    +0.000 N 
ATOM     13  H   UNL     1     -20.220  39.140 -13.362  0.00  0.00    +0.000 HD
ATOM     14  H   UNL     1     -19.462  38.037 -12.429  0.00  0.00    +0.000 HD
ENDBRANCH   2  12
TORSDOF 1
ENDMDL
MODEL 4
REMARK VINA RESULT:    -5.484      2.970      4.521
REMARK INTER + INTRA:          -5.644
REMARK INTER:                  -5.644
REMARK INTRA:                   0.000
REMARK UNBOUND:                 0.000
REMARK  Name = 21568271
REMARK  1 active torsions:
REMARK  status: ('A' for Active; 'I' for Inactive)
REMARK    1  A    between atoms: N_2  and  N_5
REMARK                            x       y       z     vdW  Elec       q    Type
REMARK                         _______ _______ _______ _____ _____    ______ ____
ROOT
ATOM      1  O   UNL     1     -15.541  42.431 -11.324  0.00  0.00    +0.000 OA
ATOM      2  N   UNL     1     -18.687  40.132 -12.245  0.00  0.00    +0.000 N 
ATOM      3  N   UNL     1     -19.603  41.833 -13.706  0.00  0.00    +0.000 NA
ATOM      4  N   UNL     1     -16.642  40.439 -11.051  0.00  0.00    +0.000 NA
ATOM      5  C   UNL     1     -18.637  41.407 -12.853  0.00  0.00    +0.000 A 
ATOM      6  C   UNL     1     -17.535  42.214 -12.533  0.00  0.00    +0.000 A 
ATOM      7  C   UNL     1     -17.429  43.484 -13.101  0.00  0.00    +0.000 A 
ATOM      8  C   UNL     1     -16.495  41.706 -11.590  0.00  0.00    +0.000 A 
ATOM      9  C   UNL     1     -17.686  39.752 -11.395  0.00  0.00    +0.000 A 
ATOM     10  C   UNL     1     -18.416  43.922 -13.974  0.00  0.00    +0.000 A 
ATOM     11  C   UNL     1     -19.471  43.069 -14.241  0.00  0.00    +0.000 A 
ENDROOT
BRANCH   2  12
ATOM     12  N   UNL     1     -19.725  39.254 -12.490  0.00  0.00    +0.000 N 
ATOM     13  H   UNL     1     -20.367  39.677 -13.158  0.00  0.00    +0.000 HD
ATOM     14  H   UNL     1     -19.353  38.417 -12.940  0.00  0.00    +0.000 HD
ENDBRANCH   2  12
TORSDOF 1
ENDMDL
MODEL 5
REMARK VINA RESULT:    -5.326      1.680      3.290
REMARK INTER + INTRA:          -5.482
REMARK INTER:                  -5.482
REMARK INTRA:                   0.000
REMARK UNBOUND:                 0.000
REMARK  Name = 21568271
REMARK  1 active torsions:
REMARK  status: ('A' for Active; 'I' for Inactive)
REMARK    1  A    between atoms: N_2  and  N_5
REMARK                            x       y       z     vdW  Elec       q    Type
REMARK                         _______ _______ _______ _____ _____    ______ ____
ROOT
ATOM      1  O   UNL     1     -19.138  39.367 -13.107  0.00  0.00    +0.000 OA
ATOM      2  N   UNL     1     -18.543  41.275  -9.639  0.00  0.00    +0.000 N 
ATOM      3  N   UNL     1     -17.458  43.132 -10.754  0.00  0.00    +0.000 NA
ATOM      4  N   UNL     1     -19.387  39.385 -10.829  0.00  0.00    +0.000 NA
ATOM      5  C   UNL     1     -18.076  41.924 -10.804  0.00  0.00    +0.000 A 
ATOM      6  C   UNL     1     -18.284  41.258 -12.021  0.00  0.00    +0.000 A 
ATOM      7  C   UNL     1     -17.845  41.847 -13.208  0.00  0.00    +0.000 A 
ATOM      8  C   UNL     1     -18.968  39.931 -12.031  0.00  0.00    +0.000 A 
ATOM      9  C   UNL     1     -19.161  40.060  -9.746  0.00  0.00    +0.000 A 
ATOM     10  C   UNL     1     -17.214  43.083 -13.159  0.00  0.00    +0.000 A 
ATOM     11  C   UNL     1     -17.046  43.677 -11.922  0.00  0.00    +0.000 A 
ENDROOT
BRANCH   2  12
ATOM     12  N   UNL     1     -18.393  41.841  -8.386  0.00  0.00    +0.000 N 
ATOM     13  H   UNL     1     -17.865  41.201  -7.795  0.00  0.00    +0.000 HD
ATOM     14  H   UNL     1     -17.830  42.687  -8.469  0.00  0.00    +0.000 HD
ENDBRANCH   2  12
TORSDOF 1
ENDMDL
