MODEL 1
REMARK VINA RESULT:    -5.608      0.000      0.000
REMARK INTER + INTRA:          -5.928
REMARK INTER:                  -5.935
REMARK INTRA:                   0.008
REMARK UNBOUND:                 0.008
REMARK  Name = 21568183
REMARK  3 active torsions:
REMARK  status: ('A' for Active; 'I' for Inactive)
REMARK    1  A    between atoms: N_2  and  C_6
REMARK    2  A    between atoms: N_4  and  C_15
REMARK    3  A    between atoms: C_6  and  C_10
REMARK                            x       y       z     vdW  Elec       q    Type
REMARK                         _______ _______ _______ _____ _____    ______ ____
ROOT
ATOM      1  O   UNL     1     -15.953  43.006 -11.018  0.00  0.00    +0.000 OA
ATOM      2  N   UNL     1     -19.146  43.086 -13.453  0.00  0.00    +0.000 N 
ATOM      3  N   UNL     1     -17.383  44.237 -12.308  0.00  0.00    +0.000 NA
ATOM      4  N   UNL     1     -18.822  45.410 -13.680  0.00  0.00    +0.000 N 
ATOM      5  N   UNL     1     -19.629  40.759 -12.953  0.00  0.00    +0.000 NA
ATOM      6  C   UNL     1     -18.869  41.871 -12.771  0.00  0.00    +0.000 A 
ATOM      7  C   UNL     1     -18.413  44.222 -13.118  0.00  0.00    +0.000 A 
ATOM      8  C   UNL     1     -17.779  41.848 -11.898  0.00  0.00    +0.000 A 
ATOM      9  C   UNL     1     -16.965  43.070 -11.710  0.00  0.00    +0.000 A 
ATOM     10  C   UNL     1     -17.460  40.673 -11.211  0.00  0.00    +0.000 A 
ATOM     11  C   UNL     1     -18.236  39.540 -11.401  0.00  0.00    +0.000 A 
ATOM     12  C   UNL     1     -19.302  39.635 -12.274  0.00  0.00    +0.000 A 
ATOM     13  C   UNL     1     -18.159  46.645 -13.407  0.00  0.00    +0.000 C 
ATOM     14  H   UNL     1     -19.642  45.457 -14.273  0.00  0.00    +0.000 HD
ENDROOT
BRANCH   2  15
ATOM     15  C   UNL     1     -20.274  43.042 -14.381  0.00  0.00    +0.000 C 
ATOM     16  C   UNL     1     -19.771  43.048 -15.812  0.00  0.00    +0.000 C 
ENDBRANCH   2  15
TORSDOF 1
ENDMDL
MODEL 2
REMARK VINA RESULT:    -5.362      1.828      3.503
REMARK INTER + INTRA:          -5.668
REMARK INTER:                  -5.631
REMARK INTRA:                  -0.037
REMARK UNBOUND:                 0.008
REMARK  Name = 21568183
REMARK  3 active torsions:
REMARK  status: ('A' for Active; 'I' for Inactive)
REMARK    1  A    between atoms: N_2  and  C_6
REMARK    2  A    between atoms: N_4  and  C_15
REMARK    3  A    between atoms: C_6  and  C_10
REMARK                            x       y       z     vdW  Elec       q    Type
REMARK                         _______ _______ _______ _____ _____    ______ ____
ROOT
ATOM      1  O   UNL     1     -19.635  40.618 -12.708  0.00  0.00    +0.000 OA
ATOM      2  N   UNL     1     -18.320  44.112 -14.190  0.00  0.00    +0.000 N 
ATOM      3  N   UNL     1     -19.889  42.301 -14.234  0.00  0.00    +0.000 NA
ATOM      4  N   UNL     1     -20.128  44.065 -15.704  0.00  0.00    +0.000 N 
ATOM      5  N   UNL     1     -16.312  43.972 -12.832  0.00  0.00    +0.000 NA
ATOM      6  C   UNL     1     -17.493  43.444 -13.250  0.00  0.00    +0.000 A 
ATOM      7  C   UNL     1     -19.447  43.453 -14.676  0.00  0.00    +0.000 A 
ATOM      8  C   UNL     1     -17.930  42.212 -12.756  0.00  0.00    +0.000 A 
ATOM      9  C   UNL     1     -19.217  41.650 -13.225  0.00  0.00    +0.000 A 
ATOM     10  C   UNL     1     -17.155  41.521 -11.821  0.00  0.00    +0.000 A 
ATOM     11  C   UNL     1     -15.952  42.065 -11.396  0.00  0.00    +0.000 A 
ATOM     12  C   UNL     1     -15.578  43.282 -11.929  0.00  0.00    +0.000 A 
ATOM     13  C   UNL     1     -21.291  43.484 -16.294  0.00  0.00    +0.000 C 
ATOM     14  H   UNL     1     -19.797  44.931 -16.112  0.00  0.00    +0.000 HD
ENDROOT
BRANCH   2  15
ATOM     15  C   UNL     1     -17.832  45.413 -14.644  0.00  0.00    +0.000 C 
ATOM     16  C   UNL     1     -18.376  46.513 -13.753  0.00  0.00    +0.000 C 
ENDBRANCH   2  15
TORSDOF 1
ENDMDL
MODEL 3
REMARK VINA RESULT:    -5.266      1.925      5.128
REMARK INTER + INTRA:          -5.566
REMARK INTER:                  -5.530
REMARK INTRA:                  -0.036
REMARK UNBOUND:                 0.008
REMARK  Name = 21568183
REMARK  3 active torsions:
REMARK  status: ('A' for Active; 'I' for Inactive)
REMARK    1  A    between atoms: N_2  and  C_6
REMARK    2  A    between atoms: N_4  and  C_15
REMARK    3  A    between atoms: C_6  and  C_10
REMARK                            x       y       z     vdW  Elec       q    Type
REMARK                         _______ _______ _______ _____ _____    ______ ____
ROOT
ATOM      1  O   UNL     1     -19.929  42.660 -15.531  0.00  0.00    +0.000 OA
ATOM      2  N   UNL     1     -17.812  42.799 -12.120  0.00  0.00    +0.000 N 
ATOM      3  N   UNL     1     -19.263  41.611 -13.612  0.00  0.00    +0.000 NA
ATOM      4  N   UNL     1     -18.499  40.585 -11.690  0.00  0.00    +0.000 N 
ATOM      5  N   UNL     1     -17.379  45.167 -12.445  0.00  0.00    +0.000 NA
ATOM      6  C   UNL     1     -17.958  44.007 -12.853  0.00  0.00    +0.000 A 
ATOM      7  C   UNL     1     -18.541  41.682 -12.520  0.00  0.00    +0.000 A 
ATOM      8  C   UNL     1     -18.720  43.971 -14.023  0.00  0.00    +0.000 A 
ATOM      9  C   UNL     1     -19.347  42.699 -14.451  0.00  0.00    +0.000 A 
ATOM     10  C   UNL     1     -18.885  45.131 -14.785  0.00  0.00    +0.000 A 
ATOM     11  C   UNL     1     -18.291  46.312 -14.365  0.00  0.00    +0.000 A 
ATOM     12  C   UNL     1     -17.556  46.277 -13.197  0.00  0.00    +0.000 A 
ATOM     13  C   UNL     1     -19.213  39.384 -11.984  0.00  0.00    +0.000 C 
ATOM     14  H   UNL     1     -17.996  40.610 -10.810  0.00  0.00    +0.000 HD
ENDROOT
BRANCH   2  15
ATOM     15  C   UNL     1     -16.973  42.887 -10.927  0.00  0.00    +0.000 C 
ATOM     16  C   UNL     1     -15.533  42.563 -11.276  0.00  0.00    +0.000 C 
ENDBRANCH   2  15
TORSDOF 1
ENDMDL
MODEL 4
REMARK VINA RESULT:    -5.125      2.205      3.382
REMARK INTER + INTRA:          -5.417
REMARK INTER:                  -5.371
REMARK INTRA:                  -0.046
REMARK UNBOUND:                 0.008
REMARK  Name = 21568183
REMARK  3 active torsions:
REMARK  status: ('A' for Active; 'I' for Inactive)
REMARK    1  A    between atoms: N_2  and  C_6
REMARK    2  A    between atoms: N_4  and  C_15
REMARK    3  A    between atoms: C_6  and  C_10
REMARK                            x       y       z     vdW  Elec       q    Type
REMARK                         _______ _______ _______ _____ _____    ______ ____
ROOT
ATOM      1  O   UNL     1     -20.377  42.498 -15.056  0.00  0.00    +0.000 OA
ATOM      2  N   UNL     1     -17.793  44.665 -12.874  0.00  0.00    +0.000 N 
ATOM      3  N   UNL     1     -18.983  44.304 -14.923  0.00  0.00    +0.000 NA
ATOM      4  N   UNL     1     -17.610  46.147 -14.699  0.00  0.00    +0.000 N 
ATOM      5  N   UNL     1     -17.772  42.961 -11.143  0.00  0.00    +0.000 NA
ATOM      6  C   UNL     1     -18.203  43.410 -12.352  0.00  0.00    +0.000 A 
ATOM      7  C   UNL     1     -18.164  45.002 -14.174  0.00  0.00    +0.000 A 
ATOM      8  C   UNL     1     -19.077  42.638 -13.122  0.00  0.00    +0.000 A 
ATOM      9  C   UNL     1     -19.534  43.141 -14.437  0.00  0.00    +0.000 A 
ATOM     10  C   UNL     1     -19.517  41.399 -12.646  0.00  0.00    +0.000 A 
ATOM     11  C   UNL     1     -19.076  40.947 -11.412  0.00  0.00    +0.000 A 
ATOM     12  C   UNL     1     -18.210  41.758 -10.706  0.00  0.00    +0.000 A 
ATOM     13  C   UNL     1     -17.903  46.592 -16.023  0.00  0.00    +0.000 C 
ATOM     14  H   UNL     1     -16.934  46.692 -14.177  0.00  0.00    +0.000 HD
ENDROOT
BRANCH   2  15
ATOM     15  C   UNL     1     -16.911  45.446 -12.010  0.00  0.00    +0.000 C 
ATOM     16  C   UNL     1     -17.707  46.507 -11.274  0.00  0.00    +0.000 C 
ENDBRANCH   2  15
TORSDOF 1
ENDMDL
MODEL 5
REMARK VINA RESULT:    -5.070      2.035      3.180
REMARK INTER + INTRA:          -5.359
REMARK INTER:                  -5.454
REMARK INTRA:                   0.095
REMARK UNBOUND:                 0.008
REMARK  Name = 21568183
REMARK  3 active torsions:
REMARK  status: ('A' for Active; 'I' for Inactive)
REMARK    1  A    between atoms: N_2  and  C_6
REMARK    2  A    between atoms: N_4  and  C_15
REMARK    3  A    between atoms: C_6  and  C_10
REMARK                            x       y       z     vdW  Elec       q    Type
REMARK                         _______ _______ _______ _____ _____    ______ ____
ROOT
ATOM      1  O   UNL     1     -20.353  42.320 -14.363  0.00  0.00    +0.000 OA
ATOM      2  N   UNL     1     -17.033  43.377 -12.364  0.00  0.00    +0.000 N 
ATOM      3  N   UNL     1     -18.601  43.770 -14.134  0.00  0.00    +0.000 NA
ATOM      4  N   UNL     1     -16.847  45.235 -13.805  0.00  0.00    +0.000 N 
ATOM      5  N   UNL     1     -17.087  41.300 -11.108  0.00  0.00    +0.000 NA
ATOM      6  C   UNL     1     -17.610  42.115 -12.061  0.00  0.00    +0.000 A 
ATOM      7  C   UNL     1     -17.537  44.100 -13.443  0.00  0.00    +0.000 A 
ATOM      8  C   UNL     1     -18.746  41.729 -12.777  0.00  0.00    +0.000 A 
ATOM      9  C   UNL     1     -19.299  42.628 -13.815  0.00  0.00    +0.000 A 
ATOM     10  C   UNL     1     -19.355  40.500 -12.507  0.00  0.00    +0.000 A 
ATOM     11  C   UNL     1     -18.820  39.672 -11.533  0.00  0.00    +0.000 A 
ATOM     12  C   UNL     1     -17.693  40.114 -10.867  0.00  0.00    +0.000 A 
ATOM     13  C   UNL     1     -17.257  46.054 -14.900  0.00  0.00    +0.000 C 
ATOM     14  H   UNL     1     -15.991  45.503 -13.333  0.00  0.00    +0.000 HD
ENDROOT
BRANCH   2  15
ATOM     15  C   UNL     1     -15.871  43.746 -11.560  0.00  0.00    +0.000 C 
ATOM     16  C   UNL     1     -14.593  43.417 -12.308  0.00  0.00    +0.000 C 
ENDBRANCH   2  15
TORSDOF 1
ENDMDL
