MODEL 1
REMARK VINA RESULT:    -5.439      0.000      0.000
REMARK INTER + INTRA:          -7.068
REMARK INTER:                  -6.551
REMARK INTRA:                  -0.517
REMARK UNBOUND:                -0.517
REMARK  Name = 21673434
REMARK  6 active torsions:
REMARK  status: ('A' for Active; 'I' for Inactive)
REMARK    1  A    between atoms: N_2  and  C_5
REMARK    2  A    between atoms: N_2  and  C_6
REMARK    3  A    between atoms: N_4  and  C_11
REMARK    4  A    between atoms: C_5  and  C_9
REMARK    5  A    between atoms: C_6  and  C_10
REMARK    6  A    between atoms: C_7  and  C_8
REMARK                            x       y       z     vdW  Elec       q    Type
REMARK                         _______ _______ _______ _____ _____    ______ ____
ROOT
ATOM      1  N   UNL     1     -20.544  40.010  -9.130  0.00  0.00    +0.000 NA
ATOM      2  C   UNL     1     -18.510  41.026  -9.950  0.00  0.00    +0.000 A 
ATOM      3  C   UNL     1     -19.555  40.123 -10.045  0.00  0.00    +0.000 A 
ATOM      4  C   UNL     1     -18.476  41.869  -8.844  0.00  0.00    +0.000 A 
ATOM      5  C   UNL     1     -19.476  41.784  -7.880  0.00  0.00    +0.000 A 
ATOM      6  C   UNL     1     -20.478  40.845  -8.069  0.00  0.00    +0.000 A 
ENDROOT
BRANCH   2   9
ATOM      7  O   UNL     1     -16.467  40.400 -10.796  0.00  0.00    +0.000 OA
ATOM      8  N   UNL     1     -17.616  42.030 -12.016  0.00  0.00    +0.000 N 
ATOM      9  C   UNL     1     -17.447  41.126 -10.963  0.00  0.00    +0.000 C 
BRANCH   8  10
ATOM     10  C   UNL     1     -16.571  42.159 -13.022  0.00  0.00    +0.000 C 
ATOM     11  C   UNL     1     -15.763  43.420 -12.777  0.00  0.00    +0.000 C 
ENDBRANCH   8  10
BRANCH   8  12
ATOM     12  C   UNL     1     -18.785  42.886 -12.205  0.00  0.00    +0.000 C 
ATOM     13  C   UNL     1     -19.461  42.563 -13.524  0.00  0.00    +0.000 C 
ENDBRANCH   8  12
ENDBRANCH   2   9
BRANCH   3  14
ATOM     14  N   UNL     1     -19.596  39.261 -11.169  0.00  0.00    +0.000 N 
ATOM     15  H   UNL     1     -19.557  38.260 -11.014  0.00  0.00    +0.000 HD
ATOM     16  H   UNL     1     -19.197  39.618 -12.029  0.00  0.00    +0.000 HD
ENDBRANCH   3  14
TORSDOF 4
ENDMDL
MODEL 2
REMARK VINA RESULT:    -4.371      2.383      3.080
REMARK INTER + INTRA:          -5.782
REMARK INTER:                  -5.253
REMARK INTRA:                  -0.529
REMARK UNBOUND:                -0.517
REMARK  Name = 21673434
REMARK  6 active torsions:
REMARK  status: ('A' for Active; 'I' for Inactive)
REMARK    1  A    between atoms: N_2  and  C_5
REMARK    2  A    between atoms: N_2  and  C_6
REMARK    3  A    between atoms: N_4  and  C_11
REMARK    4  A    between atoms: C_5  and  C_9
REMARK    5  A    between atoms: C_6  and  C_10
REMARK    6  A    between atoms: C_7  and  C_8
REMARK                            x       y       z     vdW  Elec       q    Type
REMARK                         _______ _______ _______ _____ _____    ______ ____
ROOT
ATOM      1  N   UNL     1     -19.483  41.015 -11.335  0.00  0.00    +0.000 NA
ATOM      2  C   UNL     1     -17.776  42.675 -11.754  0.00  0.00    +0.000 A 
ATOM      3  C   UNL     1     -18.748  41.782 -12.172  0.00  0.00    +0.000 A 
ATOM      4  C   UNL     1     -17.540  42.790 -10.388  0.00  0.00    +0.000 A 
ATOM      5  C   UNL     1     -18.275  42.017  -9.495  0.00  0.00    +0.000 A 
ATOM      6  C   UNL     1     -19.226  41.154 -10.015  0.00  0.00    +0.000 A 
ENDROOT
BRANCH   2   9
ATOM      7  O   UNL     1     -15.992  42.967 -13.174  0.00  0.00    +0.000 OA
ATOM      8  N   UNL     1     -17.424  44.802 -12.950  0.00  0.00    +0.000 N 
ATOM      9  C   UNL     1     -16.992  43.497 -12.691  0.00  0.00    +0.000 C 
BRANCH   8  10
ATOM     10  C   UNL     1     -16.656  45.640 -13.860  0.00  0.00    +0.000 C 
ATOM     11  C   UNL     1     -17.470  45.941 -15.104  0.00  0.00    +0.000 C 
ENDBRANCH   8  10
BRANCH   8  12
ATOM     12  C   UNL     1     -18.614  45.421 -12.371  0.00  0.00    +0.000 C 
ATOM     13  C   UNL     1     -18.222  46.618 -11.527  0.00  0.00    +0.000 C 
ENDBRANCH   8  12
ENDBRANCH   2   9
BRANCH   3  14
ATOM     14  N   UNL     1     -18.994  41.660 -13.563  0.00  0.00    +0.000 N 
ATOM     15  H   UNL     1     -18.338  41.132 -14.126  0.00  0.00    +0.000 HD
ATOM     16  H   UNL     1     -19.479  42.431 -14.006  0.00  0.00    +0.000 HD
ENDBRANCH   3  14
TORSDOF 4
ENDMDL
MODEL 3
REMARK VINA RESULT:    -4.343      2.439      3.604
REMARK INTER + INTRA:          -5.748
REMARK INTER:                  -5.276
REMARK INTRA:                  -0.472
REMARK UNBOUND:                -0.517
REMARK  Name = 21673434
REMARK  6 active torsions:
REMARK  status: ('A' for Active; 'I' for Inactive)
REMARK    1  A    between atoms: N_2  and  C_5
REMARK    2  A    between atoms: N_2  and  C_6
REMARK    3  A    between atoms: N_4  and  C_11
REMARK    4  A    between atoms: C_5  and  C_9
REMARK    5  A    between atoms: C_6  and  C_10
REMARK    6  A    between atoms: C_7  and  C_8
REMARK                            x       y       z     vdW  Elec       q    Type
REMARK                         _______ _______ _______ _____ _____    ______ ____
ROOT
ATOM      1  N   UNL     1     -19.406  40.389 -12.731  0.00  0.00    +0.000 NA
ATOM      2  C   UNL     1     -18.401  42.509 -12.146  0.00  0.00    +0.000 A 
ATOM      3  C   UNL     1     -19.057  41.662 -13.024  0.00  0.00    +0.000 A 
ATOM      4  C   UNL     1     -18.081  42.018 -10.884  0.00  0.00    +0.000 A 
ATOM      5  C   UNL     1     -18.423  40.713 -10.545  0.00  0.00    +0.000 A 
ATOM      6  C   UNL     1     -19.078  39.947 -11.496  0.00  0.00    +0.000 A 
ENDROOT
BRANCH   2   9
ATOM      7  O   UNL     1     -18.961  44.698 -12.567  0.00  0.00    +0.000 OA
ATOM      8  N   UNL     1     -16.687  44.182 -12.727  0.00  0.00    +0.000 N 
ATOM      9  C   UNL     1     -18.035  43.891 -12.494  0.00  0.00    +0.000 C 
BRANCH   8  10
ATOM     10  C   UNL     1     -16.302  45.539 -13.090  0.00  0.00    +0.000 C 
ATOM     11  C   UNL     1     -16.061  45.631 -14.585  0.00  0.00    +0.000 C 
ENDBRANCH   8  10
BRANCH   8  12
ATOM     12  C   UNL     1     -15.594  43.217 -12.637  0.00  0.00    +0.000 C 
ATOM     13  C   UNL     1     -14.681  43.568 -11.477  0.00  0.00    +0.000 C 
ENDBRANCH   8  12
ENDBRANCH   2   9
BRANCH   3  14
ATOM     14  N   UNL     1     -19.386  42.156 -14.311  0.00  0.00    +0.000 N 
ATOM     15  H   UNL     1     -19.165  43.119 -14.532  0.00  0.00    +0.000 HD
ATOM     16  H   UNL     1     -20.197  41.745 -14.760  0.00  0.00    +0.000 HD
ENDBRANCH   3  14
TORSDOF 4
ENDMDL
MODEL 4
REMARK VINA RESULT:    -4.251      2.858      3.883
REMARK INTER + INTRA:          -5.637
REMARK INTER:                  -5.104
REMARK INTRA:                  -0.533
REMARK UNBOUND:                -0.517
REMARK  Name = 21673434
REMARK  6 active torsions:
REMARK  status: ('A' for Active; 'I' for Inactive)
REMARK    1  A    between atoms: N_2  and  C_5
REMARK    2  A    between atoms: N_2  and  C_6
REMARK    3  A    between atoms: N_4  and  C_11
REMARK    4  A    between atoms: C_5  and  C_9
REMARK    5  A    between atoms: C_6  and  C_10
REMARK    6  A    between atoms: C_7  and  C_8
REMARK                            x       y       z     vdW  Elec       q    Type
REMARK                         _______ _______ _______ _____ _____    ______ ____
ROOT
ATOM      1  N   UNL     1     -16.805  39.965 -12.470  0.00  0.00    +0.000 NA
ATOM      2  C   UNL     1     -17.786  42.014 -11.642  0.00  0.00    +0.000 A 
ATOM      3  C   UNL     1     -16.714  41.162 -11.847  0.00  0.00    +0.000 A 
ATOM      4  C   UNL     1     -19.034  41.614 -12.108  0.00  0.00    +0.000 A 
ATOM      5  C   UNL     1     -19.169  40.390 -12.755  0.00  0.00    +0.000 A 
ATOM      6  C   UNL     1     -18.034  39.610 -12.909  0.00  0.00    +0.000 A 
ENDROOT
BRANCH   2   9
ATOM      7  O   UNL     1     -17.684  43.285  -9.730  0.00  0.00    +0.000 OA
ATOM      8  N   UNL     1     -17.523  44.463 -11.743  0.00  0.00    +0.000 N 
ATOM      9  C   UNL     1     -17.655  43.312 -10.960  0.00  0.00    +0.000 C 
BRANCH   8  10
ATOM     10  C   UNL     1     -17.408  45.760 -11.090  0.00  0.00    +0.000 C 
ATOM     11  C   UNL     1     -18.334  46.762 -11.755  0.00  0.00    +0.000 C 
ENDBRANCH   8  10
BRANCH   8  12
ATOM     12  C   UNL     1     -17.488  44.484 -13.203  0.00  0.00    +0.000 C 
ATOM     13  C   UNL     1     -16.053  44.561 -13.690  0.00  0.00    +0.000 C 
ENDBRANCH   8  12
ENDBRANCH   2   9
BRANCH   3  14
ATOM     14  N   UNL     1     -15.439  41.563 -11.375  0.00  0.00    +0.000 N 
ATOM     15  H   UNL     1     -14.971  42.333 -11.838  0.00  0.00    +0.000 HD
ATOM     16  H   UNL     1     -14.860  40.840 -10.965  0.00  0.00    +0.000 HD
ENDBRANCH   3  14
TORSDOF 4
ENDMDL
MODEL 5
REMARK VINA RESULT:    -4.129      2.214      3.193
REMARK INTER + INTRA:          -5.490
REMARK INTER:                  -4.981
REMARK INTRA:                  -0.509
REMARK UNBOUND:                -0.517
REMARK  Name = 21673434
REMARK  6 active torsions:
REMARK  status: ('A' for Active; 'I' for Inactive)
REMARK    1  A    between atoms: N_2  and  C_5
REMARK    2  A    between atoms: N_2  and  C_6
REMARK    3  A    between atoms: N_4  and  C_11
REMARK    4  A    between atoms: C_5  and  C_9
REMARK    5  A    between atoms: C_6  and  C_10
REMARK    6  A    between atoms: C_7  and  C_8
REMARK                            x       y       z     vdW  Elec       q    Type
REMARK                         _______ _______ _______ _____ _____    ______ ____
ROOT
ATOM      1  N   UNL     1     -17.073  40.047 -10.820  0.00  0.00    +0.000 NA
ATOM      2  C   UNL     1     -18.374  41.755 -11.932  0.00  0.00    +0.000 A 
ATOM      3  C   UNL     1     -17.429  40.742 -11.924  0.00  0.00    +0.000 A 
ATOM      4  C   UNL     1     -18.994  42.077 -10.730  0.00  0.00    +0.000 A 
ATOM      5  C   UNL     1     -18.655  41.386  -9.572  0.00  0.00    +0.000 A 
ATOM      6  C   UNL     1     -17.697  40.389  -9.670  0.00  0.00    +0.000 A 
ENDROOT
BRANCH   2   9
ATOM      7  O   UNL     1     -19.601  41.975 -13.863  0.00  0.00    +0.000 OA
ATOM      8  N   UNL     1     -18.089  43.701 -13.418  0.00  0.00    +0.000 N 
ATOM      9  C   UNL     1     -18.741  42.493 -13.152  0.00  0.00    +0.000 C 
BRANCH   8  10
ATOM     10  C   UNL     1     -18.423  44.441 -14.626  0.00  0.00    +0.000 C 
ATOM     11  C   UNL     1     -18.482  45.928 -14.328  0.00  0.00    +0.000 C 
ENDBRANCH   8  10
BRANCH   8  12
ATOM     12  C   UNL     1     -17.070  44.309 -12.565  0.00  0.00    +0.000 C 
ATOM     13  C   UNL     1     -15.686  43.927 -13.053  0.00  0.00    +0.000 C 
ENDBRANCH   8  12
ENDBRANCH   2   9
BRANCH   3  14
ATOM     14  N   UNL     1     -16.793  40.408 -13.145  0.00  0.00    +0.000 N 
ATOM     15  H   UNL     1     -17.337  39.944 -13.864  0.00  0.00    +0.000 HD
ATOM     16  H   UNL     1     -15.803  40.199 -13.098  0.00  0.00    +0.000 HD
ENDBRANCH   3  14
TORSDOF 4
ENDMDL
