MODEL 1
REMARK VINA RESULT:    -6.652      0.000      0.000
REMARK INTER + INTRA:          -6.652
REMARK INTER:                  -6.652
REMARK INTRA:                   0.000
REMARK UNBOUND:                 0.000
REMARK  Name = 21793036
REMARK  0 active torsions:
REMARK  status: ('A' for Active; 'I' for Inactive)
REMARK                            x       y       z     vdW  Elec       q    Type
REMARK                         _______ _______ _______ _____ _____    ______ ____
ROOT
ATOM      1  O   UNL     1     -18.492  39.601 -13.475  0.00  0.00    +0.000 OA
ATOM      2  N   UNL     1     -18.643  41.386  -9.870  0.00  0.00    +0.000 N 
ATOM      3  N   UNL     1     -19.283  39.592 -11.332  0.00  0.00    +0.000 NA
ATOM      4  N   UNL     1     -17.186  43.167 -10.657  0.00  0.00    +0.000 NA
ATOM      5  N   UNL     1     -20.085  39.547  -9.225  0.00  0.00    +0.000 NA
ATOM      6  C   UNL     1     -17.861  42.010 -10.887  0.00  0.00    +0.000 A 
ATOM      7  C   UNL     1     -17.809  41.389 -12.140  0.00  0.00    +0.000 A 
ATOM      8  C   UNL     1     -19.310  40.196 -10.179  0.00  0.00    +0.000 A 
ATOM      9  C   UNL     1     -18.762  41.917  -8.597  0.00  0.00    +0.000 A 
ATOM     10  C   UNL     1     -18.552  40.127 -12.369  0.00  0.00    +0.000 A 
ATOM     11  C   UNL     1     -17.057  41.964 -13.167  0.00  0.00    +0.000 A 
ATOM     12  C   UNL     1     -19.489  41.346  -7.632  0.00  0.00    +0.000 A 
ATOM     13  C   UNL     1     -16.368  43.145 -12.930  0.00  0.00    +0.000 A 
ATOM     14  C   UNL     1     -16.465  43.702 -11.670  0.00  0.00    +0.000 A 
ATOM     15  C   UNL     1     -20.156  40.095  -8.051  0.00  0.00    +0.000 A 
ENDROOT
TORSDOF 0
ENDMDL
MODEL 2
REMARK VINA RESULT:    -6.502      1.269      4.189
REMARK INTER + INTRA:          -6.502
REMARK INTER:                  -6.502
REMARK INTRA:                   0.000
REMARK UNBOUND:                 0.000
REMARK  Name = 21793036
REMARK  0 active torsions:
REMARK  status: ('A' for Active; 'I' for Inactive)
REMARK                            x       y       z     vdW  Elec       q    Type
REMARK                         _______ _______ _______ _____ _____    ______ ____
ROOT
ATOM      1  O   UNL     1     -19.613  38.848 -12.109  0.00  0.00    +0.000 OA
ATOM      2  N   UNL     1     -17.584  42.162 -11.056  0.00  0.00    +0.000 N 
ATOM      3  N   UNL     1     -18.153  40.504 -12.697  0.00  0.00    +0.000 NA
ATOM      4  N   UNL     1     -18.543  42.075  -8.823  0.00  0.00    +0.000 NA
ATOM      5  N   UNL     1     -16.710  42.122 -13.317  0.00  0.00    +0.000 NA
ATOM      6  C   UNL     1     -18.424  41.557 -10.074  0.00  0.00    +0.000 A 
ATOM      7  C   UNL     1     -19.128  40.406 -10.440  0.00  0.00    +0.000 A 
ATOM      8  C   UNL     1     -17.512  41.574 -12.323  0.00  0.00    +0.000 A 
ATOM      9  C   UNL     1     -16.844  43.303 -10.797  0.00  0.00    +0.000 A 
ATOM     10  C   UNL     1     -18.985  39.858 -11.811  0.00  0.00    +0.000 A 
ATOM     11  C   UNL     1     -19.962  39.779  -9.511  0.00  0.00    +0.000 A 
ATOM     12  C   UNL     1     -16.053  43.882 -11.705  0.00  0.00    +0.000 A 
ATOM     13  C   UNL     1     -20.082  40.309  -8.235  0.00  0.00    +0.000 A 
ATOM     14  C   UNL     1     -19.357  41.448  -7.943  0.00  0.00    +0.000 A 
ATOM     15  C   UNL     1     -16.041  43.191 -13.012  0.00  0.00    +0.000 A 
ENDROOT
TORSDOF 0
ENDMDL
MODEL 3
REMARK VINA RESULT:    -6.187      2.421      3.179
REMARK INTER + INTRA:          -6.187
REMARK INTER:                  -6.187
REMARK INTRA:                   0.000
REMARK UNBOUND:                 0.000
REMARK  Name = 21793036
REMARK  0 active torsions:
REMARK  status: ('A' for Active; 'I' for Inactive)
REMARK                            x       y       z     vdW  Elec       q    Type
REMARK                         _______ _______ _______ _____ _____    ______ ____
ROOT
ATOM      1  O   UNL     1     -19.803  43.726 -15.314  0.00  0.00    +0.000 OA
ATOM      2  N   UNL     1     -18.379  42.105 -11.915  0.00  0.00    +0.000 N 
ATOM      3  N   UNL     1     -19.554  41.877 -13.997  0.00  0.00    +0.000 NA
ATOM      4  N   UNL     1     -17.475  44.257 -11.232  0.00  0.00    +0.000 NA
ATOM      5  N   UNL     1     -19.331  40.027 -12.725  0.00  0.00    +0.000 NA
ATOM      6  C   UNL     1     -18.150  43.496 -12.134  0.00  0.00    +0.000 A 
ATOM      7  C   UNL     1     -18.645  44.059 -13.315  0.00  0.00    +0.000 A 
ATOM      8  C   UNL     1     -19.081  41.385 -12.888  0.00  0.00    +0.000 A 
ATOM      9  C   UNL     1     -17.932  41.450 -10.781  0.00  0.00    +0.000 A 
ATOM     10  C   UNL     1     -19.378  43.211 -14.286  0.00  0.00    +0.000 A 
ATOM     11  C   UNL     1     -18.446  45.418 -13.571  0.00  0.00    +0.000 A 
ATOM     12  C   UNL     1     -18.137  40.148 -10.560  0.00  0.00    +0.000 A 
ATOM     13  C   UNL     1     -17.757  46.192 -12.649  0.00  0.00    +0.000 A 
ATOM     14  C   UNL     1     -17.297  45.570 -11.506  0.00  0.00    +0.000 A 
ATOM     15  C   UNL     1     -18.886  39.472 -11.641  0.00  0.00    +0.000 A 
ENDROOT
TORSDOF 0
ENDMDL
MODEL 4
REMARK VINA RESULT:    -5.906      2.756      3.860
REMARK INTER + INTRA:          -5.906
REMARK INTER:                  -5.906
REMARK INTRA:                   0.000
REMARK UNBOUND:                 0.000
REMARK  Name = 21793036
REMARK  0 active torsions:
REMARK  status: ('A' for Active; 'I' for Inactive)
REMARK                            x       y       z     vdW  Elec       q    Type
REMARK                         _______ _______ _______ _____ _____    ______ ____
ROOT
ATOM      1  O   UNL     1     -16.889  45.320 -11.949  0.00  0.00    +0.000 OA
ATOM      2  N   UNL     1     -18.756  41.769 -12.284  0.00  0.00    +0.000 N 
ATOM      3  N   UNL     1     -17.361  43.278 -11.041  0.00  0.00    +0.000 NA
ATOM      4  N   UNL     1     -19.644  42.407 -14.456  0.00  0.00    +0.000 NA
ATOM      5  N   UNL     1     -17.803  41.272 -10.111  0.00  0.00    +0.000 NA
ATOM      6  C   UNL     1     -18.901  42.700 -13.356  0.00  0.00    +0.000 A 
ATOM      7  C   UNL     1     -18.252  43.933 -13.239  0.00  0.00    +0.000 A 
ATOM      8  C   UNL     1     -17.977  42.140 -11.182  0.00  0.00    +0.000 A 
ATOM      9  C   UNL     1     -19.356  40.522 -12.299  0.00  0.00    +0.000 A 
ATOM     10  C   UNL     1     -17.449  44.232 -12.029  0.00  0.00    +0.000 A 
ATOM     11  C   UNL     1     -18.366  44.875 -14.265  0.00  0.00    +0.000 A 
ATOM     12  C   UNL     1     -19.230  39.639 -11.304  0.00  0.00    +0.000 A 
ATOM     13  C   UNL     1     -19.124  44.574 -15.387  0.00  0.00    +0.000 A 
ATOM     14  C   UNL     1     -19.736  43.337 -15.434  0.00  0.00    +0.000 A 
ATOM     15  C   UNL     1     -18.391  40.118 -10.185  0.00  0.00    +0.000 A 
ENDROOT
TORSDOF 0
ENDMDL
MODEL 5
REMARK VINA RESULT:    -5.695      2.830      5.420
REMARK INTER + INTRA:          -5.695
REMARK INTER:                  -5.695
REMARK INTRA:                   0.000
REMARK UNBOUND:                 0.000
REMARK  Name = 21793036
REMARK  0 active torsions:
REMARK  status: ('A' for Active; 'I' for Inactive)
REMARK                            x       y       z     vdW  Elec       q    Type
REMARK                         _______ _______ _______ _____ _____    ______ ____
ROOT
ATOM      1  O   UNL     1     -15.930  43.093 -10.938  0.00  0.00    +0.000 OA
ATOM      2  N   UNL     1     -18.686  42.906 -13.867  0.00  0.00    +0.000 N 
ATOM      3  N   UNL     1     -16.963  44.109 -12.704  0.00  0.00    +0.000 NA
ATOM      4  N   UNL     1     -19.312  40.660 -13.175  0.00  0.00    +0.000 NA
ATOM      5  N   UNL     1     -17.958  45.146 -14.442  0.00  0.00    +0.000 NA
ATOM      6  C   UNL     1     -18.546  41.772 -13.013  0.00  0.00    +0.000 A 
ATOM      7  C   UNL     1     -17.589  41.837 -11.996  0.00  0.00    +0.000 A 
ATOM      8  C   UNL     1     -17.863  44.014 -13.640  0.00  0.00    +0.000 A 
ATOM      9  C   UNL     1     -19.603  42.945 -14.903  0.00  0.00    +0.000 A 
ATOM     10  C   UNL     1     -16.764  43.059 -11.837  0.00  0.00    +0.000 A 
ATOM     11  C   UNL     1     -17.418  40.750 -11.135  0.00  0.00    +0.000 A 
ATOM     12  C   UNL     1     -19.747  43.999 -15.712  0.00  0.00    +0.000 A 
ATOM     13  C   UNL     1     -18.200  39.617 -11.303  0.00  0.00    +0.000 A 
ATOM     14  C   UNL     1     -19.125  39.622 -12.328  0.00  0.00    +0.000 A 
ATOM     15  C   UNL     1     -18.836  45.120 -15.396  0.00  0.00    +0.000 A 
ENDROOT
TORSDOF 0
ENDMDL
