MODEL 1
REMARK VINA RESULT:    -5.100      0.000      0.000
REMARK INTER + INTRA:          -5.808
REMARK INTER:                  -5.547
REMARK INTRA:                  -0.261
REMARK UNBOUND:                -0.261
REMARK  Name = 21850029
REMARK  2 active torsions:
REMARK  status: ('A' for Active; 'I' for Inactive)
REMARK    1  A    between atoms: N_3  and  C_6
REMARK    2  A    between atoms: C_5  and  C_10
REMARK                            x       y       z     vdW  Elec       q    Type
REMARK                         _______ _______ _______ _____ _____    ______ ____
ROOT
ATOM      1  N   UNL     1     -18.447  42.562  -8.288  0.00  0.00    +0.000 NA
ATOM      2  N   UNL     1     -17.363  42.075 -10.337  0.00  0.00    +0.000 N 
ATOM      3  C   UNL     1     -19.279  40.771  -9.682  0.00  0.00    +0.000 A 
ATOM      4  C   UNL     1     -20.285  40.509  -8.759  0.00  0.00    +0.000 A 
ATOM      5  C   UNL     1     -18.393  41.799  -9.402  0.00  0.00    +0.000 A 
ATOM      6  C   UNL     1     -20.373  41.273  -7.601  0.00  0.00    +0.000 A 
ATOM      7  C   UNL     1     -19.439  42.279  -7.414  0.00  0.00    +0.000 A 
ATOM      8  H   UNL     1     -16.947  41.298 -10.836  0.00  0.00    +0.000 HD
ATOM      9  H   UNL     1     -16.751  42.847 -10.105  0.00  0.00    +0.000 HD
ENDROOT
BRANCH   4  10
ATOM     10  N   UNL     1     -21.224  39.477  -8.976  0.00  0.00    +0.000 N 
ATOM     11  H   UNL     1     -20.899  38.546  -9.210  0.00  0.00    +0.000 HD
ATOM     12  H   UNL     1     -22.215  39.647  -8.884  0.00  0.00    +0.000 HD
ENDBRANCH   4  10
BRANCH   3  14
ATOM     13  O   UNL     1     -18.223  39.223 -11.127  0.00  0.00    +0.000 OA
ATOM     14  C   UNL     1     -19.167  39.980 -10.905  0.00  0.00    +0.000 C 
ENDBRANCH   3  14
TORSDOF 2
ENDMDL
MODEL 2
REMARK VINA RESULT:    -5.013      2.463      4.059
REMARK INTER + INTRA:          -5.715
REMARK INTER:                  -5.459
REMARK INTRA:                  -0.256
REMARK UNBOUND:                -0.261
REMARK  Name = 21850029
REMARK  2 active torsions:
REMARK  status: ('A' for Active; 'I' for Inactive)
REMARK    1  A    between atoms: N_3  and  C_6
REMARK    2  A    between atoms: C_5  and  C_10
REMARK                            x       y       z     vdW  Elec       q    Type
REMARK                         _______ _______ _______ _____ _____    ______ ____
ROOT
ATOM      1  N   UNL     1     -18.729  41.062 -13.347  0.00  0.00    +0.000 NA
ATOM      2  N   UNL     1     -19.914  39.228 -12.427  0.00  0.00    +0.000 N 
ATOM      3  C   UNL     1     -18.878  40.820 -10.946  0.00  0.00    +0.000 A 
ATOM      4  C   UNL     1     -18.127  41.978 -10.775  0.00  0.00    +0.000 A 
ATOM      5  C   UNL     1     -19.149  40.408 -12.242  0.00  0.00    +0.000 A 
ATOM      6  C   UNL     1     -17.678  42.679 -11.889  0.00  0.00    +0.000 A 
ATOM      7  C   UNL     1     -18.003  42.184 -13.142  0.00  0.00    +0.000 A 
ATOM      8  H   UNL     1     -19.789  38.467 -11.771  0.00  0.00    +0.000 HD
ATOM      9  H   UNL     1     -20.107  38.974 -13.388  0.00  0.00    +0.000 HD
ENDROOT
BRANCH   4  10
ATOM     10  N   UNL     1     -17.811  42.458  -9.486  0.00  0.00    +0.000 N 
ATOM     11  H   UNL     1     -17.618  41.801  -8.740  0.00  0.00    +0.000 HD
ATOM     12  H   UNL     1     -17.757  43.449  -9.298  0.00  0.00    +0.000 HD
ENDBRANCH   4  10
BRANCH   3  14
ATOM     13  O   UNL     1     -20.232  40.492  -9.034  0.00  0.00    +0.000 OA
ATOM     14  C   UNL     1     -19.359  40.067  -9.791  0.00  0.00    +0.000 C 
ENDBRANCH   3  14
TORSDOF 2
ENDMDL
MODEL 3
REMARK VINA RESULT:    -4.887      2.351      3.622
REMARK INTER + INTRA:          -5.577
REMARK INTER:                  -5.318
REMARK INTRA:                  -0.259
REMARK UNBOUND:                -0.261
REMARK  Name = 21850029
REMARK  2 active torsions:
REMARK  status: ('A' for Active; 'I' for Inactive)
REMARK    1  A    between atoms: N_3  and  C_6
REMARK    2  A    between atoms: C_5  and  C_10
REMARK                            x       y       z     vdW  Elec       q    Type
REMARK                         _______ _______ _______ _____ _____    ______ ____
ROOT
ATOM      1  N   UNL     1     -19.227  39.725 -10.187  0.00  0.00    +0.000 NA
ATOM      2  N   UNL     1     -19.701  39.324 -12.474  0.00  0.00    +0.000 N 
ATOM      3  C   UNL     1     -18.608  41.375 -11.842  0.00  0.00    +0.000 A 
ATOM      4  C   UNL     1     -18.084  42.189 -10.844  0.00  0.00    +0.000 A 
ATOM      5  C   UNL     1     -19.164  40.162 -11.464  0.00  0.00    +0.000 A 
ATOM      6  C   UNL     1     -18.130  41.772  -9.519  0.00  0.00    +0.000 A 
ATOM      7  C   UNL     1     -18.707  40.543  -9.245  0.00  0.00    +0.000 A 
ATOM      8  H   UNL     1     -20.161  39.759 -13.264  0.00  0.00    +0.000 HD
ATOM      9  H   UNL     1     -20.078  38.439 -12.158  0.00  0.00    +0.000 HD
ENDROOT
BRANCH   4  10
ATOM     10  N   UNL     1     -17.501  43.438 -11.154  0.00  0.00    +0.000 N 
ATOM     11  H   UNL     1     -17.021  43.959 -10.431  0.00  0.00    +0.000 HD
ATOM     12  H   UNL     1     -17.539  43.812 -12.091  0.00  0.00    +0.000 HD
ENDBRANCH   4  10
BRANCH   3  14
ATOM     13  O   UNL     1     -19.585  41.950 -13.919  0.00  0.00    +0.000 OA
ATOM     14  C   UNL     1     -18.570  41.793 -13.241  0.00  0.00    +0.000 C 
ENDBRANCH   3  14
TORSDOF 2
ENDMDL
MODEL 4
REMARK VINA RESULT:    -4.849      1.805      2.126
REMARK INTER + INTRA:          -5.536
REMARK INTER:                  -5.287
REMARK INTRA:                  -0.248
REMARK UNBOUND:                -0.261
REMARK  Name = 21850029
REMARK  2 active torsions:
REMARK  status: ('A' for Active; 'I' for Inactive)
REMARK    1  A    between atoms: N_3  and  C_6
REMARK    2  A    between atoms: C_5  and  C_10
REMARK                            x       y       z     vdW  Elec       q    Type
REMARK                         _______ _______ _______ _____ _____    ______ ____
ROOT
ATOM      1  N   UNL     1     -18.174  42.160  -9.052  0.00  0.00    +0.000 NA
ATOM      2  N   UNL     1     -17.173  43.211 -10.925  0.00  0.00    +0.000 N 
ATOM      3  C   UNL     1     -18.400  41.163 -11.243  0.00  0.00    +0.000 A 
ATOM      4  C   UNL     1     -19.150  40.126 -10.701  0.00  0.00    +0.000 A 
ATOM      5  C   UNL     1     -17.939  42.148 -10.383  0.00  0.00    +0.000 A 
ATOM      6  C   UNL     1     -19.413  40.105  -9.337  0.00  0.00    +0.000 A 
ATOM      7  C   UNL     1     -18.907  41.136  -8.562  0.00  0.00    +0.000 A 
ATOM      8  H   UNL     1     -16.544  43.006 -11.692  0.00  0.00    +0.000 HD
ATOM      9  H   UNL     1     -16.873  43.919 -10.267  0.00  0.00    +0.000 HD
ENDROOT
BRANCH   4  10
ATOM     10  N   UNL     1     -19.654  39.088 -11.516  0.00  0.00    +0.000 N 
ATOM     11  H   UNL     1     -20.532  38.645 -11.276  0.00  0.00    +0.000 HD
ATOM     12  H   UNL     1     -19.161  38.791 -12.345  0.00  0.00    +0.000 HD
ENDBRANCH   4  10
BRANCH   3  14
ATOM     13  O   UNL     1     -18.982  41.083 -13.535  0.00  0.00    +0.000 OA
ATOM     14  C   UNL     1     -18.111  41.205 -12.674  0.00  0.00    +0.000 C 
ENDBRANCH   3  14
TORSDOF 2
ENDMDL
MODEL 5
REMARK VINA RESULT:    -4.834      2.062      4.191
REMARK INTER + INTRA:          -5.520
REMARK INTER:                  -5.285
REMARK INTRA:                  -0.235
REMARK UNBOUND:                -0.261
REMARK  Name = 21850029
REMARK  2 active torsions:
REMARK  status: ('A' for Active; 'I' for Inactive)
REMARK    1  A    between atoms: N_3  and  C_6
REMARK    2  A    between atoms: C_5  and  C_10
REMARK                            x       y       z     vdW  Elec       q    Type
REMARK                         _______ _______ _______ _____ _____    ______ ____
ROOT
ATOM      1  N   UNL     1     -19.137  39.246 -11.303  0.00  0.00    +0.000 NA
ATOM      2  N   UNL     1     -20.377  39.811  -9.366  0.00  0.00    +0.000 N 
ATOM      3  C   UNL     1     -18.445  41.125  -9.949  0.00  0.00    +0.000 A 
ATOM      4  C   UNL     1     -17.380  41.363 -10.810  0.00  0.00    +0.000 A 
ATOM      5  C   UNL     1     -19.288  40.062 -10.238  0.00  0.00    +0.000 A 
ATOM      6  C   UNL     1     -17.193  40.544 -11.918  0.00  0.00    +0.000 A 
ATOM      7  C   UNL     1     -18.091  39.508 -12.119  0.00  0.00    +0.000 A 
ATOM      8  H   UNL     1     -20.247  39.976  -8.375  0.00  0.00    +0.000 HD
ATOM      9  H   UNL     1     -20.980  39.040  -9.624  0.00  0.00    +0.000 HD
ENDROOT
BRANCH   4  10
ATOM     10  N   UNL     1     -16.480  42.427 -10.581  0.00  0.00    +0.000 N 
ATOM     11  H   UNL     1     -16.547  43.268 -11.141  0.00  0.00    +0.000 HD
ATOM     12  H   UNL     1     -15.783  42.371  -9.853  0.00  0.00    +0.000 HD
ENDBRANCH   4  10
BRANCH   3  14
ATOM     13  O   UNL     1     -18.830  41.519  -7.648  0.00  0.00    +0.000 OA
ATOM     14  C   UNL     1     -18.660  41.972  -8.779  0.00  0.00    +0.000 C 
ENDBRANCH   3  14
TORSDOF 2
ENDMDL
