MODEL 1
REMARK VINA RESULT:    -7.500      0.000      0.000
REMARK INTER + INTRA:          -7.998
REMARK INTER:                  -7.938
REMARK INTRA:                  -0.060
REMARK UNBOUND:                -0.060
REMARK  Name = 22028988
REMARK  1 active torsions:
REMARK  status: ('A' for Active; 'I' for Inactive)
REMARK    1  A    between atoms: C_13  and  C_15
REMARK                            x       y       z     vdW  Elec       q    Type
REMARK                         _______ _______ _______ _____ _____    ______ ____
ROOT
ATOM      1  N   UNL     1     -18.052  41.166 -10.299  0.00  0.00    +0.000 N 
ATOM      2  N   UNL     1     -16.239  40.787 -12.471  0.00  0.00    +0.000 NA
ATOM      3  N   UNL     1     -20.205  40.679  -9.443  0.00  0.00    +0.000 NA
ATOM      4  C   UNL     1     -17.999  39.874 -10.997  0.00  0.00    +0.000 C 
ATOM      5  C   UNL     1     -17.568  42.321 -11.062  0.00  0.00    +0.000 C 
ATOM      6  C   UNL     1     -16.621  39.660 -11.622  0.00  0.00    +0.000 C 
ATOM      7  C   UNL     1     -16.206  42.020 -11.686  0.00  0.00    +0.000 C 
ATOM      8  C   UNL     1     -19.034  41.344  -9.318  0.00  0.00    +0.000 A 
ATOM      9  C   UNL     1     -18.735  42.200  -8.270  0.00  0.00    +0.000 A 
ATOM     10  C   UNL     1     -19.702  42.387  -7.287  0.00  0.00    +0.000 A 
ATOM     11  C   UNL     1     -20.919  41.721  -7.380  0.00  0.00    +0.000 A 
ATOM     12  C   UNL     1     -21.120  40.886  -8.468  0.00  0.00    +0.000 A 
ATOM     13  H   UNL     1     -15.315  40.614 -12.865  0.00  0.00    +0.000 HD
ENDROOT
BRANCH  11  16
ATOM     14  O   UNL     1     -23.022  41.271  -6.421  0.00  0.00    +0.000 OA
ATOM     15  N   UNL     1     -21.686  42.776  -5.322  0.00  0.00    +0.000 N 
ATOM     16  C   UNL     1     -21.947  41.895  -6.370  0.00  0.00    +0.000 C 
ATOM     17  H   UNL     1     -20.838  43.316  -5.206  0.00  0.00    +0.000 HD
ATOM     18  H   UNL     1     -22.385  42.911  -4.599  0.00  0.00    +0.000 HD
ENDBRANCH  11  16
TORSDOF 1
ENDMDL
MODEL 2
REMARK VINA RESULT:    -7.143      1.150      2.003
REMARK INTER + INTRA:          -7.621
REMARK INTER:                  -7.573
REMARK INTRA:                  -0.047
REMARK UNBOUND:                -0.060
REMARK  Name = 22028988
REMARK  1 active torsions:
REMARK  status: ('A' for Active; 'I' for Inactive)
REMARK    1  A    between atoms: C_13  and  C_15
REMARK                            x       y       z     vdW  Elec       q    Type
REMARK                         _______ _______ _______ _____ _____    ______ ____
ROOT
ATOM      1  N   UNL     1     -18.255  41.166 -10.779  0.00  0.00    +0.000 N 
ATOM      2  N   UNL     1     -16.558  40.646 -13.016  0.00  0.00    +0.000 NA
ATOM      3  N   UNL     1     -18.456  42.270  -8.695  0.00  0.00    +0.000 NA
ATOM      4  C   UNL     1     -17.366  42.219 -11.291  0.00  0.00    +0.000 C 
ATOM      5  C   UNL     1     -17.856  39.790 -11.095  0.00  0.00    +0.000 C 
ATOM      6  C   UNL     1     -17.068  41.994 -12.772  0.00  0.00    +0.000 C 
ATOM      7  C   UNL     1     -17.539  39.651 -12.583  0.00  0.00    +0.000 C 
ATOM      8  C   UNL     1     -18.982  41.427  -9.613  0.00  0.00    +0.000 A 
ATOM      9  C   UNL     1     -20.209  40.799  -9.476  0.00  0.00    +0.000 A 
ATOM     10  C   UNL     1     -20.944  41.049  -8.322  0.00  0.00    +0.000 A 
ATOM     11  C   UNL     1     -20.436  41.909  -7.354  0.00  0.00    +0.000 A 
ATOM     12  C   UNL     1     -19.199  42.489  -7.586  0.00  0.00    +0.000 A 
ATOM     13  H   UNL     1     -16.377  40.529 -14.012  0.00  0.00    +0.000 HD
ENDROOT
BRANCH  11  16
ATOM     14  O   UNL     1     -20.911  41.621  -5.066  0.00  0.00    +0.000 OA
ATOM     15  N   UNL     1     -22.198  43.139  -6.205  0.00  0.00    +0.000 N 
ATOM     16  C   UNL     1     -21.180  42.191  -6.139  0.00  0.00    +0.000 C 
ATOM     17  H   UNL     1     -22.475  43.648  -7.035  0.00  0.00    +0.000 HD
ATOM     18  H   UNL     1     -22.729  43.360  -5.369  0.00  0.00    +0.000 HD
ENDBRANCH  11  16
TORSDOF 1
ENDMDL
MODEL 3
REMARK VINA RESULT:    -5.835      5.057      6.923
REMARK INTER + INTRA:          -6.236
REMARK INTER:                  -6.181
REMARK INTRA:                  -0.055
REMARK UNBOUND:                -0.060
REMARK  Name = 22028988
REMARK  1 active torsions:
REMARK  status: ('A' for Active; 'I' for Inactive)
REMARK    1  A    between atoms: C_13  and  C_15
REMARK                            x       y       z     vdW  Elec       q    Type
REMARK                         _______ _______ _______ _____ _____    ______ ____
ROOT
ATOM      1  N   UNL     1     -18.438  41.515 -12.778  0.00  0.00    +0.000 N 
ATOM      2  N   UNL     1     -17.992  39.185 -11.187  0.00  0.00    +0.000 NA
ATOM      3  N   UNL     1     -19.628  42.434 -14.606  0.00  0.00    +0.000 NA
ATOM      4  C   UNL     1     -19.556  40.618 -12.455  0.00  0.00    +0.000 C 
ATOM      5  C   UNL     1     -17.102  40.911 -12.716  0.00  0.00    +0.000 C 
ATOM      6  C   UNL     1     -19.283  39.870 -11.150  0.00  0.00    +0.000 C 
ATOM      7  C   UNL     1     -16.916  40.152 -11.403  0.00  0.00    +0.000 C 
ATOM      8  C   UNL     1     -18.679  42.578 -13.654  0.00  0.00    +0.000 A 
ATOM      9  C   UNL     1     -17.920  43.725 -13.483  0.00  0.00    +0.000 A 
ATOM     10  C   UNL     1     -18.148  44.792 -14.346  0.00  0.00    +0.000 A 
ATOM     11  C   UNL     1     -19.116  44.680 -15.339  0.00  0.00    +0.000 A 
ATOM     12  C   UNL     1     -19.822  43.491 -15.426  0.00  0.00    +0.000 A 
ATOM     13  H   UNL     1     -17.840  38.705 -10.302  0.00  0.00    +0.000 HD
ENDROOT
BRANCH  11  16
ATOM     14  O   UNL     1     -18.465  46.521 -16.655  0.00  0.00    +0.000 OA
ATOM     15  N   UNL     1     -20.688  45.960 -16.690  0.00  0.00    +0.000 N 
ATOM     16  C   UNL     1     -19.378  45.776 -16.255  0.00  0.00    +0.000 C 
ATOM     17  H   UNL     1     -21.484  45.397 -16.416  0.00  0.00    +0.000 HD
ATOM     18  H   UNL     1     -20.898  46.714 -17.336  0.00  0.00    +0.000 HD
ENDBRANCH  11  16
TORSDOF 1
ENDMDL
MODEL 4
REMARK VINA RESULT:    -5.653      4.331      6.478
REMARK INTER + INTRA:          -6.043
REMARK INTER:                  -5.989
REMARK INTRA:                  -0.055
REMARK UNBOUND:                -0.060
REMARK  Name = 22028988
REMARK  1 active torsions:
REMARK  status: ('A' for Active; 'I' for Inactive)
REMARK    1  A    between atoms: C_13  and  C_15
REMARK                            x       y       z     vdW  Elec       q    Type
REMARK                         _______ _______ _______ _____ _____    ______ ____
ROOT
ATOM      1  N   UNL     1     -17.865  41.601 -11.778  0.00  0.00    +0.000 N 
ATOM      2  N   UNL     1     -18.930  39.000 -11.273  0.00  0.00    +0.000 NA
ATOM      3  N   UNL     1     -16.181  42.842 -12.885  0.00  0.00    +0.000 NA
ATOM      4  C   UNL     1     -17.867  40.586 -12.841  0.00  0.00    +0.000 C 
ATOM      5  C   UNL     1     -17.923  41.084 -10.406  0.00  0.00    +0.000 C 
ATOM      6  C   UNL     1     -18.991  39.577 -12.615  0.00  0.00    +0.000 C 
ATOM      7  C   UNL     1     -19.044  40.055 -10.267  0.00  0.00    +0.000 C 
ATOM      8  C   UNL     1     -17.231  42.821 -12.033  0.00  0.00    +0.000 A 
ATOM      9  C   UNL     1     -17.729  43.942 -11.388  0.00  0.00    +0.000 A 
ATOM     10  C   UNL     1     -17.108  45.163 -11.632  0.00  0.00    +0.000 A 
ATOM     11  C   UNL     1     -16.025  45.224 -12.502  0.00  0.00    +0.000 A 
ATOM     12  C   UNL     1     -15.603  44.046 -13.097  0.00  0.00    +0.000 A 
ATOM     13  H   UNL     1     -19.696  38.338 -11.155  0.00  0.00    +0.000 HD
ENDROOT
BRANCH  11  16
ATOM     14  O   UNL     1     -15.186  47.337 -11.888  0.00  0.00    +0.000 OA
ATOM     15  N   UNL     1     -14.891  46.703 -14.072  0.00  0.00    +0.000 N 
ATOM     16  C   UNL     1     -15.356  46.484 -12.777  0.00  0.00    +0.000 C 
ATOM     17  H   UNL     1     -14.985  46.059 -14.848  0.00  0.00    +0.000 HD
ATOM     18  H   UNL     1     -14.414  47.572 -14.290  0.00  0.00    +0.000 HD
ENDBRANCH  11  16
TORSDOF 1
ENDMDL
MODEL 5
REMARK VINA RESULT:    -5.561      4.667      6.272
REMARK INTER + INTRA:          -5.946
REMARK INTER:                  -5.891
REMARK INTRA:                  -0.055
REMARK UNBOUND:                -0.060
REMARK  Name = 22028988
REMARK  1 active torsions:
REMARK  status: ('A' for Active; 'I' for Inactive)
REMARK    1  A    between atoms: C_13  and  C_15
REMARK                            x       y       z     vdW  Elec       q    Type
REMARK                         _______ _______ _______ _____ _____    ______ ____
ROOT
ATOM      1  N   UNL     1     -18.195  41.893 -12.199  0.00  0.00    +0.000 N 
ATOM      2  N   UNL     1     -18.358  39.182 -11.318  0.00  0.00    +0.000 NA
ATOM      3  N   UNL     1     -17.738  44.128 -11.568  0.00  0.00    +0.000 NA
ATOM      4  C   UNL     1     -17.235  41.381 -11.210  0.00  0.00    +0.000 C 
ATOM      5  C   UNL     1     -19.467  41.167 -12.285  0.00  0.00    +0.000 C 
ATOM      6  C   UNL     1     -17.068  39.870 -11.361  0.00  0.00    +0.000 C 
ATOM      7  C   UNL     1     -19.220  39.663 -12.396  0.00  0.00    +0.000 C 
ATOM      8  C   UNL     1     -18.151  43.255 -12.515  0.00  0.00    +0.000 A 
ATOM      9  C   UNL     1     -18.535  43.622 -13.795  0.00  0.00    +0.000 A 
ATOM     10  C   UNL     1     -18.496  44.973 -14.124  0.00  0.00    +0.000 A 
ATOM     11  C   UNL     1     -18.078  45.902 -13.177  0.00  0.00    +0.000 A 
ATOM     12  C   UNL     1     -17.713  45.433 -11.925  0.00  0.00    +0.000 A 
ATOM     13  H   UNL     1     -18.209  38.180 -11.428  0.00  0.00    +0.000 HD
ENDROOT
BRANCH  11  16
ATOM     14  O   UNL     1     -18.875  47.853 -14.227  0.00  0.00    +0.000 OA
ATOM     15  N   UNL     1     -17.001  48.073 -12.922  0.00  0.00    +0.000 N 
ATOM     16  C   UNL     1     -18.026  47.319 -13.490  0.00  0.00    +0.000 C 
ATOM     17  H   UNL     1     -16.277  47.716 -12.311  0.00  0.00    +0.000 HD
ATOM     18  H   UNL     1     -16.945  49.067 -13.119  0.00  0.00    +0.000 HD
ENDBRANCH  11  16
TORSDOF 1
ENDMDL
