MODEL 1
REMARK VINA RESULT:    -7.453      0.000      0.000
REMARK INTER + INTRA:          -8.231
REMARK INTER:                  -8.106
REMARK INTRA:                  -0.125
REMARK UNBOUND:                -0.125
REMARK  Name = 22271454
REMARK  2 active torsions:
REMARK  status: ('A' for Active; 'I' for Inactive)
REMARK    1  A    between atoms: O_2  and  C_13
REMARK    2  A    between atoms: C_7  and  C_10
REMARK                            x       y       z     vdW  Elec       q    Type
REMARK                         _______ _______ _______ _____ _____    ______ ____
ROOT
ATOM      1  N   UNL     1     -19.272  42.322  -7.287  0.00  0.00    +0.000 NA
ATOM      2  N   UNL     1     -21.314  42.528  -6.077  0.00  0.00    +0.000 N 
ATOM      3  C   UNL     1     -19.154  40.809  -9.170  0.00  0.00    +0.000 A 
ATOM      4  C   UNL     1     -20.484  40.450  -8.975  0.00  0.00    +0.000 A 
ATOM      5  C   UNL     1     -18.600  41.741  -8.306  0.00  0.00    +0.000 A 
ATOM      6  C   UNL     1     -21.209  41.027  -7.938  0.00  0.00    +0.000 A 
ATOM      7  C   UNL     1     -20.563  41.949  -7.129  0.00  0.00    +0.000 A 
ATOM      8  H   UNL     1     -22.317  42.610  -6.189  0.00  0.00    +0.000 HD
ATOM      9  H   UNL     1     -20.840  43.204  -5.492  0.00  0.00    +0.000 HD
ENDROOT
BRANCH   3  13
ATOM     10  O   UNL     1     -18.869  39.366 -10.994  0.00  0.00    +0.000 OA
ATOM     11  O   UNL     1     -16.305  39.359 -12.169  0.00  0.00    +0.000 OA
ATOM     12  N   UNL     1     -17.035  40.653 -10.365  0.00  0.00    +0.000 N 
ATOM     13  C   UNL     1     -18.371  40.224 -10.244  0.00  0.00    +0.000 C 
ATOM     14  C   UNL     1     -16.118  40.199 -11.299  0.00  0.00    +0.000 C 
ATOM     15  H   UNL     1     -16.693  41.378  -9.742  0.00  0.00    +0.000 HD
BRANCH  14  16
ATOM     16  O   UNL     1     -14.923  40.827 -11.134  0.00  0.00    +0.000 OA
ATOM     17  H   UNL     1     -14.318  40.312 -10.559  0.00  0.00    +0.000 HD
ENDBRANCH  14  16
ENDBRANCH   3  13
TORSDOF 2
ENDMDL
MODEL 2
REMARK VINA RESULT:    -7.286      3.378      5.881
REMARK INTER + INTRA:          -8.050
REMARK INTER:                  -7.926
REMARK INTRA:                  -0.124
REMARK UNBOUND:                -0.125
REMARK  Name = 22271454
REMARK  2 active torsions:
REMARK  status: ('A' for Active; 'I' for Inactive)
REMARK    1  A    between atoms: O_2  and  C_13
REMARK    2  A    between atoms: C_7  and  C_10
REMARK                            x       y       z     vdW  Elec       q    Type
REMARK                         _______ _______ _______ _____ _____    ______ ____
ROOT
ATOM      1  N   UNL     1     -19.072  39.347 -10.692  0.00  0.00    +0.000 NA
ATOM      2  N   UNL     1     -16.982  39.532 -11.821  0.00  0.00    +0.000 N 
ATOM      3  C   UNL     1     -19.633  40.938  -8.960  0.00  0.00    +0.000 A 
ATOM      4  C   UNL     1     -18.415  41.583  -9.147  0.00  0.00    +0.000 A 
ATOM      5  C   UNL     1     -19.911  39.834  -9.751  0.00  0.00    +0.000 A 
ATOM      6  C   UNL     1     -17.526  41.112 -10.107  0.00  0.00    +0.000 A 
ATOM      7  C   UNL     1     -17.898  40.000 -10.846  0.00  0.00    +0.000 A 
ATOM      8  H   UNL     1     -16.346  40.197 -12.244  0.00  0.00    +0.000 HD
ATOM      9  H   UNL     1     -17.260  38.724 -12.362  0.00  0.00    +0.000 HD
ENDROOT
BRANCH   3  13
ATOM     10  O   UNL     1     -20.225  42.196  -7.074  0.00  0.00    +0.000 OA
ATOM     11  O   UNL     1     -22.898  41.939  -6.212  0.00  0.00    +0.000 OA
ATOM     12  N   UNL     1     -21.894  40.900  -8.049  0.00  0.00    +0.000 N 
ATOM     13  C   UNL     1     -20.582  41.405  -7.966  0.00  0.00    +0.000 C 
ATOM     14  C   UNL     1     -22.935  41.196  -7.184  0.00  0.00    +0.000 C 
ATOM     15  H   UNL     1     -22.134  40.280  -8.817  0.00  0.00    +0.000 HD
BRANCH  14  16
ATOM     16  O   UNL     1     -24.064  40.537  -7.559  0.00  0.00    +0.000 OA
ATOM     17  H   UNL     1     -24.643  40.341  -6.791  0.00  0.00    +0.000 HD
ENDBRANCH  14  16
ENDBRANCH   3  13
TORSDOF 2
ENDMDL
MODEL 3
REMARK VINA RESULT:    -7.251      2.009      2.701
REMARK INTER + INTRA:          -8.012
REMARK INTER:                  -7.889
REMARK INTRA:                  -0.123
REMARK UNBOUND:                -0.125
REMARK  Name = 22271454
REMARK  2 active torsions:
REMARK  status: ('A' for Active; 'I' for Inactive)
REMARK    1  A    between atoms: O_2  and  C_13
REMARK    2  A    between atoms: C_7  and  C_10
REMARK                            x       y       z     vdW  Elec       q    Type
REMARK                         _______ _______ _______ _____ _____    ______ ____
ROOT
ATOM      1  N   UNL     1     -22.256  41.354  -7.411  0.00  0.00    +0.000 NA
ATOM      2  N   UNL     1     -22.577  42.821  -5.561  0.00  0.00    +0.000 N 
ATOM      3  C   UNL     1     -20.033  41.044  -8.310  0.00  0.00    +0.000 A 
ATOM      4  C   UNL     1     -19.519  41.926  -7.365  0.00  0.00    +0.000 A 
ATOM      5  C   UNL     1     -21.396  40.794  -8.291  0.00  0.00    +0.000 A 
ATOM      6  C   UNL     1     -20.372  42.522  -6.442  0.00  0.00    +0.000 A 
ATOM      7  C   UNL     1     -21.720  42.206  -6.507  0.00  0.00    +0.000 A 
ATOM      8  H   UNL     1     -22.191  43.089  -4.664  0.00  0.00    +0.000 HD
ATOM      9  H   UNL     1     -23.560  42.582  -5.609  0.00  0.00    +0.000 HD
ENDROOT
BRANCH   3  13
ATOM     10  O   UNL     1     -17.936  40.373  -9.113  0.00  0.00    +0.000 OA
ATOM     11  O   UNL     1     -17.936  39.062 -11.610  0.00  0.00    +0.000 OA
ATOM     12  N   UNL     1     -19.786  39.869 -10.431  0.00  0.00    +0.000 N 
ATOM     13  C   UNL     1     -19.168  40.407  -9.287  0.00  0.00    +0.000 C 
ATOM     14  C   UNL     1     -19.140  39.248 -11.488  0.00  0.00    +0.000 C 
ATOM     15  H   UNL     1     -20.799  39.901 -10.504  0.00  0.00    +0.000 HD
BRANCH  14  16
ATOM     16  O   UNL     1     -20.041  38.846 -12.424  0.00  0.00    +0.000 OA
ATOM     17  H   UNL     1     -19.639  38.232 -13.076  0.00  0.00    +0.000 HD
ENDBRANCH  14  16
ENDBRANCH   3  13
TORSDOF 2
ENDMDL
MODEL 4
REMARK VINA RESULT:    -5.794      4.930      5.826
REMARK INTER + INTRA:          -6.428
REMARK INTER:                  -6.306
REMARK INTRA:                  -0.122
REMARK UNBOUND:                -0.125
REMARK  Name = 22271454
REMARK  2 active torsions:
REMARK  status: ('A' for Active; 'I' for Inactive)
REMARK    1  A    between atoms: O_2  and  C_13
REMARK    2  A    between atoms: C_7  and  C_10
REMARK                            x       y       z     vdW  Elec       q    Type
REMARK                         _______ _______ _______ _____ _____    ______ ____
ROOT
ATOM      1  N   UNL     1     -18.979  40.902 -11.584  0.00  0.00    +0.000 NA
ATOM      2  N   UNL     1     -17.792  40.817  -9.519  0.00  0.00    +0.000 N 
ATOM      3  C   UNL     1     -18.669  42.795 -13.056  0.00  0.00    +0.000 A 
ATOM      4  C   UNL     1     -17.773  43.359 -12.154  0.00  0.00    +0.000 A 
ATOM      5  C   UNL     1     -19.239  41.576 -12.726  0.00  0.00    +0.000 A 
ATOM      6  C   UNL     1     -17.478  42.696 -10.968  0.00  0.00    +0.000 A 
ATOM      7  C   UNL     1     -18.102  41.481 -10.732  0.00  0.00    +0.000 A 
ATOM      8  H   UNL     1     -16.885  40.978  -9.100  0.00  0.00    +0.000 HD
ATOM      9  H   UNL     1     -18.247  39.928  -9.354  0.00  0.00    +0.000 HD
ENDROOT
BRANCH   3  13
ATOM     10  O   UNL     1     -18.841  44.692 -14.421  0.00  0.00    +0.000 OA
ATOM     11  O   UNL     1     -19.890  44.260 -17.003  0.00  0.00    +0.000 OA
ATOM     12  N   UNL     1     -19.519  42.663 -15.337  0.00  0.00    +0.000 N 
ATOM     13  C   UNL     1     -18.997  43.463 -14.303  0.00  0.00    +0.000 C 
ATOM     14  C   UNL     1     -19.919  43.109 -16.586  0.00  0.00    +0.000 C 
ATOM     15  H   UNL     1     -19.596  41.661 -15.192  0.00  0.00    +0.000 HD
BRANCH  14  16
ATOM     16  O   UNL     1     -20.370  42.070 -17.338  0.00  0.00    +0.000 OA
ATOM     17  H   UNL     1     -21.089  42.346 -17.947  0.00  0.00    +0.000 HD
ENDBRANCH  14  16
ENDBRANCH   3  13
TORSDOF 2
ENDMDL
MODEL 5
REMARK VINA RESULT:    -5.376      4.067      4.763
REMARK INTER + INTRA:          -5.973
REMARK INTER:                  -5.873
REMARK INTRA:                  -0.100
REMARK UNBOUND:                -0.125
REMARK  Name = 22271454
REMARK  2 active torsions:
REMARK  status: ('A' for Active; 'I' for Inactive)
REMARK    1  A    between atoms: O_2  and  C_13
REMARK    2  A    between atoms: C_7  and  C_10
REMARK                            x       y       z     vdW  Elec       q    Type
REMARK                         _______ _______ _______ _____ _____    ______ ____
ROOT
ATOM      1  N   UNL     1     -18.681  40.255 -13.089  0.00  0.00    +0.000 NA
ATOM      2  N   UNL     1     -19.918  38.563 -11.955  0.00  0.00    +0.000 N 
ATOM      3  C   UNL     1     -17.360  41.823 -11.807  0.00  0.00    +0.000 A 
ATOM      4  C   UNL     1     -17.758  41.205 -10.627  0.00  0.00    +0.000 A 
ATOM      5  C   UNL     1     -17.846  41.315 -13.001  0.00  0.00    +0.000 A 
ATOM      6  C   UNL     1     -18.615  40.111 -10.676  0.00  0.00    +0.000 A 
ATOM      7  C   UNL     1     -19.045  39.679 -11.921  0.00  0.00    +0.000 A 
ATOM      8  H   UNL     1     -19.862  37.884 -11.206  0.00  0.00    +0.000 HD
ATOM      9  H   UNL     1     -20.224  38.249 -12.867  0.00  0.00    +0.000 HD
ENDROOT
BRANCH   3  13
ATOM     10  O   UNL     1     -16.897  44.101 -11.509  0.00  0.00    +0.000 OA
ATOM     11  O   UNL     1     -14.230  44.887 -11.979  0.00  0.00    +0.000 OA
ATOM     12  N   UNL     1     -15.121  42.731 -12.128  0.00  0.00    +0.000 N 
ATOM     13  C   UNL     1     -16.467  42.968 -11.789  0.00  0.00    +0.000 C 
ATOM     14  C   UNL     1     -14.120  43.687 -12.197  0.00  0.00    +0.000 C 
ATOM     15  H   UNL     1     -14.822  41.779 -12.318  0.00  0.00    +0.000 HD
BRANCH  14  16
ATOM     16  O   UNL     1     -12.940  43.113 -12.551  0.00  0.00    +0.000 OA
ATOM     17  H   UNL     1     -12.174  43.675 -12.308  0.00  0.00    +0.000 HD
ENDBRANCH  14  16
ENDBRANCH   3  13
TORSDOF 2
ENDMDL
