MODEL 1
REMARK VINA RESULT:    -6.436      0.000      0.000
REMARK INTER + INTRA:          -6.436
REMARK INTER:                  -6.436
REMARK INTRA:                   0.000
REMARK UNBOUND:                 0.000
REMARK  Name = 22756795
REMARK  0 active torsions:
REMARK  status: ('A' for Active; 'I' for Inactive)
REMARK                            x       y       z     vdW  Elec       q    Type
REMARK                         _______ _______ _______ _____ _____    ______ ____
ROOT
ATOM      1  S   UNL     1     -19.269  40.191 -10.532  0.00  0.00    +0.000 S 
ATOM      2  O   UNL     1     -19.974  41.032 -11.481  0.00  0.00    +0.000 OA
ATOM      3  O   UNL     1     -18.400  39.127 -10.998  0.00  0.00    +0.000 OA
ATOM      4  O   UNL     1     -18.363  42.801  -7.790  0.00  0.00    +0.000 OA
ATOM      5  N   UNL     1     -20.396  39.529  -9.434  0.00  0.00    +0.000 N 
ATOM      6  N   UNL     1     -18.395  41.193  -9.468  0.00  0.00    +0.000 N 
ATOM      7  N   UNL     1     -22.305  40.128  -8.228  0.00  0.00    +0.000 NA
ATOM      8  C   UNL     1     -20.374  41.579  -8.046  0.00  0.00    +0.000 A 
ATOM      9  C   UNL     1     -21.047  40.481  -8.580  0.00  0.00    +0.000 A 
ATOM     10  C   UNL     1     -18.977  41.933  -8.394  0.00  0.00    +0.000 C 
ATOM     11  C   UNL     1     -21.067  42.382  -7.137  0.00  0.00    +0.000 A 
ATOM     12  C   UNL     1     -22.374  42.060  -6.783  0.00  0.00    +0.000 A 
ATOM     13  C   UNL     1     -22.941  40.932  -7.349  0.00  0.00    +0.000 A 
ATOM     14  H   UNL     1     -21.041  38.820  -9.805  0.00  0.00    +0.000 HD
ATOM     15  H   UNL     1     -17.449  41.468  -9.759  0.00  0.00    +0.000 HD
ENDROOT
TORSDOF 0
ENDMDL
MODEL 2
REMARK VINA RESULT:    -6.395      2.804      4.003
REMARK INTER + INTRA:          -6.395
REMARK INTER:                  -6.395
REMARK INTRA:                   0.000
REMARK UNBOUND:                 0.000
REMARK  Name = 22756795
REMARK  0 active torsions:
REMARK  status: ('A' for Active; 'I' for Inactive)
REMARK                            x       y       z     vdW  Elec       q    Type
REMARK                         _______ _______ _______ _____ _____    ______ ____
ROOT
ATOM      1  S   UNL     1     -16.412  41.967 -11.670  0.00  0.00    +0.000 S 
ATOM      2  O   UNL     1     -15.595  40.855 -11.219  0.00  0.00    +0.000 OA
ATOM      3  O   UNL     1     -15.817  43.063 -12.410  0.00  0.00    +0.000 OA
ATOM      4  O   UNL     1     -19.687  40.103 -12.648  0.00  0.00    +0.000 OA
ATOM      5  N   UNL     1     -17.258  42.610 -10.334  0.00  0.00    +0.000 N 
ATOM      6  N   UNL     1     -17.724  41.344 -12.560  0.00  0.00    +0.000 N 
ATOM      7  N   UNL     1     -18.396  41.917  -8.416  0.00  0.00    +0.000 NA
ATOM      8  C   UNL     1     -19.025  40.886 -10.514  0.00  0.00    +0.000 A 
ATOM      9  C   UNL     1     -18.227  41.731  -9.745  0.00  0.00    +0.000 A 
ATOM     10  C   UNL     1     -18.872  40.724 -11.981  0.00  0.00    +0.000 C 
ATOM     11  C   UNL     1     -20.015  40.154  -9.854  0.00  0.00    +0.000 A 
ATOM     12  C   UNL     1     -20.187  40.301  -8.482  0.00  0.00    +0.000 A 
ATOM     13  C   UNL     1     -19.361  41.189  -7.815  0.00  0.00    +0.000 A 
ATOM     14  H   UNL     1     -16.700  43.115  -9.634  0.00  0.00    +0.000 HD
ATOM     15  H   UNL     1     -17.574  41.191 -13.565  0.00  0.00    +0.000 HD
ENDROOT
TORSDOF 0
ENDMDL
MODEL 3
REMARK VINA RESULT:    -6.368      2.057      2.570
REMARK INTER + INTRA:          -6.368
REMARK INTER:                  -6.368
REMARK INTRA:                   0.000
REMARK UNBOUND:                 0.000
REMARK  Name = 22756795
REMARK  0 active torsions:
REMARK  status: ('A' for Active; 'I' for Inactive)
REMARK                            x       y       z     vdW  Elec       q    Type
REMARK                         _______ _______ _______ _____ _____    ______ ____
ROOT
ATOM      1  S   UNL     1     -18.984  40.410 -12.672  0.00  0.00    +0.000 S 
ATOM      2  O   UNL     1     -20.046  41.347 -12.988  0.00  0.00    +0.000 OA
ATOM      3  O   UNL     1     -18.551  39.433 -13.653  0.00  0.00    +0.000 OA
ATOM      4  O   UNL     1     -16.630  42.675 -10.556  0.00  0.00    +0.000 OA
ATOM      5  N   UNL     1     -19.380  39.589 -11.229  0.00  0.00    +0.000 N 
ATOM      6  N   UNL     1     -17.630  41.291 -12.132  0.00  0.00    +0.000 N 
ATOM      7  N   UNL     1     -20.318  39.986  -9.127  0.00  0.00    +0.000 NA
ATOM      8  C   UNL     1     -18.522  41.447  -9.837  0.00  0.00    +0.000 A 
ATOM      9  C   UNL     1     -19.428  40.411 -10.053  0.00  0.00    +0.000 A 
ATOM     10  C   UNL     1     -17.512  41.875 -10.835  0.00  0.00    +0.000 C 
ATOM     11  C   UNL     1     -18.583  42.113  -8.610  0.00  0.00    +0.000 A 
ATOM     12  C   UNL     1     -19.512  41.719  -7.652  0.00  0.00    +0.000 A 
ATOM     13  C   UNL     1     -20.347  40.658  -7.956  0.00  0.00    +0.000 A 
ATOM     14  H   UNL     1     -20.157  38.917 -11.278  0.00  0.00    +0.000 HD
ATOM     15  H   UNL     1     -16.974  41.622 -12.850  0.00  0.00    +0.000 HD
ENDROOT
TORSDOF 0
ENDMDL
MODEL 4
REMARK VINA RESULT:    -6.057      4.493      5.502
REMARK INTER + INTRA:          -6.057
REMARK INTER:                  -6.057
REMARK INTRA:                   0.000
REMARK UNBOUND:                 0.000
REMARK  Name = 22756795
REMARK  0 active torsions:
REMARK  status: ('A' for Active; 'I' for Inactive)
REMARK                            x       y       z     vdW  Elec       q    Type
REMARK                         _______ _______ _______ _____ _____    ______ ____
ROOT
ATOM      1  S   UNL     1     -19.313  39.653 -11.298  0.00  0.00    +0.000 S 
ATOM      2  O   UNL     1     -19.730  40.353 -10.096  0.00  0.00    +0.000 OA
ATOM      3  O   UNL     1     -19.628  38.248 -11.476  0.00  0.00    +0.000 OA
ATOM      4  O   UNL     1     -19.834  42.434 -13.970  0.00  0.00    +0.000 OA
ATOM      5  N   UNL     1     -17.632  39.862 -11.506  0.00  0.00    +0.000 N 
ATOM      6  N   UNL     1     -19.874  40.522 -12.650  0.00  0.00    +0.000 N 
ATOM      7  N   UNL     1     -15.979  41.500 -11.299  0.00  0.00    +0.000 NA
ATOM      8  C   UNL     1     -17.954  42.070 -12.579  0.00  0.00    +0.000 A 
ATOM      9  C   UNL     1     -17.213  41.209 -11.770  0.00  0.00    +0.000 A 
ATOM     10  C   UNL     1     -19.284  41.728 -13.138  0.00  0.00    +0.000 C 
ATOM     11  C   UNL     1     -17.403  43.321 -12.865  0.00  0.00    +0.000 A 
ATOM     12  C   UNL     1     -16.150  43.658 -12.364  0.00  0.00    +0.000 A 
ATOM     13  C   UNL     1     -15.484  42.720 -11.596  0.00  0.00    +0.000 A 
ATOM     14  H   UNL     1     -17.020  39.379 -10.836  0.00  0.00    +0.000 HD
ATOM     15  H   UNL     1     -20.821  40.303 -12.985  0.00  0.00    +0.000 HD
ENDROOT
TORSDOF 0
ENDMDL
MODEL 5
REMARK VINA RESULT:    -6.024      4.345      5.353
REMARK INTER + INTRA:          -6.024
REMARK INTER:                  -6.024
REMARK INTRA:                   0.000
REMARK UNBOUND:                 0.000
REMARK  Name = 22756795
REMARK  0 active torsions:
REMARK  status: ('A' for Active; 'I' for Inactive)
REMARK                            x       y       z     vdW  Elec       q    Type
REMARK                         _______ _______ _______ _____ _____    ______ ____
ROOT
ATOM      1  S   UNL     1     -18.358  39.980 -12.061  0.00  0.00    +0.000 S 
ATOM      2  O   UNL     1     -17.218  39.674 -12.907  0.00  0.00    +0.000 OA
ATOM      3  O   UNL     1     -19.002  38.934 -11.291  0.00  0.00    +0.000 OA
ATOM      4  O   UNL     1     -17.319  43.473 -10.691  0.00  0.00    +0.000 OA
ATOM      5  N   UNL     1     -19.544  40.775 -12.996  0.00  0.00    +0.000 N 
ATOM      6  N   UNL     1     -17.925  41.253 -11.015  0.00  0.00    +0.000 N 
ATOM      7  N   UNL     1     -19.736  42.389 -14.673  0.00  0.00    +0.000 NA
ATOM      8  C   UNL     1     -18.413  42.961 -12.727  0.00  0.00    +0.000 A 
ATOM      9  C   UNL     1     -19.167  42.069 -13.489  0.00  0.00    +0.000 A 
ATOM     10  C   UNL     1     -17.835  42.624 -11.404  0.00  0.00    +0.000 C 
ATOM     11  C   UNL     1     -18.196  44.237 -13.254  0.00  0.00    +0.000 A 
ATOM     12  C   UNL     1     -18.742  44.581 -14.486  0.00  0.00    +0.000 A 
ATOM     13  C   UNL     1     -19.499  43.631 -15.148  0.00  0.00    +0.000 A 
ATOM     14  H   UNL     1     -20.034  40.208 -13.700  0.00  0.00    +0.000 HD
ATOM     15  H   UNL     1     -17.476  40.994 -10.128  0.00  0.00    +0.000 HD
ENDROOT
TORSDOF 0
ENDMDL
