MODEL 1
REMARK VINA RESULT:    -7.630      0.000      0.000
REMARK INTER + INTRA:          -7.630
REMARK INTER:                  -7.630
REMARK INTRA:                   0.000
REMARK UNBOUND:                 0.000
REMARK  Name = 23119574
REMARK  0 active torsions:
REMARK  status: ('A' for Active; 'I' for Inactive)
REMARK                            x       y       z     vdW  Elec       q    Type
REMARK                         _______ _______ _______ _____ _____    ______ ____
ROOT
ATOM      1  O   UNL     1     -18.999  38.961 -11.301  0.00  0.00    +0.000 OA
ATOM      2  N   UNL     1     -17.568  42.353 -10.204  0.00  0.00    +0.000 NA
ATOM      3  N   UNL     1     -19.518  41.026 -12.176  0.00  0.00    +0.000 NA
ATOM      4  N   UNL     1     -18.691  42.332  -8.183  0.00  0.00    +0.000 NA
ATOM      5  N   UNL     1     -16.547  43.110 -12.085  0.00  0.00    +0.000 NA
ATOM      6  C   UNL     1     -19.352  40.703  -9.807  0.00  0.00    +0.000 A 
ATOM      7  C   UNL     1     -18.588  41.796  -9.424  0.00  0.00    +0.000 A 
ATOM      8  C   UNL     1     -18.807  42.094 -12.340  0.00  0.00    +0.000 A 
ATOM      9  C   UNL     1     -17.625  42.491 -11.490  0.00  0.00    +0.000 A 
ATOM     10  C   UNL     1     -19.238  40.154 -11.160  0.00  0.00    +0.000 A 
ATOM     11  C   UNL     1     -20.245  40.127  -8.903  0.00  0.00    +0.000 A 
ATOM     12  C   UNL     1     -19.083  43.022 -13.459  0.00  0.00    +0.000 A 
ATOM     13  C   UNL     1     -20.364  40.673  -7.634  0.00  0.00    +0.000 A 
ATOM     14  C   UNL     1     -18.109  43.844 -13.858  0.00  0.00    +0.000 A 
ATOM     15  C   UNL     1     -19.576  41.769  -7.327  0.00  0.00    +0.000 A 
ATOM     16  C   UNL     1     -16.798  43.745 -13.183  0.00  0.00    +0.000 A 
ENDROOT
TORSDOF 0
ENDMDL
MODEL 2
REMARK VINA RESULT:    -6.622      1.552      5.118
REMARK INTER + INTRA:          -6.622
REMARK INTER:                  -6.622
REMARK INTRA:                   0.000
REMARK UNBOUND:                 0.000
REMARK  Name = 23119574
REMARK  0 active torsions:
REMARK  status: ('A' for Active; 'I' for Inactive)
REMARK                            x       y       z     vdW  Elec       q    Type
REMARK                         _______ _______ _______ _____ _____    ______ ____
ROOT
ATOM      1  O   UNL     1     -15.823  42.344 -11.389  0.00  0.00    +0.000 OA
ATOM      2  N   UNL     1     -19.370  40.926 -11.806  0.00  0.00    +0.000 NA
ATOM      3  N   UNL     1     -17.612  42.660  -9.974  0.00  0.00    +0.000 NA
ATOM      4  N   UNL     1     -19.859  42.299 -13.601  0.00  0.00    +0.000 NA
ATOM      5  N   UNL     1     -19.629  39.642  -9.952  0.00  0.00    +0.000 NA
ATOM      6  C   UNL     1     -17.884  42.813 -12.351  0.00  0.00    +0.000 A 
ATOM      7  C   UNL     1     -19.032  42.060 -12.554  0.00  0.00    +0.000 A 
ATOM      8  C   UNL     1     -18.600  41.891  -9.652  0.00  0.00    +0.000 A 
ATOM      9  C   UNL     1     -19.185  40.812 -10.530  0.00  0.00    +0.000 A 
ATOM     10  C   UNL     1     -17.016  42.550 -11.201  0.00  0.00    +0.000 A 
ATOM     11  C   UNL     1     -17.558  43.837 -13.239  0.00  0.00    +0.000 A 
ATOM     12  C   UNL     1     -19.225  41.983  -8.313  0.00  0.00    +0.000 A 
ATOM     13  C   UNL     1     -18.402  44.096 -14.308  0.00  0.00    +0.000 A 
ATOM     14  C   UNL     1     -19.914  40.932  -7.860  0.00  0.00    +0.000 A 
ATOM     15  C   UNL     1     -19.533  43.309 -14.442  0.00  0.00    +0.000 A 
ATOM     16  C   UNL     1     -19.973  39.724  -8.708  0.00  0.00    +0.000 A 
ENDROOT
TORSDOF 0
ENDMDL
MODEL 3
REMARK VINA RESULT:    -6.168      2.324      3.518
REMARK INTER + INTRA:          -6.168
REMARK INTER:                  -6.168
REMARK INTRA:                   0.000
REMARK UNBOUND:                 0.000
REMARK  Name = 23119574
REMARK  0 active torsions:
REMARK  status: ('A' for Active; 'I' for Inactive)
REMARK                            x       y       z     vdW  Elec       q    Type
REMARK                         _______ _______ _______ _____ _____    ______ ____
ROOT
ATOM      1  O   UNL     1     -17.725  42.978  -9.360  0.00  0.00    +0.000 OA
ATOM      2  N   UNL     1     -18.905  42.976 -13.016  0.00  0.00    +0.000 NA
ATOM      3  N   UNL     1     -16.409  43.201 -11.236  0.00  0.00    +0.000 NA
ATOM      4  N   UNL     1     -19.425  40.723 -12.994  0.00  0.00    +0.000 NA
ATOM      5  N   UNL     1     -18.274  45.026 -13.759  0.00  0.00    +0.000 NA
ATOM      6  C   UNL     1     -18.153  41.559 -11.148  0.00  0.00    +0.000 A 
ATOM      7  C   UNL     1     -18.773  41.739 -12.376  0.00  0.00    +0.000 A 
ATOM      8  C   UNL     1     -16.633  43.753 -12.384  0.00  0.00    +0.000 A 
ATOM      9  C   UNL     1     -17.989  43.891 -13.033  0.00  0.00    +0.000 A 
ATOM     10  C   UNL     1     -17.436  42.665 -10.509  0.00  0.00    +0.000 A 
ATOM     11  C   UNL     1     -18.199  40.315 -10.520  0.00  0.00    +0.000 A 
ATOM     12  C   UNL     1     -15.531  44.366 -13.157  0.00  0.00    +0.000 A 
ATOM     13  C   UNL     1     -18.856  39.268 -11.148  0.00  0.00    +0.000 A 
ATOM     14  C   UNL     1     -15.835  45.279 -14.084  0.00  0.00    +0.000 A 
ATOM     15  C   UNL     1     -19.444  39.519 -12.375  0.00  0.00    +0.000 A 
ATOM     16  C   UNL     1     -17.254  45.652 -14.249  0.00  0.00    +0.000 A 
ENDROOT
TORSDOF 0
ENDMDL
MODEL 4
REMARK VINA RESULT:    -6.128      2.856      3.515
REMARK INTER + INTRA:          -6.128
REMARK INTER:                  -6.128
REMARK INTRA:                   0.000
REMARK UNBOUND:                 0.000
REMARK  Name = 23119574
REMARK  0 active torsions:
REMARK  status: ('A' for Active; 'I' for Inactive)
REMARK                            x       y       z     vdW  Elec       q    Type
REMARK                         _______ _______ _______ _____ _____    ______ ____
ROOT
ATOM      1  O   UNL     1     -19.743  42.360 -14.794  0.00  0.00    +0.000 OA
ATOM      2  N   UNL     1     -16.415  42.629 -12.894  0.00  0.00    +0.000 NA
ATOM      3  N   UNL     1     -19.196  43.909 -13.180  0.00  0.00    +0.000 NA
ATOM      4  N   UNL     1     -16.793  40.700 -11.677  0.00  0.00    +0.000 NA
ATOM      5  N   UNL     1     -15.663  44.693 -13.468  0.00  0.00    +0.000 NA
ATOM      6  C   UNL     1     -18.649  41.592 -12.895  0.00  0.00    +0.000 A 
ATOM      7  C   UNL     1     -17.332  41.663 -12.464  0.00  0.00    +0.000 A 
ATOM      8  C   UNL     1     -18.074  44.476 -12.878  0.00  0.00    +0.000 A 
ATOM      9  C   UNL     1     -16.707  43.874 -13.097  0.00  0.00    +0.000 A 
ATOM     10  C   UNL     1     -19.216  42.655 -13.729  0.00  0.00    +0.000 A 
ATOM     11  C   UNL     1     -19.445  40.509 -12.526  0.00  0.00    +0.000 A 
ATOM     12  C   UNL     1     -18.046  45.846 -12.319  0.00  0.00    +0.000 A 
ATOM     13  C   UNL     1     -18.905  39.523 -11.714  0.00  0.00    +0.000 A 
ATOM     14  C   UNL     1     -16.917  46.553 -12.425  0.00  0.00    +0.000 A 
ATOM     15  C   UNL     1     -17.588  39.665 -11.315  0.00  0.00    +0.000 A 
ATOM     16  C   UNL     1     -15.778  45.937 -13.135  0.00  0.00    +0.000 A 
ENDROOT
TORSDOF 0
ENDMDL
MODEL 5
REMARK VINA RESULT:    -6.083      2.199      5.109
REMARK INTER + INTRA:          -6.083
REMARK INTER:                  -6.083
REMARK INTRA:                   0.000
REMARK UNBOUND:                 0.000
REMARK  Name = 23119574
REMARK  0 active torsions:
REMARK  status: ('A' for Active; 'I' for Inactive)
REMARK                            x       y       z     vdW  Elec       q    Type
REMARK                         _______ _______ _______ _____ _____    ______ ____
ROOT
ATOM      1  O   UNL     1     -15.227  43.161 -11.306  0.00  0.00    +0.000 OA
ATOM      2  N   UNL     1     -18.271  42.349 -13.505  0.00  0.00    +0.000 NA
ATOM      3  N   UNL     1     -17.275  42.382 -10.597  0.00  0.00    +0.000 NA
ATOM      4  N   UNL     1     -18.685  44.570 -13.996  0.00  0.00    +0.000 NA
ATOM      5  N   UNL     1     -18.605  40.136 -13.120  0.00  0.00    +0.000 NA
ATOM      6  C   UNL     1     -17.124  44.122 -12.238  0.00  0.00    +0.000 A 
ATOM      7  C   UNL     1     -18.036  43.692 -13.192  0.00  0.00    +0.000 A 
ATOM      8  C   UNL     1     -18.129  41.582 -11.148  0.00  0.00    +0.000 A 
ATOM      9  C   UNL     1     -18.308  41.391 -12.635  0.00  0.00    +0.000 A 
ATOM     10  C   UNL     1     -16.451  43.157 -11.366  0.00  0.00    +0.000 A 
ATOM     11  C   UNL     1     -16.853  45.482 -12.098  0.00  0.00    +0.000 A 
ATOM     12  C   UNL     1     -18.998  40.715 -10.321  0.00  0.00    +0.000 A 
ATOM     13  C   UNL     1     -17.517  46.388 -12.911  0.00  0.00    +0.000 A 
ATOM     14  C   UNL     1     -19.531  39.628 -10.883  0.00  0.00    +0.000 A 
ATOM     15  C   UNL     1     -18.419  45.887 -13.833  0.00  0.00    +0.000 A 
ATOM     16  C   UNL     1     -19.185  39.333 -12.289  0.00  0.00    +0.000 A 
ENDROOT
TORSDOF 0
ENDMDL
