MODEL 1
REMARK VINA RESULT:    -6.529      0.000      0.000
REMARK INTER + INTRA:          -6.443
REMARK INTER:                  -6.911
REMARK INTRA:                   0.468
REMARK UNBOUND:                 0.468
REMARK  Name = 23389057
REMARK  4 active torsions:
REMARK  status: ('A' for Active; 'I' for Inactive)
REMARK    1  A    between atoms: N_2  and  C_11
REMARK    2  A    between atoms: N_2  and  C_12
REMARK    3  A    between atoms: N_4  and  C_13
REMARK    4  A    between atoms: C_5  and  C_6
REMARK                            x       y       z     vdW  Elec       q    Type
REMARK                         _______ _______ _______ _____ _____    ______ ____
ROOT
ATOM      1  N   UNL     1     -18.794  42.309  -7.896  0.00  0.00    +0.000 NA
ATOM      2  N   UNL     1     -20.455  42.612  -6.215  0.00  0.00    +0.000 N 
ATOM      3  C   UNL     1     -19.224  40.798  -9.734  0.00  0.00    +0.000 A 
ATOM      4  C   UNL     1     -20.479  40.507  -9.211  0.00  0.00    +0.000 A 
ATOM      5  C   UNL     1     -20.020  42.001  -7.417  0.00  0.00    +0.000 A 
ATOM      6  C   UNL     1     -20.891  41.115  -8.030  0.00  0.00    +0.000 A 
ATOM      7  C   UNL     1     -18.427  41.699  -9.046  0.00  0.00    +0.000 A 
ATOM      8  C   UNL     1     -21.355  41.975  -5.310  0.00  0.00    +0.000 C 
ATOM      9  H   UNL     1     -19.803  43.287  -5.831  0.00  0.00    +0.000 HD
ENDROOT
BRANCH   3  12
ATOM     10  O   UNL     1     -18.875  38.949 -11.052  0.00  0.00    +0.000 OA
ATOM     11  N   UNL     1     -18.209  40.993 -11.972  0.00  0.00    +0.000 N 
ATOM     12  C   UNL     1     -18.757  40.171 -10.981  0.00  0.00    +0.000 C 
ATOM     13  C   UNL     1     -17.724  40.394 -13.208  0.00  0.00    +0.000 C 
ATOM     14  C   UNL     1     -18.074  42.444 -11.877  0.00  0.00    +0.000 C 
ENDBRANCH   3  12
TORSDOF 1
ENDMDL
MODEL 2
REMARK VINA RESULT:    -6.475      1.501      1.813
REMARK INTER + INTRA:          -6.386
REMARK INTER:                  -6.599
REMARK INTRA:                   0.213
REMARK UNBOUND:                 0.468
REMARK  Name = 23389057
REMARK  4 active torsions:
REMARK  status: ('A' for Active; 'I' for Inactive)
REMARK    1  A    between atoms: N_2  and  C_11
REMARK    2  A    between atoms: N_2  and  C_12
REMARK    3  A    between atoms: N_4  and  C_13
REMARK    4  A    between atoms: C_5  and  C_6
REMARK                            x       y       z     vdW  Elec       q    Type
REMARK                         _______ _______ _______ _____ _____    ______ ____
ROOT
ATOM      1  N   UNL     1     -21.185  40.261  -8.648  0.00  0.00    +0.000 NA
ATOM      2  N   UNL     1     -21.979  41.537  -6.799  0.00  0.00    +0.000 N 
ATOM      3  C   UNL     1     -19.003  40.742  -9.574  0.00  0.00    +0.000 A 
ATOM      4  C   UNL     1     -18.820  41.754  -8.638  0.00  0.00    +0.000 A 
ATOM      5  C   UNL     1     -20.971  41.252  -7.753  0.00  0.00    +0.000 A 
ATOM      6  C   UNL     1     -19.819  42.021  -7.707  0.00  0.00    +0.000 A 
ATOM      7  C   UNL     1     -20.192  40.030  -9.537  0.00  0.00    +0.000 A 
ATOM      8  C   UNL     1     -22.181  42.841  -6.257  0.00  0.00    +0.000 C 
ATOM      9  H   UNL     1     -22.781  40.917  -6.842  0.00  0.00    +0.000 HD
ENDROOT
BRANCH   3  12
ATOM     10  O   UNL     1     -16.888  40.040 -10.133  0.00  0.00    +0.000 OA
ATOM     11  N   UNL     1     -18.271  40.625 -11.925  0.00  0.00    +0.000 N 
ATOM     12  C   UNL     1     -17.967  40.435 -10.573  0.00  0.00    +0.000 C 
ATOM     13  C   UNL     1     -17.257  40.345 -12.931  0.00  0.00    +0.000 C 
ATOM     14  C   UNL     1     -19.557  41.095 -12.436  0.00  0.00    +0.000 C 
ENDBRANCH   3  12
TORSDOF 1
ENDMDL
MODEL 3
REMARK VINA RESULT:    -5.861      2.279      2.923
REMARK INTER + INTRA:          -5.736
REMARK INTER:                  -5.742
REMARK INTRA:                   0.006
REMARK UNBOUND:                 0.468
REMARK  Name = 23389057
REMARK  4 active torsions:
REMARK  status: ('A' for Active; 'I' for Inactive)
REMARK    1  A    between atoms: N_2  and  C_11
REMARK    2  A    between atoms: N_2  and  C_12
REMARK    3  A    between atoms: N_4  and  C_13
REMARK    4  A    between atoms: C_5  and  C_6
REMARK                            x       y       z     vdW  Elec       q    Type
REMARK                         _______ _______ _______ _____ _____    ______ ____
ROOT
ATOM      1  N   UNL     1     -19.543  39.837 -10.492  0.00  0.00    +0.000 NA
ATOM      2  N   UNL     1     -21.068  39.953  -8.665  0.00  0.00    +0.000 N 
ATOM      3  C   UNL     1     -17.698  41.395 -10.601  0.00  0.00    +0.000 A 
ATOM      4  C   UNL     1     -18.114  41.983  -9.411  0.00  0.00    +0.000 A 
ATOM      5  C   UNL     1     -19.918  40.434  -9.338  0.00  0.00    +0.000 A 
ATOM      6  C   UNL     1     -19.245  41.500  -8.762  0.00  0.00    +0.000 A 
ATOM      7  C   UNL     1     -18.439  40.334 -11.094  0.00  0.00    +0.000 A 
ATOM      8  C   UNL     1     -21.901  40.792  -7.867  0.00  0.00    +0.000 C 
ATOM      9  H   UNL     1     -21.497  39.142  -9.099  0.00  0.00    +0.000 HD
ENDROOT
BRANCH   3  12
ATOM     10  O   UNL     1     -15.477  41.225 -11.168  0.00  0.00    +0.000 OA
ATOM     11  N   UNL     1     -16.622  43.050 -12.078  0.00  0.00    +0.000 N 
ATOM     12  C   UNL     1     -16.506  41.884 -11.313  0.00  0.00    +0.000 C 
ATOM     13  C   UNL     1     -15.453  43.563 -12.778  0.00  0.00    +0.000 C 
ATOM     14  C   UNL     1     -17.850  43.824 -12.244  0.00  0.00    +0.000 C 
ENDBRANCH   3  12
TORSDOF 1
ENDMDL
MODEL 4
REMARK VINA RESULT:    -5.637      2.834      4.379
REMARK INTER + INTRA:          -5.498
REMARK INTER:                  -5.464
REMARK INTRA:                  -0.034
REMARK UNBOUND:                 0.468
REMARK  Name = 23389057
REMARK  4 active torsions:
REMARK  status: ('A' for Active; 'I' for Inactive)
REMARK    1  A    between atoms: N_2  and  C_11
REMARK    2  A    between atoms: N_2  and  C_12
REMARK    3  A    between atoms: N_4  and  C_13
REMARK    4  A    between atoms: C_5  and  C_6
REMARK                            x       y       z     vdW  Elec       q    Type
REMARK                         _______ _______ _______ _____ _____    ______ ____
ROOT
ATOM      1  N   UNL     1     -19.346  41.204 -12.230  0.00  0.00    +0.000 NA
ATOM      2  N   UNL     1     -20.016  40.050 -10.256  0.00  0.00    +0.000 N 
ATOM      3  C   UNL     1     -17.588  42.859 -12.101  0.00  0.00    +0.000 A 
ATOM      4  C   UNL     1     -17.459  42.627 -10.736  0.00  0.00    +0.000 A 
ATOM      5  C   UNL     1     -19.193  41.006 -10.901  0.00  0.00    +0.000 A 
ATOM      6  C   UNL     1     -18.274  41.685 -10.117  0.00  0.00    +0.000 A 
ATOM      7  C   UNL     1     -18.536  42.128 -12.797  0.00  0.00    +0.000 A 
ATOM      8  C   UNL     1     -20.405  40.167  -8.889  0.00  0.00    +0.000 C 
ATOM      9  H   UNL     1     -20.637  39.546 -10.880  0.00  0.00    +0.000 HD
ENDROOT
BRANCH   3  12
ATOM     10  O   UNL     1     -15.635  43.458 -13.155  0.00  0.00    +0.000 OA
ATOM     11  N   UNL     1     -17.240  45.146 -12.952  0.00  0.00    +0.000 N 
ATOM     12  C   UNL     1     -16.742  43.850 -12.786  0.00  0.00    +0.000 C 
ATOM     13  C   UNL     1     -16.415  46.149 -13.611  0.00  0.00    +0.000 C 
ATOM     14  C   UNL     1     -18.556  45.600 -12.511  0.00  0.00    +0.000 C 
ENDBRANCH   3  12
TORSDOF 1
ENDMDL
MODEL 5
REMARK VINA RESULT:    -5.429      4.533      5.872
REMARK INTER + INTRA:          -5.279
REMARK INTER:                  -5.243
REMARK INTRA:                  -0.036
REMARK UNBOUND:                 0.468
REMARK  Name = 23389057
REMARK  4 active torsions:
REMARK  status: ('A' for Active; 'I' for Inactive)
REMARK    1  A    between atoms: N_2  and  C_11
REMARK    2  A    between atoms: N_2  and  C_12
REMARK    3  A    between atoms: N_4  and  C_13
REMARK    4  A    between atoms: C_5  and  C_6
REMARK                            x       y       z     vdW  Elec       q    Type
REMARK                         _______ _______ _______ _____ _____    ______ ____
ROOT
ATOM      1  N   UNL     1     -19.432  42.166 -13.851  0.00  0.00    +0.000 NA
ATOM      2  N   UNL     1     -19.125  39.997 -12.914  0.00  0.00    +0.000 N 
ATOM      3  C   UNL     1     -18.400  44.077 -12.788  0.00  0.00    +0.000 A 
ATOM      4  C   UNL     1     -17.854  43.249 -11.813  0.00  0.00    +0.000 A 
ATOM      5  C   UNL     1     -18.886  41.393 -12.885  0.00  0.00    +0.000 A 
ATOM      6  C   UNL     1     -18.098  41.880 -11.855  0.00  0.00    +0.000 A 
ATOM      7  C   UNL     1     -19.173  43.491 -13.777  0.00  0.00    +0.000 A 
ATOM      8  C   UNL     1     -19.168  39.198 -11.733  0.00  0.00    +0.000 C 
ATOM      9  H   UNL     1     -19.666  39.683 -13.713  0.00  0.00    +0.000 HD
ENDROOT
BRANCH   3  12
ATOM     10  O   UNL     1     -19.026  46.215 -12.227  0.00  0.00    +0.000 OA
ATOM     11  N   UNL     1     -16.999  46.018 -13.375  0.00  0.00    +0.000 N 
ATOM     12  C   UNL     1     -18.162  45.529 -12.771  0.00  0.00    +0.000 C 
ATOM     13  C   UNL     1     -16.749  47.452 -13.386  0.00  0.00    +0.000 C 
ATOM     14  C   UNL     1     -15.979  45.193 -14.017  0.00  0.00    +0.000 C 
ENDBRANCH   3  12
TORSDOF 1
ENDMDL
