MODEL 1
REMARK VINA RESULT:    -6.410      0.000      0.000
REMARK INTER + INTRA:          -6.882
REMARK INTER:                  -6.784
REMARK INTRA:                  -0.098
REMARK UNBOUND:                -0.098
REMARK  Name = 23389054
REMARK  4 active torsions:
REMARK  status: ('A' for Active; 'I' for Inactive)
REMARK    1  A    between atoms: N_2  and  C_9
REMARK    2  A    between atoms: N_2  and  C_10
REMARK    3  A    between atoms: N_4  and  C_13
REMARK    4  A    between atoms: C_6  and  C_12
REMARK                            x       y       z     vdW  Elec       q    Type
REMARK                         _______ _______ _______ _____ _____    ______ ____
ROOT
ATOM      1  N   UNL     1     -21.939  41.726  -6.749  0.00  0.00    +0.000 N 
ATOM      2  N   UNL     1     -21.269  40.426  -8.629  0.00  0.00    +0.000 NA
ATOM      3  C   UNL     1     -20.946  41.335  -7.681  0.00  0.00    +0.000 A 
ATOM      4  C   UNL     1     -19.004  40.613  -9.456  0.00  0.00    +0.000 A 
ATOM      5  C   UNL     1     -19.696  41.918  -7.559  0.00  0.00    +0.000 A 
ATOM      6  C   UNL     1     -18.711  41.544  -8.467  0.00  0.00    +0.000 A 
ATOM      7  C   UNL     1     -21.630  42.696  -5.721  0.00  0.00    +0.000 C 
ATOM      8  C   UNL     1     -23.271  41.168  -6.826  0.00  0.00    +0.000 C 
ATOM      9  C   UNL     1     -20.287  40.088  -9.494  0.00  0.00    +0.000 A 
ENDROOT
BRANCH   4  12
ATOM     10  O   UNL     1     -18.179  39.283 -11.234  0.00  0.00    +0.000 OA
ATOM     11  N   UNL     1     -16.775  40.882 -10.371  0.00  0.00    +0.000 N 
ATOM     12  C   UNL     1     -17.998  40.202 -10.420  0.00  0.00    +0.000 C 
ATOM     13  C   UNL     1     -15.668  40.567 -11.244  0.00  0.00    +0.000 C 
ATOM     14  H   UNL     1     -16.601  41.572  -9.647  0.00  0.00    +0.000 HD
ENDBRANCH   4  12
TORSDOF 1
ENDMDL
MODEL 2
REMARK VINA RESULT:    -6.054      1.378      2.009
REMARK INTER + INTRA:          -6.506
REMARK INTER:                  -6.416
REMARK INTRA:                  -0.090
REMARK UNBOUND:                -0.098
REMARK  Name = 23389054
REMARK  4 active torsions:
REMARK  status: ('A' for Active; 'I' for Inactive)
REMARK    1  A    between atoms: N_2  and  C_9
REMARK    2  A    between atoms: N_2  and  C_10
REMARK    3  A    between atoms: N_4  and  C_13
REMARK    4  A    between atoms: C_6  and  C_12
REMARK                            x       y       z     vdW  Elec       q    Type
REMARK                         _______ _______ _______ _____ _____    ______ ____
ROOT
ATOM      1  N   UNL     1     -21.549  41.671  -6.820  0.00  0.00    +0.000 N 
ATOM      2  N   UNL     1     -19.317  41.836  -7.635  0.00  0.00    +0.000 NA
ATOM      3  C   UNL     1     -20.566  41.338  -7.783  0.00  0.00    +0.000 A 
ATOM      4  C   UNL     1     -18.704  40.668  -9.662  0.00  0.00    +0.000 A 
ATOM      5  C   UNL     1     -20.953  40.512  -8.826  0.00  0.00    +0.000 A 
ATOM      6  C   UNL     1     -19.998  40.176  -9.780  0.00  0.00    +0.000 A 
ATOM      7  C   UNL     1     -22.895  41.156  -6.946  0.00  0.00    +0.000 C 
ATOM      8  C   UNL     1     -21.211  42.518  -5.697  0.00  0.00    +0.000 C 
ATOM      9  C   UNL     1     -18.416  41.487  -8.581  0.00  0.00    +0.000 A 
ENDROOT
BRANCH   4  12
ATOM     10  O   UNL     1     -16.481  40.229 -10.353  0.00  0.00    +0.000 OA
ATOM     11  N   UNL     1     -18.119  40.164 -11.960  0.00  0.00    +0.000 N 
ATOM     12  C   UNL     1     -17.684  40.335 -10.641  0.00  0.00    +0.000 C 
ATOM     13  C   UNL     1     -17.220  39.860 -13.049  0.00  0.00    +0.000 C 
ATOM     14  H   UNL     1     -19.088  40.338 -12.206  0.00  0.00    +0.000 HD
ENDBRANCH   4  12
TORSDOF 1
ENDMDL
MODEL 3
REMARK VINA RESULT:    -5.780      1.937      5.394
REMARK INTER + INTRA:          -6.216
REMARK INTER:                  -6.119
REMARK INTRA:                  -0.097
REMARK UNBOUND:                -0.098
REMARK  Name = 23389054
REMARK  4 active torsions:
REMARK  status: ('A' for Active; 'I' for Inactive)
REMARK    1  A    between atoms: N_2  and  C_9
REMARK    2  A    between atoms: N_2  and  C_10
REMARK    3  A    between atoms: N_4  and  C_13
REMARK    4  A    between atoms: C_6  and  C_12
REMARK                            x       y       z     vdW  Elec       q    Type
REMARK                         _______ _______ _______ _____ _____    ______ ____
ROOT
ATOM      1  N   UNL     1     -16.901  40.742 -11.487  0.00  0.00    +0.000 N 
ATOM      2  N   UNL     1     -19.015  40.041 -10.641  0.00  0.00    +0.000 NA
ATOM      3  C   UNL     1     -17.959  40.882 -10.555  0.00  0.00    +0.000 A 
ATOM      4  C   UNL     1     -19.971  41.186  -8.737  0.00  0.00    +0.000 A 
ATOM      5  C   UNL     1     -17.838  41.881  -9.604  0.00  0.00    +0.000 A 
ATOM      6  C   UNL     1     -18.868  42.030  -8.681  0.00  0.00    +0.000 A 
ATOM      7  C   UNL     1     -15.756  41.622 -11.425  0.00  0.00    +0.000 C 
ATOM      8  C   UNL     1     -16.954  39.710 -12.499  0.00  0.00    +0.000 C 
ATOM      9  C   UNL     1     -19.996  40.216  -9.727  0.00  0.00    +0.000 A 
ENDROOT
BRANCH   4  12
ATOM     10  O   UNL     1     -22.154  40.743  -7.932  0.00  0.00    +0.000 OA
ATOM     11  N   UNL     1     -20.837  42.157  -6.692  0.00  0.00    +0.000 N 
ATOM     12  C   UNL     1     -21.062  41.315  -7.788  0.00  0.00    +0.000 C 
ATOM     13  C   UNL     1     -21.837  42.410  -5.681  0.00  0.00    +0.000 C 
ATOM     14  H   UNL     1     -19.977  42.691  -6.624  0.00  0.00    +0.000 HD
ENDBRANCH   4  12
TORSDOF 1
ENDMDL
MODEL 4
REMARK VINA RESULT:    -5.110      4.147      5.969
REMARK INTER + INTRA:          -5.507
REMARK INTER:                  -5.431
REMARK INTRA:                  -0.076
REMARK UNBOUND:                -0.098
REMARK  Name = 23389054
REMARK  4 active torsions:
REMARK  status: ('A' for Active; 'I' for Inactive)
REMARK    1  A    between atoms: N_2  and  C_9
REMARK    2  A    between atoms: N_2  and  C_10
REMARK    3  A    between atoms: N_4  and  C_13
REMARK    4  A    between atoms: C_6  and  C_12
REMARK                            x       y       z     vdW  Elec       q    Type
REMARK                         _______ _______ _______ _____ _____    ______ ____
ROOT
ATOM      1  N   UNL     1     -19.176  44.041 -15.027  0.00  0.00    +0.000 N 
ATOM      2  N   UNL     1     -19.706  42.044 -13.842  0.00  0.00    +0.000 NA
ATOM      3  C   UNL     1     -19.035  43.217 -13.883  0.00  0.00    +0.000 A 
ATOM      4  C   UNL     1     -18.733  41.662 -11.661  0.00  0.00    +0.000 A 
ATOM      5  C   UNL     1     -18.208  43.674 -12.870  0.00  0.00    +0.000 A 
ATOM      6  C   UNL     1     -18.060  42.876 -11.741  0.00  0.00    +0.000 A 
ATOM      7  C   UNL     1     -18.473  45.302 -15.106  0.00  0.00    +0.000 C 
ATOM      8  C   UNL     1     -20.012  43.620 -16.129  0.00  0.00    +0.000 C 
ATOM      9  C   UNL     1     -19.537  41.295 -12.729  0.00  0.00    +0.000 A 
ENDROOT
BRANCH   4  12
ATOM     10  O   UNL     1     -18.013  39.711 -10.526  0.00  0.00    +0.000 OA
ATOM     11  N   UNL     1     -19.196  41.263  -9.315  0.00  0.00    +0.000 N 
ATOM     12  C   UNL     1     -18.598  40.806 -10.496  0.00  0.00    +0.000 C 
ATOM     13  C   UNL     1     -19.173  40.509  -8.083  0.00  0.00    +0.000 C 
ATOM     14  H   UNL     1     -19.747  42.115  -9.316  0.00  0.00    +0.000 HD
ENDBRANCH   4  12
TORSDOF 1
ENDMDL
MODEL 5
REMARK VINA RESULT:    -5.034      4.931      6.134
REMARK INTER + INTRA:          -5.426
REMARK INTER:                  -5.334
REMARK INTRA:                  -0.092
REMARK UNBOUND:                -0.098
REMARK  Name = 23389054
REMARK  4 active torsions:
REMARK  status: ('A' for Active; 'I' for Inactive)
REMARK    1  A    between atoms: N_2  and  C_9
REMARK    2  A    between atoms: N_2  and  C_10
REMARK    3  A    between atoms: N_4  and  C_13
REMARK    4  A    between atoms: C_6  and  C_12
REMARK                            x       y       z     vdW  Elec       q    Type
REMARK                         _______ _______ _______ _____ _____    ______ ____
ROOT
ATOM      1  N   UNL     1     -18.510  40.464 -11.321  0.00  0.00    +0.000 N 
ATOM      2  N   UNL     1     -19.185  41.519 -13.347  0.00  0.00    +0.000 NA
ATOM      3  C   UNL     1     -18.542  41.605 -12.160  0.00  0.00    +0.000 A 
ATOM      4  C   UNL     1     -18.580  43.827 -13.744  0.00  0.00    +0.000 A 
ATOM      5  C   UNL     1     -17.906  42.747 -11.704  0.00  0.00    +0.000 A 
ATOM      6  C   UNL     1     -17.929  43.875 -12.517  0.00  0.00    +0.000 A 
ATOM      7  C   UNL     1     -17.832  40.519 -10.045  0.00  0.00    +0.000 C 
ATOM      8  C   UNL     1     -19.166  39.241 -11.729  0.00  0.00    +0.000 C 
ATOM      9  C   UNL     1     -19.188  42.635 -14.110  0.00  0.00    +0.000 A 
ENDROOT
BRANCH   4  12
ATOM     10  O   UNL     1     -18.579  46.153 -14.190  0.00  0.00    +0.000 OA
ATOM     11  N   UNL     1     -18.751  44.733 -15.986  0.00  0.00    +0.000 N 
ATOM     12  C   UNL     1     -18.623  44.988 -14.615  0.00  0.00    +0.000 C 
ATOM     13  C   UNL     1     -18.838  45.784 -16.973  0.00  0.00    +0.000 C 
ATOM     14  H   UNL     1     -18.875  43.783 -16.321  0.00  0.00    +0.000 HD
ENDBRANCH   4  12
TORSDOF 1
ENDMDL
