MODEL 1
REMARK VINA RESULT:    -6.411      0.000      0.000
REMARK INTER + INTRA:          -7.831
REMARK INTER:                  -7.535
REMARK INTRA:                  -0.296
REMARK UNBOUND:                -0.296
REMARK  Name = 23402635
REMARK  5 active torsions:
REMARK  status: ('A' for Active; 'I' for Inactive)
REMARK    1  A    between atoms: N_2  and  C_5
REMARK    2  A    between atoms: C_5  and  C_6
REMARK    3  A    between atoms: C_6  and  C_7
REMARK    4  A    between atoms: C_7  and  C_12
REMARK    5  A    between atoms: C_8  and  C_13
REMARK                            x       y       z     vdW  Elec       q    Type
REMARK                         _______ _______ _______ _____ _____    ______ ____
ROOT
ATOM      1  O   UNL     1     -17.315  43.560 -10.924  0.00  0.00    +0.000 OA
ATOM      2  N   UNL     1     -18.266  41.437 -11.214  0.00  0.00    +0.000 N 
ATOM      3  N   UNL     1     -19.466  40.951 -13.209  0.00  0.00    +0.000 NA
ATOM      4  N   UNL     1     -19.716  42.553 -14.878  0.00  0.00    +0.000 NA
ATOM      5  C   UNL     1     -19.006  40.601 -12.048  0.00  0.00    +0.000 A 
ATOM      6  C   UNL     1     -17.961  42.754 -11.588  0.00  0.00    +0.000 A 
ATOM      7  C   UNL     1     -18.480  43.162 -12.907  0.00  0.00    +0.000 A 
ATOM      8  C   UNL     1     -19.208  42.251 -13.660  0.00  0.00    +0.000 A 
ATOM      9  C   UNL     1     -19.291  39.195 -11.575  0.00  0.00    +0.000 C 
ATOM     10  C   UNL     1     -18.259  44.440 -13.418  0.00  0.00    +0.000 A 
ATOM     11  C   UNL     1     -18.773  44.769 -14.666  0.00  0.00    +0.000 A 
ATOM     12  C   UNL     1     -19.488  43.801 -15.349  0.00  0.00    +0.000 A 
ENDROOT
BRANCH   2  13
ATOM     13  C   UNL     1     -17.783  40.967  -9.916  0.00  0.00    +0.000 C 
BRANCH  13  14
ATOM     14  C   UNL     1     -18.544  41.592  -8.751  0.00  0.00    +0.000 C 
BRANCH  14  15
ATOM     15  C   UNL     1     -19.417  40.578  -8.009  0.00  0.00    +0.000 C 
ATOM     16  C   UNL     1     -20.844  40.583  -8.535  0.00  0.00    +0.000 C 
ENDBRANCH  14  15
ENDBRANCH  13  14
ENDBRANCH   2  13
TORSDOF 3
ENDMDL
MODEL 2
REMARK VINA RESULT:    -6.205      1.814      5.599
REMARK INTER + INTRA:          -7.590
REMARK INTER:                  -7.415
REMARK INTRA:                  -0.175
REMARK UNBOUND:                -0.296
REMARK  Name = 23402635
REMARK  5 active torsions:
REMARK  status: ('A' for Active; 'I' for Inactive)
REMARK    1  A    between atoms: N_2  and  C_5
REMARK    2  A    between atoms: C_5  and  C_6
REMARK    3  A    between atoms: C_6  and  C_7
REMARK    4  A    between atoms: C_7  and  C_12
REMARK    5  A    between atoms: C_8  and  C_13
REMARK                            x       y       z     vdW  Elec       q    Type
REMARK                         _______ _______ _______ _____ _____    ______ ____
ROOT
ATOM      1  O   UNL     1     -19.830  40.600 -12.718  0.00  0.00    +0.000 OA
ATOM      2  N   UNL     1     -18.382  42.424 -12.447  0.00  0.00    +0.000 N 
ATOM      3  N   UNL     1     -17.683  43.054 -10.263  0.00  0.00    +0.000 NA
ATOM      4  N   UNL     1     -18.420  41.890  -8.387  0.00  0.00    +0.000 NA
ATOM      5  C   UNL     1     -17.673  43.220 -11.549  0.00  0.00    +0.000 A 
ATOM      6  C   UNL     1     -19.176  41.356 -12.004  0.00  0.00    +0.000 A 
ATOM      7  C   UNL     1     -19.194  41.158 -10.543  0.00  0.00    +0.000 A 
ATOM      8  C   UNL     1     -18.452  42.010  -9.735  0.00  0.00    +0.000 A 
ATOM      9  C   UNL     1     -16.839  44.349 -12.105  0.00  0.00    +0.000 C 
ATOM     10  C   UNL     1     -19.936  40.138  -9.950  0.00  0.00    +0.000 A 
ATOM     11  C   UNL     1     -19.916  40.000  -8.568  0.00  0.00    +0.000 A 
ATOM     12  C   UNL     1     -19.150  40.893  -7.838  0.00  0.00    +0.000 A 
ENDROOT
BRANCH   2  13
ATOM     13  C   UNL     1     -18.320  42.677 -13.886  0.00  0.00    +0.000 C 
BRANCH  13  14
ATOM     14  C   UNL     1     -19.558  43.404 -14.402  0.00  0.00    +0.000 C 
BRANCH  14  15
ATOM     15  C   UNL     1     -19.918  43.007 -15.836  0.00  0.00    +0.000 C 
ATOM     16  C   UNL     1     -21.348  43.397 -16.178  0.00  0.00    +0.000 C 
ENDBRANCH  14  15
ENDBRANCH  13  14
ENDBRANCH   2  13
TORSDOF 3
ENDMDL
MODEL 3
REMARK VINA RESULT:    -5.606      1.757      2.485
REMARK INTER + INTRA:          -6.885
REMARK INTER:                  -6.591
REMARK INTRA:                  -0.294
REMARK UNBOUND:                -0.296
REMARK  Name = 23402635
REMARK  5 active torsions:
REMARK  status: ('A' for Active; 'I' for Inactive)
REMARK    1  A    between atoms: N_2  and  C_5
REMARK    2  A    between atoms: C_5  and  C_6
REMARK    3  A    between atoms: C_6  and  C_7
REMARK    4  A    between atoms: C_7  and  C_12
REMARK    5  A    between atoms: C_8  and  C_13
REMARK                            x       y       z     vdW  Elec       q    Type
REMARK                         _______ _______ _______ _____ _____    ______ ____
ROOT
ATOM      1  O   UNL     1     -19.738  40.559 -13.080  0.00  0.00    +0.000 OA
ATOM      2  N   UNL     1     -18.554  41.708 -11.416  0.00  0.00    +0.000 N 
ATOM      3  N   UNL     1     -17.852  43.946 -11.808  0.00  0.00    +0.000 NA
ATOM      4  N   UNL     1     -18.319  45.013 -13.823  0.00  0.00    +0.000 NA
ATOM      5  C   UNL     1     -17.928  42.898 -11.049  0.00  0.00    +0.000 A 
ATOM      6  C   UNL     1     -19.162  41.563 -12.672  0.00  0.00    +0.000 A 
ATOM      7  C   UNL     1     -19.081  42.750 -13.543  0.00  0.00    +0.000 A 
ATOM      8  C   UNL     1     -18.433  43.887 -13.081  0.00  0.00    +0.000 A 
ATOM      9  C   UNL     1     -17.298  42.977  -9.678  0.00  0.00    +0.000 C 
ATOM     10  C   UNL     1     -19.638  42.760 -14.821  0.00  0.00    +0.000 A 
ATOM     11  C   UNL     1     -19.531  43.906 -15.598  0.00  0.00    +0.000 A 
ATOM     12  C   UNL     1     -18.868  44.995 -15.060  0.00  0.00    +0.000 A 
ENDROOT
BRANCH   2  13
ATOM     13  C   UNL     1     -18.596  40.568 -10.502  0.00  0.00    +0.000 C 
BRANCH  13  14
ATOM     14  C   UNL     1     -19.859  40.555  -9.647  0.00  0.00    +0.000 C 
BRANCH  14  15
ATOM     15  C   UNL     1     -19.554  40.501  -8.148  0.00  0.00    +0.000 C 
ATOM     16  C   UNL     1     -20.147  41.696  -7.418  0.00  0.00    +0.000 C 
ENDBRANCH  14  15
ENDBRANCH  13  14
ENDBRANCH   2  13
TORSDOF 3
ENDMDL
MODEL 4
REMARK VINA RESULT:    -5.138      1.913      2.830
REMARK INTER + INTRA:          -6.335
REMARK INTER:                  -6.132
REMARK INTRA:                  -0.203
REMARK UNBOUND:                -0.296
REMARK  Name = 23402635
REMARK  5 active torsions:
REMARK  status: ('A' for Active; 'I' for Inactive)
REMARK    1  A    between atoms: N_2  and  C_5
REMARK    2  A    between atoms: C_5  and  C_6
REMARK    3  A    between atoms: C_6  and  C_7
REMARK    4  A    between atoms: C_7  and  C_12
REMARK    5  A    between atoms: C_8  and  C_13
REMARK                            x       y       z     vdW  Elec       q    Type
REMARK                         _______ _______ _______ _____ _____    ______ ____
ROOT
ATOM      1  O   UNL     1     -19.670  41.155 -13.189  0.00  0.00    +0.000 OA
ATOM      2  N   UNL     1     -17.855  42.441 -12.451  0.00  0.00    +0.000 N 
ATOM      3  N   UNL     1     -17.332  44.479 -13.559  0.00  0.00    +0.000 NA
ATOM      4  N   UNL     1     -18.591  45.214 -15.374  0.00  0.00    +0.000 NA
ATOM      5  C   UNL     1     -17.102  43.599 -12.635  0.00  0.00    +0.000 A 
ATOM      6  C   UNL     1     -18.948  42.144 -13.278  0.00  0.00    +0.000 A 
ATOM      7  C   UNL     1     -19.218  43.139 -14.333  0.00  0.00    +0.000 A 
ATOM      8  C   UNL     1     -18.404  44.259 -14.432  0.00  0.00    +0.000 A 
ATOM      9  C   UNL     1     -15.942  43.850 -11.701  0.00  0.00    +0.000 C 
ATOM     10  C   UNL     1     -20.270  42.984 -15.235  0.00  0.00    +0.000 A 
ATOM     11  C   UNL     1     -20.477  43.952 -16.208  0.00  0.00    +0.000 A 
ATOM     12  C   UNL     1     -19.618  45.038 -16.236  0.00  0.00    +0.000 A 
ENDROOT
BRANCH   2  13
ATOM     13  C   UNL     1     -17.530  41.496 -11.384  0.00  0.00    +0.000 C 
BRANCH  13  14
ATOM     14  C   UNL     1     -18.349  41.741 -10.120  0.00  0.00    +0.000 C 
BRANCH  14  15
ATOM     15  C   UNL     1     -18.740  40.442  -9.412  0.00  0.00    +0.000 C 
ATOM     16  C   UNL     1     -20.227  40.410  -9.090  0.00  0.00    +0.000 C 
ENDBRANCH  14  15
ENDBRANCH  13  14
ENDBRANCH   2  13
TORSDOF 3
ENDMDL
MODEL 5
REMARK VINA RESULT:    -4.884      2.501      5.124
REMARK INTER + INTRA:          -6.037
REMARK INTER:                  -5.925
REMARK INTRA:                  -0.112
REMARK UNBOUND:                -0.296
REMARK  Name = 23402635
REMARK  5 active torsions:
REMARK  status: ('A' for Active; 'I' for Inactive)
REMARK    1  A    between atoms: N_2  and  C_5
REMARK    2  A    between atoms: C_5  and  C_6
REMARK    3  A    between atoms: C_6  and  C_7
REMARK    4  A    between atoms: C_7  and  C_12
REMARK    5  A    between atoms: C_8  and  C_13
REMARK                            x       y       z     vdW  Elec       q    Type
REMARK                         _______ _______ _______ _____ _____    ______ ____
ROOT
ATOM      1  O   UNL     1     -19.225  43.548 -13.977  0.00  0.00    +0.000 OA
ATOM      2  N   UNL     1     -17.105  44.030 -13.100  0.00  0.00    +0.000 N 
ATOM      3  N   UNL     1     -16.014  42.430 -11.720  0.00  0.00    +0.000 NA
ATOM      4  N   UNL     1     -17.021  40.392 -11.221  0.00  0.00    +0.000 NA
ATOM      5  C   UNL     1     -16.043  43.581 -12.316  0.00  0.00    +0.000 A 
ATOM      6  C   UNL     1     -18.246  43.240 -13.302  0.00  0.00    +0.000 A 
ATOM      7  C   UNL     1     -18.222  41.929 -12.628  0.00  0.00    +0.000 A 
ATOM      8  C   UNL     1     -17.115  41.578 -11.868  0.00  0.00    +0.000 A 
ATOM      9  C   UNL     1     -14.849  44.490 -12.149  0.00  0.00    +0.000 C 
ATOM     10  C   UNL     1     -19.283  41.030 -12.734  0.00  0.00    +0.000 A 
ATOM     11  C   UNL     1     -19.206  39.809 -12.077  0.00  0.00    +0.000 A 
ATOM     12  C   UNL     1     -18.065  39.540 -11.340  0.00  0.00    +0.000 A 
ENDROOT
BRANCH   2  13
ATOM     13  C   UNL     1     -17.064  45.345 -13.739  0.00  0.00    +0.000 C 
BRANCH  13  14
ATOM     14  C   UNL     1     -18.077  46.315 -13.140  0.00  0.00    +0.000 C 
BRANCH  14  15
ATOM     15  C   UNL     1     -17.890  46.504 -11.633  0.00  0.00    +0.000 C 
ATOM     16  C   UNL     1     -18.264  47.913 -11.199  0.00  0.00    +0.000 C 
ENDBRANCH  14  15
ENDBRANCH  13  14
ENDBRANCH   2  13
TORSDOF 3
ENDMDL
