MODEL 1
REMARK VINA RESULT:    -6.082      0.000      0.000
REMARK INTER + INTRA:          -7.386
REMARK INTER:                  -6.971
REMARK INTRA:                  -0.414
REMARK UNBOUND:                -0.414
REMARK  Name = 23517052
REMARK  3 active torsions:
REMARK  status: ('A' for Active; 'I' for Inactive)
REMARK    1  A    between atoms: N_2  and  C_5
REMARK    2  A    between atoms: N_4  and  C_10
REMARK    3  A    between atoms: C_8  and  C_9
REMARK                            x       y       z     vdW  Elec       q    Type
REMARK                         _______ _______ _______ _____ _____    ______ ____
ROOT
ATOM      1  N   UNL     1     -21.596  42.636  -6.483  0.00  0.00    +0.000 NA
ATOM      2  C   UNL     1     -20.702  41.045  -8.069  0.00  0.00    +0.000 A 
ATOM      3  C   UNL     1     -20.583  42.140  -7.227  0.00  0.00    +0.000 A 
ATOM      4  C   UNL     1     -21.941  40.421  -8.154  0.00  0.00    +0.000 A 
ATOM      5  C   UNL     1     -23.009  40.903  -7.403  0.00  0.00    +0.000 A 
ATOM      6  C   UNL     1     -22.786  42.003  -6.590  0.00  0.00    +0.000 A 
ENDROOT
BRANCH   2   9
ATOM      7  O   UNL     1     -18.458  40.423  -8.358  0.00  0.00    +0.000 OA
ATOM      8  N   UNL     1     -19.858  40.197 -10.190  0.00  0.00    +0.000 N 
ATOM      9  C   UNL     1     -19.591  40.533  -8.858  0.00  0.00    +0.000 C 
ATOM     10  H   UNL     1     -20.802  40.313 -10.553  0.00  0.00    +0.000 HD
BRANCH   8  11
ATOM     11  C   UNL     1     -18.858  39.699 -11.093  0.00  0.00    +0.000 C 
ATOM     12  C   UNL     1     -19.051  39.767 -12.580  0.00  0.00    +0.000 C 
ATOM     13  C   UNL     1     -18.023  40.635 -11.917  0.00  0.00    +0.000 C 
ENDBRANCH   8  11
ENDBRANCH   2   9
BRANCH   3  14
ATOM     14  N   UNL     1     -19.322  42.782  -7.136  0.00  0.00    +0.000 N 
ATOM     15  H   UNL     1     -18.539  42.387  -7.642  0.00  0.00    +0.000 HD
ATOM     16  H   UNL     1     -19.125  43.267  -6.270  0.00  0.00    +0.000 HD
ENDBRANCH   3  14
TORSDOF 3
ENDMDL
MODEL 2
REMARK VINA RESULT:    -5.976      1.625      5.043
REMARK INTER + INTRA:          -7.263
REMARK INTER:                  -6.855
REMARK INTRA:                  -0.408
REMARK UNBOUND:                -0.414
REMARK  Name = 23517052
REMARK  3 active torsions:
REMARK  status: ('A' for Active; 'I' for Inactive)
REMARK    1  A    between atoms: N_2  and  C_5
REMARK    2  A    between atoms: N_4  and  C_10
REMARK    3  A    between atoms: C_8  and  C_9
REMARK                            x       y       z     vdW  Elec       q    Type
REMARK                         _______ _______ _______ _____ _____    ______ ____
ROOT
ATOM      1  N   UNL     1     -17.478  41.424 -12.063  0.00  0.00    +0.000 NA
ATOM      2  C   UNL     1     -18.880  40.719 -10.223  0.00  0.00    +0.000 A 
ATOM      3  C   UNL     1     -17.934  41.554 -10.797  0.00  0.00    +0.000 A 
ATOM      4  C   UNL     1     -19.391  39.685 -10.999  0.00  0.00    +0.000 A 
ATOM      5  C   UNL     1     -18.946  39.519 -12.307  0.00  0.00    +0.000 A 
ATOM      6  C   UNL     1     -17.998  40.408 -12.787  0.00  0.00    +0.000 A 
ENDROOT
BRANCH   2   9
ATOM      7  O   UNL     1     -18.552  40.865  -7.905  0.00  0.00    +0.000 OA
ATOM      8  N   UNL     1     -20.731  41.042  -8.673  0.00  0.00    +0.000 N 
ATOM      9  C   UNL     1     -19.352  40.884  -8.856  0.00  0.00    +0.000 C 
ATOM     10  H   UNL     1     -21.344  41.043  -9.485  0.00  0.00    +0.000 HD
BRANCH   8  11
ATOM     11  C   UNL     1     -21.342  41.194  -7.382  0.00  0.00    +0.000 C 
ATOM     12  C   UNL     1     -21.925  42.508  -6.948  0.00  0.00    +0.000 C 
ATOM     13  C   UNL     1     -22.828  41.346  -7.240  0.00  0.00    +0.000 C 
ENDBRANCH   8  11
ENDBRANCH   2   9
BRANCH   3  14
ATOM     14  N   UNL     1     -17.408  42.610 -10.011  0.00  0.00    +0.000 N 
ATOM     15  H   UNL     1     -16.409  42.773 -10.022  0.00  0.00    +0.000 HD
ATOM     16  H   UNL     1     -17.909  42.831  -9.160  0.00  0.00    +0.000 HD
ENDBRANCH   3  14
TORSDOF 3
ENDMDL
MODEL 3
REMARK VINA RESULT:    -5.911      1.883      5.589
REMARK INTER + INTRA:          -7.189
REMARK INTER:                  -6.820
REMARK INTRA:                  -0.369
REMARK UNBOUND:                -0.414
REMARK  Name = 23517052
REMARK  3 active torsions:
REMARK  status: ('A' for Active; 'I' for Inactive)
REMARK    1  A    between atoms: N_2  and  C_5
REMARK    2  A    between atoms: N_4  and  C_10
REMARK    3  A    between atoms: C_8  and  C_9
REMARK                            x       y       z     vdW  Elec       q    Type
REMARK                         _______ _______ _______ _____ _____    ______ ____
ROOT
ATOM      1  N   UNL     1     -18.279  41.259 -13.318  0.00  0.00    +0.000 NA
ATOM      2  C   UNL     1     -18.739  41.174 -10.946  0.00  0.00    +0.000 A 
ATOM      3  C   UNL     1     -18.963  40.780 -12.256  0.00  0.00    +0.000 A 
ATOM      4  C   UNL     1     -17.751  42.124 -10.712  0.00  0.00    +0.000 A 
ATOM      5  C   UNL     1     -17.025  42.641 -11.781  0.00  0.00    +0.000 A 
ATOM      6  C   UNL     1     -17.325  42.180 -13.052  0.00  0.00    +0.000 A 
ENDROOT
BRANCH   2   9
ATOM      7  O   UNL     1     -19.762  39.427  -9.760  0.00  0.00    +0.000 OA
ATOM      8  N   UNL     1     -19.907  41.549  -8.842  0.00  0.00    +0.000 N 
ATOM      9  C   UNL     1     -19.493  40.639  -9.821  0.00  0.00    +0.000 C 
ATOM     10  H   UNL     1     -19.667  42.533  -8.942  0.00  0.00    +0.000 HD
BRANCH   8  11
ATOM     11  C   UNL     1     -20.674  41.170  -7.688  0.00  0.00    +0.000 C 
ATOM     12  C   UNL     1     -20.558  41.924  -6.395  0.00  0.00    +0.000 C 
ATOM     13  C   UNL     1     -21.817  42.013  -7.205  0.00  0.00    +0.000 C 
ENDBRANCH   8  11
ENDBRANCH   2   9
BRANCH   3  14
ATOM     14  N   UNL     1     -19.970  39.813 -12.501  0.00  0.00    +0.000 N 
ATOM     15  H   UNL     1     -19.750  39.022 -13.093  0.00  0.00    +0.000 HD
ATOM     16  H   UNL     1     -20.925  40.148 -12.503  0.00  0.00    +0.000 HD
ENDBRANCH   3  14
TORSDOF 3
ENDMDL
MODEL 4
REMARK VINA RESULT:    -5.668      2.265      3.410
REMARK INTER + INTRA:          -6.911
REMARK INTER:                  -6.524
REMARK INTRA:                  -0.387
REMARK UNBOUND:                -0.414
REMARK  Name = 23517052
REMARK  3 active torsions:
REMARK  status: ('A' for Active; 'I' for Inactive)
REMARK    1  A    between atoms: N_2  and  C_5
REMARK    2  A    between atoms: N_4  and  C_10
REMARK    3  A    between atoms: C_8  and  C_9
REMARK                            x       y       z     vdW  Elec       q    Type
REMARK                         _______ _______ _______ _____ _____    ______ ____
ROOT
ATOM      1  N   UNL     1     -21.033  40.337  -8.668  0.00  0.00    +0.000 NA
ATOM      2  C   UNL     1     -18.838  41.151  -9.272  0.00  0.00    +0.000 A 
ATOM      3  C   UNL     1     -19.952  40.353  -9.479  0.00  0.00    +0.000 A 
ATOM      4  C   UNL     1     -18.833  41.985  -8.159  0.00  0.00    +0.000 A 
ATOM      5  C   UNL     1     -19.927  41.996  -7.300  0.00  0.00    +0.000 A 
ATOM      6  C   UNL     1     -20.993  41.162  -7.597  0.00  0.00    +0.000 A 
ENDROOT
BRANCH   2   9
ATOM      7  O   UNL     1     -17.175  40.075 -10.529  0.00  0.00    +0.000 OA
ATOM      8  N   UNL     1     -17.188  42.392 -10.565  0.00  0.00    +0.000 N 
ATOM      9  C   UNL     1     -17.688  41.147 -10.164  0.00  0.00    +0.000 C 
ATOM     10  H   UNL     1     -17.641  43.240 -10.232  0.00  0.00    +0.000 HD
BRANCH   8  11
ATOM     11  C   UNL     1     -16.049  42.542 -11.426  0.00  0.00    +0.000 C 
ATOM     12  C   UNL     1     -16.197  43.050 -12.831  0.00  0.00    +0.000 C 
ATOM     13  C   UNL     1     -15.529  43.902 -11.793  0.00  0.00    +0.000 C 
ENDBRANCH   8  11
ENDBRANCH   2   9
BRANCH   3  14
ATOM     14  N   UNL     1     -19.964  39.500 -10.611  0.00  0.00    +0.000 N 
ATOM     15  H   UNL     1     -19.389  38.666 -10.597  0.00  0.00    +0.000 HD
ATOM     16  H   UNL     1     -20.127  39.942 -11.507  0.00  0.00    +0.000 HD
ENDBRANCH   3  14
TORSDOF 3
ENDMDL
MODEL 5
REMARK VINA RESULT:    -5.447      4.772      6.192
REMARK INTER + INTRA:          -6.658
REMARK INTER:                  -6.195
REMARK INTRA:                  -0.462
REMARK UNBOUND:                -0.414
REMARK  Name = 23517052
REMARK  3 active torsions:
REMARK  status: ('A' for Active; 'I' for Inactive)
REMARK    1  A    between atoms: N_2  and  C_5
REMARK    2  A    between atoms: N_4  and  C_10
REMARK    3  A    between atoms: C_8  and  C_9
REMARK                            x       y       z     vdW  Elec       q    Type
REMARK                         _______ _______ _______ _____ _____    ______ ____
ROOT
ATOM      1  N   UNL     1     -16.819  40.580 -11.884  0.00  0.00    +0.000 NA
ATOM      2  C   UNL     1     -18.647  41.699 -13.004  0.00  0.00    +0.000 A 
ATOM      3  C   UNL     1     -17.306  41.553 -12.686  0.00  0.00    +0.000 A 
ATOM      4  C   UNL     1     -19.546  40.788 -12.463  0.00  0.00    +0.000 A 
ATOM      5  C   UNL     1     -19.084  39.772 -11.632  0.00  0.00    +0.000 A 
ATOM      6  C   UNL     1     -17.723  39.712 -11.377  0.00  0.00    +0.000 A 
ENDROOT
BRANCH   2   9
ATOM      7  O   UNL     1     -19.111  43.944 -13.501  0.00  0.00    +0.000 OA
ATOM      8  N   UNL     1     -19.660  42.374 -15.114  0.00  0.00    +0.000 N 
ATOM      9  C   UNL     1     -19.141  42.758 -13.872  0.00  0.00    +0.000 C 
ATOM     10  H   UNL     1     -19.667  41.388 -15.367  0.00  0.00    +0.000 HD
BRANCH   8  11
ATOM     11  C   UNL     1     -20.200  43.305 -16.064  0.00  0.00    +0.000 C 
ATOM     12  C   UNL     1     -20.797  42.836 -17.359  0.00  0.00    +0.000 C 
ATOM     13  C   UNL     1     -21.680  43.410 -16.291  0.00  0.00    +0.000 C 
ENDBRANCH   8  11
ENDBRANCH   2   9
BRANCH   3  14
ATOM     14  N   UNL     1     -16.383  42.480 -13.233  0.00  0.00    +0.000 N 
ATOM     15  H   UNL     1     -16.239  42.487 -14.236  0.00  0.00    +0.000 HD
ATOM     16  H   UNL     1     -15.600  42.737 -12.645  0.00  0.00    +0.000 HD
ENDBRANCH   3  14
TORSDOF 3
ENDMDL
