MODEL 1
REMARK VINA RESULT:    -7.145      0.000      0.000
REMARK INTER + INTRA:          -7.673
REMARK INTER:                  -7.563
REMARK INTRA:                  -0.110
REMARK UNBOUND:                -0.110
REMARK  Name = 237828
REMARK  1 active torsions:
REMARK  status: ('A' for Active; 'I' for Inactive)
REMARK    1  A    between atoms: C_6  and  C_7
REMARK                            x       y       z     vdW  Elec       q    Type
REMARK                         _______ _______ _______ _____ _____    ______ ____
ROOT
ATOM      1  O   UNL     1     -18.919  39.335 -10.954  0.00  0.00    +0.000 OA
ATOM      2  O   UNL     1     -16.359  39.382 -12.100  0.00  0.00    +0.000 OA
ATOM      3  N   UNL     1     -17.122  40.661 -10.299  0.00  0.00    +0.000 N 
ATOM      4  N   UNL     1     -14.961  40.882 -11.066  0.00  0.00    +0.000 N 
ATOM      5  C   UNL     1     -18.448  40.202 -10.195  0.00  0.00    +0.000 C 
ATOM      6  C   UNL     1     -16.171  40.231 -11.230  0.00  0.00    +0.000 C 
ATOM      7  H   UNL     1     -16.810  41.397  -9.672  0.00  0.00    +0.000 HD
ATOM      8  H   UNL     1     -14.823  41.580 -10.341  0.00  0.00    +0.000 HD
ATOM      9  H   UNL     1     -14.170  40.680 -11.667  0.00  0.00    +0.000 HD
ENDROOT
BRANCH   5  11
ATOM     10  N   UNL     1     -19.430  42.271  -7.244  0.00  0.00    +0.000 NA
ATOM     11  C   UNL     1     -19.256  40.766  -9.128  0.00  0.00    +0.000 A 
ATOM     12  C   UNL     1     -20.579  40.377  -8.948  0.00  0.00    +0.000 A 
ATOM     13  C   UNL     1     -18.734  41.709  -8.257  0.00  0.00    +0.000 A 
ATOM     14  C   UNL     1     -21.327  40.933  -7.917  0.00  0.00    +0.000 A 
ATOM     15  C   UNL     1     -20.712  41.868  -7.100  0.00  0.00    +0.000 A 
ENDBRANCH   5  11
TORSDOF 1
ENDMDL
MODEL 2
REMARK VINA RESULT:    -6.790      2.707      5.433
REMARK INTER + INTRA:          -7.298
REMARK INTER:                  -7.188
REMARK INTRA:                  -0.109
REMARK UNBOUND:                -0.110
REMARK  Name = 237828
REMARK  1 active torsions:
REMARK  status: ('A' for Active; 'I' for Inactive)
REMARK    1  A    between atoms: C_6  and  C_7
REMARK                            x       y       z     vdW  Elec       q    Type
REMARK                         _______ _______ _______ _____ _____    ______ ____
ROOT
ATOM      1  O   UNL     1     -21.824  39.942  -8.393  0.00  0.00    +0.000 OA
ATOM      2  O   UNL     1     -23.262  41.604  -6.651  0.00  0.00    +0.000 OA
ATOM      3  N   UNL     1     -21.180  42.041  -7.618  0.00  0.00    +0.000 N 
ATOM      4  N   UNL     1     -22.165  43.573  -6.207  0.00  0.00    +0.000 N 
ATOM      5  C   UNL     1     -20.991  40.867  -8.370  0.00  0.00    +0.000 C 
ATOM      6  C   UNL     1     -22.288  42.336  -6.815  0.00  0.00    +0.000 C 
ATOM      7  H   UNL     1     -20.445  42.741  -7.614  0.00  0.00    +0.000 HD
ATOM      8  H   UNL     1     -21.353  44.163  -6.355  0.00  0.00    +0.000 HD
ATOM      9  H   UNL     1     -22.888  43.929  -5.591  0.00  0.00    +0.000 HD
ENDROOT
BRANCH   5  11
ATOM     10  N   UNL     1     -18.504  39.654 -10.879  0.00  0.00    +0.000 NA
ATOM     11  C   UNL     1     -19.775  40.783  -9.162  0.00  0.00    +0.000 A 
ATOM     12  C   UNL     1     -18.744  41.699  -8.990  0.00  0.00    +0.000 A 
ATOM     13  C   UNL     1     -19.608  39.789 -10.112  0.00  0.00    +0.000 A 
ATOM     14  C   UNL     1     -17.592  41.593  -9.761  0.00  0.00    +0.000 A 
ATOM     15  C   UNL     1     -17.522  40.562 -10.684  0.00  0.00    +0.000 A 
ENDBRANCH   5  11
TORSDOF 1
ENDMDL
MODEL 3
REMARK VINA RESULT:    -6.449      1.942      2.485
REMARK INTER + INTRA:          -6.936
REMARK INTER:                  -6.828
REMARK INTRA:                  -0.108
REMARK UNBOUND:                -0.110
REMARK  Name = 237828
REMARK  1 active torsions:
REMARK  status: ('A' for Active; 'I' for Inactive)
REMARK    1  A    between atoms: C_6  and  C_7
REMARK                            x       y       z     vdW  Elec       q    Type
REMARK                         _______ _______ _______ _____ _____    ______ ____
ROOT
ATOM      1  O   UNL     1     -17.913  42.287  -8.737  0.00  0.00    +0.000 OA
ATOM      2  O   UNL     1     -16.645  40.933 -10.840  0.00  0.00    +0.000 OA
ATOM      3  N   UNL     1     -18.728  40.444  -9.903  0.00  0.00    +0.000 N 
ATOM      4  N   UNL     1     -17.893  39.175 -11.634  0.00  0.00    +0.000 N 
ATOM      5  C   UNL     1     -18.813  41.445  -8.917  0.00  0.00    +0.000 C 
ATOM      6  C   UNL     1     -17.666  40.250 -10.792  0.00  0.00    +0.000 C 
ATOM      7  H   UNL     1     -19.480  39.766  -9.974  0.00  0.00    +0.000 HD
ATOM      8  H   UNL     1     -18.743  38.623 -11.580  0.00  0.00    +0.000 HD
ATOM      9  H   UNL     1     -17.212  38.905 -12.336  0.00  0.00    +0.000 HD
ENDROOT
BRANCH   5  11
ATOM     10  N   UNL     1     -22.347  40.852  -7.864  0.00  0.00    +0.000 NA
ATOM     11  C   UNL     1     -20.027  41.482  -8.121  0.00  0.00    +0.000 A 
ATOM     12  C   UNL     1     -20.066  42.149  -6.902  0.00  0.00    +0.000 A 
ATOM     13  C   UNL     1     -21.185  40.855  -8.553  0.00  0.00    +0.000 A 
ATOM     14  C   UNL     1     -21.243  42.169  -6.164  0.00  0.00    +0.000 A 
ATOM     15  C   UNL     1     -22.346  41.511  -6.684  0.00  0.00    +0.000 A 
ENDBRANCH   5  11
TORSDOF 1
ENDMDL
MODEL 4
REMARK VINA RESULT:    -5.533      2.028      4.843
REMARK INTER + INTRA:          -5.967
REMARK INTER:                  -5.867
REMARK INTRA:                  -0.099
REMARK UNBOUND:                -0.110
REMARK  Name = 237828
REMARK  1 active torsions:
REMARK  status: ('A' for Active; 'I' for Inactive)
REMARK    1  A    between atoms: C_6  and  C_7
REMARK                            x       y       z     vdW  Elec       q    Type
REMARK                         _______ _______ _______ _____ _____    ______ ____
ROOT
ATOM      1  O   UNL     1     -20.668  39.546  -9.432  0.00  0.00    +0.000 OA
ATOM      2  O   UNL     1     -21.268  41.071  -7.156  0.00  0.00    +0.000 OA
ATOM      3  N   UNL     1     -19.441  41.335  -8.588  0.00  0.00    +0.000 N 
ATOM      4  N   UNL     1     -19.718  42.721  -6.769  0.00  0.00    +0.000 N 
ATOM      5  C   UNL     1     -19.684  40.303  -9.514  0.00  0.00    +0.000 C 
ATOM      6  C   UNL     1     -20.235  41.653  -7.481  0.00  0.00    +0.000 C 
ATOM      7  H   UNL     1     -18.600  41.894  -8.692  0.00  0.00    +0.000 HD
ATOM      8  H   UNL     1     -18.864  43.190  -7.054  0.00  0.00    +0.000 HD
ATOM      9  H   UNL     1     -20.181  43.070  -5.937  0.00  0.00    +0.000 HD
ENDROOT
BRANCH   5  11
ATOM     10  N   UNL     1     -16.453  40.240 -11.388  0.00  0.00    +0.000 NA
ATOM     11  C   UNL     1     -18.742  40.171 -10.612  0.00  0.00    +0.000 A 
ATOM     12  C   UNL     1     -19.175  39.865 -11.897  0.00  0.00    +0.000 A 
ATOM     13  C   UNL     1     -17.382  40.347 -10.412  0.00  0.00    +0.000 A 
ATOM     14  C   UNL     1     -18.250  39.746 -12.927  0.00  0.00    +0.000 A 
ATOM     15  C   UNL     1     -16.912  39.941 -12.623  0.00  0.00    +0.000 A 
ENDBRANCH   5  11
TORSDOF 1
ENDMDL
MODEL 5
REMARK VINA RESULT:    -5.468      2.318      4.991
REMARK INTER + INTRA:          -5.897
REMARK INTER:                  -5.793
REMARK INTRA:                  -0.105
REMARK UNBOUND:                -0.110
REMARK  Name = 237828
REMARK  1 active torsions:
REMARK  status: ('A' for Active; 'I' for Inactive)
REMARK    1  A    between atoms: C_6  and  C_7
REMARK                            x       y       z     vdW  Elec       q    Type
REMARK                         _______ _______ _______ _____ _____    ______ ____
ROOT
ATOM      1  O   UNL     1     -19.240  39.346 -10.766  0.00  0.00    +0.000 OA
ATOM      2  O   UNL     1     -21.084  39.418  -8.654  0.00  0.00    +0.000 OA
ATOM      3  N   UNL     1     -19.783  41.188  -9.450  0.00  0.00    +0.000 N 
ATOM      4  N   UNL     1     -21.234  41.496  -7.687  0.00  0.00    +0.000 N 
ATOM      5  C   UNL     1     -19.080  40.548 -10.489  0.00  0.00    +0.000 C 
ATOM      6  C   UNL     1     -20.728  40.594  -8.607  0.00  0.00    +0.000 C 
ATOM      7  H   UNL     1     -19.579  42.162  -9.252  0.00  0.00    +0.000 HD
ATOM      8  H   UNL     1     -20.928  42.464  -7.665  0.00  0.00    +0.000 HD
ATOM      9  H   UNL     1     -21.929  41.216  -7.005  0.00  0.00    +0.000 HD
ENDROOT
BRANCH   5  11
ATOM     10  N   UNL     1     -17.019  41.773 -13.353  0.00  0.00    +0.000 NA
ATOM     11  C   UNL     1     -18.164  41.368 -11.263  0.00  0.00    +0.000 A 
ATOM     12  C   UNL     1     -17.563  42.492 -10.708  0.00  0.00    +0.000 A 
ATOM     13  C   UNL     1     -17.863  41.055 -12.579  0.00  0.00    +0.000 A 
ATOM     14  C   UNL     1     -16.690  43.256 -11.473  0.00  0.00    +0.000 A 
ATOM     15  C   UNL     1     -16.454  42.858 -12.780  0.00  0.00    +0.000 A 
ENDBRANCH   5  11
TORSDOF 1
ENDMDL
