MODEL 1
REMARK VINA RESULT:    -7.400      0.000      0.000
REMARK INTER + INTRA:          -8.352
REMARK INTER:                  -8.266
REMARK INTRA:                  -0.086
REMARK UNBOUND:                -0.086
REMARK  Name = 2405731
REMARK  3 active torsions:
REMARK  status: ('A' for Active; 'I' for Inactive)
REMARK    1  A    between atoms: N_3  and  N_5
REMARK    2  A    between atoms: N_4  and  N_6
REMARK    3  A    between atoms: C_7  and  C_12
REMARK                            x       y       z     vdW  Elec       q    Type
REMARK                         _______ _______ _______ _____ _____    ______ ____
ROOT
ATOM      1  N   UNL     1     -19.557  42.449  -6.944  0.00  0.00    +0.000 NA
ATOM      2  N   UNL     1     -21.508  43.072  -5.726  0.00  0.00    +0.000 N 
ATOM      3  C   UNL     1     -19.753  40.903  -8.791  0.00  0.00    +0.000 A 
ATOM      4  C   UNL     1     -21.124  40.814  -8.582  0.00  0.00    +0.000 A 
ATOM      5  C   UNL     1     -20.893  42.337  -6.769  0.00  0.00    +0.000 A 
ATOM      6  C   UNL     1     -21.714  41.541  -7.554  0.00  0.00    +0.000 A 
ATOM      7  C   UNL     1     -19.020  41.727  -7.953  0.00  0.00    +0.000 A 
ATOM      8  H   UNL     1     -20.903  43.626  -5.133  0.00  0.00    +0.000 HD
ENDROOT
BRANCH   3  11
ATOM      9  O   UNL     1     -17.869  40.189  -9.993  0.00  0.00    +0.000 OA
ATOM     10  N   UNL     1     -19.936  39.398 -10.691  0.00  0.00    +0.000 N 
ATOM     11  C   UNL     1     -19.107  40.155  -9.857  0.00  0.00    +0.000 C 
ATOM     12  H   UNL     1     -20.939  39.326 -10.553  0.00  0.00    +0.000 HD
BRANCH  10  13
ATOM     13  N   UNL     1     -19.390  38.647 -11.713  0.00  0.00    +0.000 NA
ATOM     14  H   UNL     1     -19.700  39.068 -12.588  0.00  0.00    +0.000 HD
ATOM     15  H   UNL     1     -18.381  38.787 -11.675  0.00  0.00    +0.000 HD
ENDBRANCH  10  13
ENDBRANCH   3  11
BRANCH   2  16
ATOM     16  N   UNL     1     -22.788  42.800  -5.314  0.00  0.00    +0.000 NA
ATOM     17  H   UNL     1     -23.436  43.337  -5.888  0.00  0.00    +0.000 HD
ATOM     18  H   UNL     1     -22.904  43.142  -4.361  0.00  0.00    +0.000 HD
ENDBRANCH   2  16
TORSDOF 3
ENDMDL
MODEL 2
REMARK VINA RESULT:    -7.149      2.166      5.044
REMARK INTER + INTRA:          -8.071
REMARK INTER:                  -7.985
REMARK INTRA:                  -0.086
REMARK UNBOUND:                -0.086
REMARK  Name = 2405731
REMARK  3 active torsions:
REMARK  status: ('A' for Active; 'I' for Inactive)
REMARK    1  A    between atoms: N_3  and  N_5
REMARK    2  A    between atoms: N_4  and  N_6
REMARK    3  A    between atoms: C_7  and  C_12
REMARK                            x       y       z     vdW  Elec       q    Type
REMARK                         _______ _______ _______ _____ _____    ______ ____
ROOT
ATOM      1  N   UNL     1     -18.279  41.747  -8.429  0.00  0.00    +0.000 NA
ATOM      2  N   UNL     1     -17.126  40.494 -10.096  0.00  0.00    +0.000 N 
ATOM      3  C   UNL     1     -20.630  41.334  -8.047  0.00  0.00    +0.000 A 
ATOM      4  C   UNL     1     -20.628  40.359  -9.038  0.00  0.00    +0.000 A 
ATOM      5  C   UNL     1     -18.315  40.793  -9.387  0.00  0.00    +0.000 A 
ATOM      6  C   UNL     1     -19.453  40.077  -9.726  0.00  0.00    +0.000 A 
ATOM      7  C   UNL     1     -19.440  41.994  -7.783  0.00  0.00    +0.000 A 
ATOM      8  H   UNL     1     -16.304  41.041  -9.872  0.00  0.00    +0.000 HD
ENDROOT
BRANCH   3  11
ATOM      9  O   UNL     1     -22.888  41.004  -7.505  0.00  0.00    +0.000 OA
ATOM     10  N   UNL     1     -21.761  42.692  -6.379  0.00  0.00    +0.000 N 
ATOM     11  C   UNL     1     -21.841  41.652  -7.311  0.00  0.00    +0.000 C 
ATOM     12  H   UNL     1     -20.899  43.189  -6.179  0.00  0.00    +0.000 HD
BRANCH  10  13
ATOM     13  N   UNL     1     -22.868  43.035  -5.629  0.00  0.00    +0.000 NA
ATOM     14  H   UNL     1     -22.567  43.748  -4.965  0.00  0.00    +0.000 HD
ATOM     15  H   UNL     1     -23.521  43.497  -6.261  0.00  0.00    +0.000 HD
ENDBRANCH  10  13
ENDBRANCH   3  11
BRANCH   2  16
ATOM     16  N   UNL     1     -17.145  39.754 -11.251  0.00  0.00    +0.000 NA
ATOM     17  H   UNL     1     -16.986  38.776 -11.014  0.00  0.00    +0.000 HD
ATOM     18  H   UNL     1     -16.357  40.035 -11.833  0.00  0.00    +0.000 HD
ENDBRANCH   2  16
TORSDOF 3
ENDMDL
MODEL 3
REMARK VINA RESULT:    -7.127      1.853      2.161
REMARK INTER + INTRA:          -8.047
REMARK INTER:                  -7.960
REMARK INTRA:                  -0.087
REMARK UNBOUND:                -0.086
REMARK  Name = 2405731
REMARK  3 active torsions:
REMARK  status: ('A' for Active; 'I' for Inactive)
REMARK    1  A    between atoms: N_3  and  N_5
REMARK    2  A    between atoms: N_4  and  N_6
REMARK    3  A    between atoms: C_7  and  C_12
REMARK                            x       y       z     vdW  Elec       q    Type
REMARK                         _______ _______ _______ _____ _____    ______ ____
ROOT
ATOM      1  N   UNL     1     -21.913  40.514  -8.152  0.00  0.00    +0.000 NA
ATOM      2  N   UNL     1     -22.690  41.921  -6.393  0.00  0.00    +0.000 N 
ATOM      3  C   UNL     1     -19.625  40.711  -8.908  0.00  0.00    +0.000 A 
ATOM      4  C   UNL     1     -19.395  41.717  -7.976  0.00  0.00    +0.000 A 
ATOM      5  C   UNL     1     -21.653  41.496  -7.259  0.00  0.00    +0.000 A 
ATOM      6  C   UNL     1     -20.423  42.123  -7.132  0.00  0.00    +0.000 A 
ATOM      7  C   UNL     1     -20.890  40.147  -8.956  0.00  0.00    +0.000 A 
ATOM      8  H   UNL     1     -23.597  41.486  -6.509  0.00  0.00    +0.000 HD
ENDROOT
BRANCH   3  11
ATOM      9  O   UNL     1     -18.791  39.368 -10.640  0.00  0.00    +0.000 OA
ATOM     10  N   UNL     1     -17.331  40.899  -9.686  0.00  0.00    +0.000 N 
ATOM     11  C   UNL     1     -18.572  40.265  -9.803  0.00  0.00    +0.000 C 
ATOM     12  H   UNL     1     -17.161  41.665  -9.043  0.00  0.00    +0.000 HD
BRANCH  10  13
ATOM     13  N   UNL     1     -16.289  40.539 -10.519  0.00  0.00    +0.000 NA
ATOM     14  H   UNL     1     -16.668  39.880 -11.199  0.00  0.00    +0.000 HD
ATOM     15  H   UNL     1     -16.032  41.372 -11.047  0.00  0.00    +0.000 HD
ENDBRANCH  10  13
ENDBRANCH   3  11
BRANCH   2  16
ATOM     16  N   UNL     1     -22.589  43.081  -5.667  0.00  0.00    +0.000 NA
ATOM     17  H   UNL     1     -21.648  43.453  -5.776  0.00  0.00    +0.000 HD
ATOM     18  H   UNL     1     -22.692  42.857  -4.678  0.00  0.00    +0.000 HD
ENDBRANCH   2  16
TORSDOF 3
ENDMDL
MODEL 4
REMARK VINA RESULT:    -6.671      1.741      2.078
REMARK INTER + INTRA:          -7.537
REMARK INTER:                  -7.452
REMARK INTRA:                  -0.085
REMARK UNBOUND:                -0.086
REMARK  Name = 2405731
REMARK  3 active torsions:
REMARK  status: ('A' for Active; 'I' for Inactive)
REMARK    1  A    between atoms: N_3  and  N_5
REMARK    2  A    between atoms: N_4  and  N_6
REMARK    3  A    between atoms: C_7  and  C_12
REMARK                            x       y       z     vdW  Elec       q    Type
REMARK                         _______ _______ _______ _____ _____    ______ ____
ROOT
ATOM      1  N   UNL     1     -18.463  42.355  -8.443  0.00  0.00    +0.000 NA
ATOM      2  N   UNL     1     -19.961  42.662  -6.616  0.00  0.00    +0.000 N 
ATOM      3  C   UNL     1     -18.801  40.502  -9.958  0.00  0.00    +0.000 A 
ATOM      4  C   UNL     1     -19.916  40.101  -9.231  0.00  0.00    +0.000 A 
ATOM      5  C   UNL     1     -19.552  41.934  -7.760  0.00  0.00    +0.000 A 
ATOM      6  C   UNL     1     -20.306  40.825  -8.110  0.00  0.00    +0.000 A 
ATOM      7  C   UNL     1     -18.114  41.625  -9.526  0.00  0.00    +0.000 A 
ATOM      8  H   UNL     1     -19.390  43.452  -6.341  0.00  0.00    +0.000 HD
ENDROOT
BRANCH   3  11
ATOM      9  O   UNL     1     -19.094  38.883 -11.630  0.00  0.00    +0.000 OA
ATOM     10  N   UNL     1     -17.127  40.113 -11.675  0.00  0.00    +0.000 N 
ATOM     11  C   UNL     1     -18.369  39.766 -11.134  0.00  0.00    +0.000 C 
ATOM     12  H   UNL     1     -16.555  40.865 -11.307  0.00  0.00    +0.000 HD
BRANCH  10  13
ATOM     13  N   UNL     1     -16.661  39.469 -12.805  0.00  0.00    +0.000 NA
ATOM     14  H   UNL     1     -15.653  39.370 -12.695  0.00  0.00    +0.000 HD
ATOM     15  H   UNL     1     -17.041  38.523 -12.784  0.00  0.00    +0.000 HD
ENDBRANCH  10  13
ENDBRANCH   3  11
BRANCH   2  16
ATOM     16  N   UNL     1     -20.869  42.148  -5.724  0.00  0.00    +0.000 NA
ATOM     17  H   UNL     1     -21.514  42.888  -5.453  0.00  0.00    +0.000 HD
ATOM     18  H   UNL     1     -20.376  41.878  -4.874  0.00  0.00    +0.000 HD
ENDBRANCH   2  16
TORSDOF 3
ENDMDL
MODEL 5
REMARK VINA RESULT:    -6.097      2.349      5.527
REMARK INTER + INTRA:          -6.897
REMARK INTER:                  -6.814
REMARK INTRA:                  -0.082
REMARK UNBOUND:                -0.086
REMARK  Name = 2405731
REMARK  3 active torsions:
REMARK  status: ('A' for Active; 'I' for Inactive)
REMARK    1  A    between atoms: N_3  and  N_5
REMARK    2  A    between atoms: N_4  and  N_6
REMARK    3  A    between atoms: C_7  and  C_12
REMARK                            x       y       z     vdW  Elec       q    Type
REMARK                         _______ _______ _______ _____ _____    ______ ____
ROOT
ATOM      1  N   UNL     1     -17.284  41.777 -10.572  0.00  0.00    +0.000 NA
ATOM      2  N   UNL     1     -16.498  40.545 -12.454  0.00  0.00    +0.000 N 
ATOM      3  C   UNL     1     -19.233  40.998  -9.372  0.00  0.00    +0.000 A 
ATOM      4  C   UNL     1     -19.344  39.916 -10.238  0.00  0.00    +0.000 A 
ATOM      5  C   UNL     1     -17.425  40.714 -11.396  0.00  0.00    +0.000 A 
ATOM      6  C   UNL     1     -18.427  39.764 -11.273  0.00  0.00    +0.000 A 
ATOM      7  C   UNL     1     -18.195  41.892  -9.579  0.00  0.00    +0.000 A 
ATOM      8  H   UNL     1     -15.787  41.257 -12.564  0.00  0.00    +0.000 HD
ENDROOT
BRANCH   3  11
ATOM      9  O   UNL     1     -21.297  40.643  -8.315  0.00  0.00    +0.000 OA
ATOM     10  N   UNL     1     -19.751  41.972  -7.207  0.00  0.00    +0.000 N 
ATOM     11  C   UNL     1     -20.175  41.184  -8.281  0.00  0.00    +0.000 C 
ATOM     12  H   UNL     1     -18.820  42.373  -7.149  0.00  0.00    +0.000 HD
BRANCH  10  13
ATOM     13  N   UNL     1     -20.587  42.176  -6.127  0.00  0.00    +0.000 NA
ATOM     14  H   UNL     1     -21.384  42.713  -6.466  0.00  0.00    +0.000 HD
ATOM     15  H   UNL     1     -20.954  41.264  -5.861  0.00  0.00    +0.000 HD
ENDBRANCH  10  13
ENDBRANCH   3  11
BRANCH   2  16
ATOM     16  N   UNL     1     -16.734  39.667 -13.482  0.00  0.00    +0.000 NA
ATOM     17  H   UNL     1     -17.076  40.192 -14.285  0.00  0.00    +0.000 HD
ATOM     18  H   UNL     1     -17.491  39.042 -13.210  0.00  0.00    +0.000 HD
ENDBRANCH   2  16
TORSDOF 3
ENDMDL
