MODEL 1
REMARK VINA RESULT:    -6.406      0.000      0.000
REMARK INTER + INTRA:          -7.171
REMARK INTER:                  -7.155
REMARK INTRA:                  -0.016
REMARK UNBOUND:                -0.016
REMARK  Name = 24691059
REMARK  2 active torsions:
REMARK  status: ('A' for Active; 'I' for Inactive)
REMARK    1  A    between atoms: N_3  and  C_11
REMARK    2  A    between atoms: C_12  and  C_14
REMARK                            x       y       z     vdW  Elec       q    Type
REMARK                         _______ _______ _______ _____ _____    ______ ____
ROOT
ATOM      1  N   UNL     1     -18.492  42.344  -8.533  0.00  0.00    +0.000 NA
ATOM      2  C   UNL     1     -18.541  41.761  -9.751  0.00  0.00    +0.000 A 
ATOM      3  C   UNL     1     -19.296  40.637 -10.043  0.00  0.00    +0.000 A 
ATOM      4  C   UNL     1     -20.051  40.075  -9.019  0.00  0.00    +0.000 A 
ATOM      5  C   UNL     1     -19.239  41.770  -7.562  0.00  0.00    +0.000 A 
ATOM      6  C   UNL     1     -20.027  40.646  -7.753  0.00  0.00    +0.000 A 
ENDROOT
BRANCH   2   8
ATOM      7  O   UNL     1     -15.318  43.970 -13.505  0.00  0.00    +0.000 OA
ATOM      8  N   UNL     1     -17.779  42.331 -10.777  0.00  0.00    +0.000 N 
ATOM      9  C   UNL     1     -16.577  41.603 -11.211  0.00  0.00    +0.000 C 
ATOM     10  C   UNL     1     -17.728  43.791 -10.918  0.00  0.00    +0.000 C 
ATOM     11  C   UNL     1     -16.251  41.925 -12.663  0.00  0.00    +0.000 C 
ATOM     12  C   UNL     1     -17.415  44.181 -12.359  0.00  0.00    +0.000 C 
ATOM     13  C   UNL     1     -16.216  43.421 -12.870  0.00  0.00    +0.000 C 
ENDBRANCH   2   8
BRANCH   3  16
ATOM     14  O   UNL     1     -18.805  38.924 -11.585  0.00  0.00    +0.000 OA
ATOM     15  N   UNL     1     -19.981  40.725 -12.381  0.00  0.00    +0.000 N 
ATOM     16  C   UNL     1     -19.328  40.030 -11.367  0.00  0.00    +0.000 C 
ATOM     17  H   UNL     1     -20.418  41.627 -12.220  0.00  0.00    +0.000 HD
ATOM     18  H   UNL     1     -20.038  40.346 -13.320  0.00  0.00    +0.000 HD
ENDBRANCH   3  16
TORSDOF 2
ENDMDL
MODEL 2
REMARK VINA RESULT:    -5.975      2.169      5.125
REMARK INTER + INTRA:          -6.689
REMARK INTER:                  -6.297
REMARK INTRA:                  -0.393
REMARK UNBOUND:                -0.016
REMARK  Name = 24691059
REMARK  2 active torsions:
REMARK  status: ('A' for Active; 'I' for Inactive)
REMARK    1  A    between atoms: N_3  and  C_11
REMARK    2  A    between atoms: C_12  and  C_14
REMARK                            x       y       z     vdW  Elec       q    Type
REMARK                         _______ _______ _______ _____ _____    ______ ____
ROOT
ATOM      1  N   UNL     1     -15.003  42.534 -11.332  0.00  0.00    +0.000 NA
ATOM      2  C   UNL     1     -16.213  42.726 -11.902  0.00  0.00    +0.000 A 
ATOM      3  C   UNL     1     -16.600  43.902 -12.524  0.00  0.00    +0.000 A 
ATOM      4  C   UNL     1     -15.685  44.948 -12.566  0.00  0.00    +0.000 A 
ATOM      5  C   UNL     1     -14.140  43.574 -11.392  0.00  0.00    +0.000 A 
ATOM      6  C   UNL     1     -14.430  44.789 -11.991  0.00  0.00    +0.000 A 
ENDROOT
BRANCH   2   8
ATOM      7  O   UNL     1     -19.559  38.484 -11.484  0.00  0.00    +0.000 OA
ATOM      8  N   UNL     1     -17.129  41.670 -11.856  0.00  0.00    +0.000 N 
ATOM      9  C   UNL     1     -17.757  41.374 -10.560  0.00  0.00    +0.000 C 
ATOM     10  C   UNL     1     -16.964  40.526 -12.762  0.00  0.00    +0.000 C 
ATOM     11  C   UNL     1     -19.122  40.730 -10.760  0.00  0.00    +0.000 C 
ATOM     12  C   UNL     1     -18.304  39.842 -13.013  0.00  0.00    +0.000 C 
ATOM     13  C   UNL     1     -19.014  39.562 -11.711  0.00  0.00    +0.000 C 
ENDBRANCH   2   8
BRANCH   3  16
ATOM     14  O   UNL     1     -18.812  44.713 -12.551  0.00  0.00    +0.000 OA
ATOM     15  N   UNL     1     -18.123  43.528 -14.389  0.00  0.00    +0.000 N 
ATOM     16  C   UNL     1     -17.913  44.079 -13.129  0.00  0.00    +0.000 C 
ATOM     17  H   UNL     1     -17.399  43.011 -14.879  0.00  0.00    +0.000 HD
ATOM     18  H   UNL     1     -19.017  43.626 -14.859  0.00  0.00    +0.000 HD
ENDBRANCH   3  16
TORSDOF 2
ENDMDL
MODEL 3
REMARK VINA RESULT:    -5.528      6.984      8.532
REMARK INTER + INTRA:          -6.189
REMARK INTER:                  -5.774
REMARK INTRA:                  -0.415
REMARK UNBOUND:                -0.016
REMARK  Name = 24691059
REMARK  2 active torsions:
REMARK  status: ('A' for Active; 'I' for Inactive)
REMARK    1  A    between atoms: N_3  and  C_11
REMARK    2  A    between atoms: C_12  and  C_14
REMARK                            x       y       z     vdW  Elec       q    Type
REMARK                         _______ _______ _______ _____ _____    ______ ____
ROOT
ATOM      1  N   UNL     1     -21.947  46.082 -18.371  0.00  0.00    +0.000 NA
ATOM      2  C   UNL     1     -21.064  45.112 -18.044  0.00  0.00    +0.000 A 
ATOM      3  C   UNL     1     -21.338  44.081 -17.160  0.00  0.00    +0.000 A 
ATOM      4  C   UNL     1     -22.599  44.042 -16.575  0.00  0.00    +0.000 A 
ATOM      5  C   UNL     1     -23.162  46.012 -17.782  0.00  0.00    +0.000 A 
ATOM      6  C   UNL     1     -23.533  45.022 -16.886  0.00  0.00    +0.000 A 
ENDROOT
BRANCH   2   8
ATOM      7  O   UNL     1     -16.231  45.611 -20.443  0.00  0.00    +0.000 OA
ATOM      8  N   UNL     1     -19.798  45.157 -18.637  0.00  0.00    +0.000 N 
ATOM      9  C   UNL     1     -18.878  46.213 -18.188  0.00  0.00    +0.000 C 
ATOM     10  C   UNL     1     -19.629  44.709 -20.025  0.00  0.00    +0.000 C 
ATOM     11  C   UNL     1     -17.431  45.776 -18.371  0.00  0.00    +0.000 C 
ATOM     12  C   UNL     1     -18.197  44.246 -20.270  0.00  0.00    +0.000 C 
ATOM     13  C   UNL     1     -17.210  45.277 -19.779  0.00  0.00    +0.000 C 
ENDBRANCH   2   8
BRANCH   3  16
ATOM     14  O   UNL     1     -20.392  41.933 -17.374  0.00  0.00    +0.000 OA
ATOM     15  N   UNL     1     -19.390  43.360 -15.886  0.00  0.00    +0.000 N 
ATOM     16  C   UNL     1     -20.365  43.049 -16.827  0.00  0.00    +0.000 C 
ATOM     17  H   UNL     1     -19.349  44.268 -15.433  0.00  0.00    +0.000 HD
ATOM     18  H   UNL     1     -18.684  42.681 -15.621  0.00  0.00    +0.000 HD
ENDBRANCH   3  16
TORSDOF 2
ENDMDL
MODEL 4
REMARK VINA RESULT:    -5.485      2.214      2.791
REMARK INTER + INTRA:          -6.142
REMARK INTER:                  -5.855
REMARK INTRA:                  -0.287
REMARK UNBOUND:                -0.016
REMARK  Name = 24691059
REMARK  2 active torsions:
REMARK  status: ('A' for Active; 'I' for Inactive)
REMARK    1  A    between atoms: N_3  and  C_11
REMARK    2  A    between atoms: C_12  and  C_14
REMARK                            x       y       z     vdW  Elec       q    Type
REMARK                         _______ _______ _______ _____ _____    ______ ____
ROOT
ATOM      1  N   UNL     1     -17.550  41.667 -10.494  0.00  0.00    +0.000 NA
ATOM      2  C   UNL     1     -17.942  42.290 -11.628  0.00  0.00    +0.000 A 
ATOM      3  C   UNL     1     -18.947  41.825 -12.460  0.00  0.00    +0.000 A 
ATOM      4  C   UNL     1     -19.593  40.646 -12.105  0.00  0.00    +0.000 A 
ATOM      5  C   UNL     1     -18.201  40.524 -10.182  0.00  0.00    +0.000 A 
ATOM      6  C   UNL     1     -19.218  39.977 -10.946  0.00  0.00    +0.000 A 
ENDROOT
BRANCH   2   8
ATOM      7  O   UNL     1     -15.141  46.781 -12.790  0.00  0.00    +0.000 OA
ATOM      8  N   UNL     1     -17.288  43.475 -11.980  0.00  0.00    +0.000 N 
ATOM      9  C   UNL     1     -15.979  43.356 -12.639  0.00  0.00    +0.000 C 
ATOM     10  C   UNL     1     -17.487  44.683 -11.169  0.00  0.00    +0.000 C 
ATOM     11  C   UNL     1     -15.712  44.567 -13.522  0.00  0.00    +0.000 C 
ATOM     12  C   UNL     1     -17.244  45.937 -12.002  0.00  0.00    +0.000 C 
ATOM     13  C   UNL     1     -15.933  45.841 -12.741  0.00  0.00    +0.000 C 
ENDBRANCH   2   8
BRANCH   3  16
ATOM     14  O   UNL     1     -19.123  42.035 -14.800  0.00  0.00    +0.000 OA
ATOM     15  N   UNL     1     -20.007  43.734 -13.541  0.00  0.00    +0.000 N 
ATOM     16  C   UNL     1     -19.347  42.518 -13.678  0.00  0.00    +0.000 C 
ATOM     17  H   UNL     1     -20.204  44.142 -12.631  0.00  0.00    +0.000 HD
ATOM     18  H   UNL     1     -20.313  44.256 -14.355  0.00  0.00    +0.000 HD
ENDBRANCH   3  16
TORSDOF 2
ENDMDL
MODEL 5
REMARK VINA RESULT:    -5.416      2.154      5.193
REMARK INTER + INTRA:          -6.065
REMARK INTER:                  -6.042
REMARK INTRA:                  -0.023
REMARK UNBOUND:                -0.016
REMARK  Name = 24691059
REMARK  2 active torsions:
REMARK  status: ('A' for Active; 'I' for Inactive)
REMARK    1  A    between atoms: N_3  and  C_11
REMARK    2  A    between atoms: C_12  and  C_14
REMARK                            x       y       z     vdW  Elec       q    Type
REMARK                         _______ _______ _______ _____ _____    ______ ____
ROOT
ATOM      1  N   UNL     1     -18.095  44.906 -12.015  0.00  0.00    +0.000 NA
ATOM      2  C   UNL     1     -17.109  43.991 -11.891  0.00  0.00    +0.000 A 
ATOM      3  C   UNL     1     -15.758  44.297 -11.915  0.00  0.00    +0.000 A 
ATOM      4  C   UNL     1     -15.396  45.630 -12.075  0.00  0.00    +0.000 A 
ATOM      5  C   UNL     1     -17.704  46.192 -12.169  0.00  0.00    +0.000 A 
ATOM      6  C   UNL     1     -16.381  46.601 -12.206  0.00  0.00    +0.000 A 
ENDROOT
BRANCH   2   8
ATOM      7  O   UNL     1     -18.855  38.883 -11.412  0.00  0.00    +0.000 OA
ATOM      8  N   UNL     1     -17.480  42.651 -11.731  0.00  0.00    +0.000 N 
ATOM      9  C   UNL     1     -17.859  41.905 -12.940  0.00  0.00    +0.000 C 
ATOM     10  C   UNL     1     -18.126  42.221 -10.485  0.00  0.00    +0.000 C 
ATOM     11  C   UNL     1     -17.590  40.417 -12.757  0.00  0.00    +0.000 C 
ATOM     12  C   UNL     1     -17.884  40.736 -10.238  0.00  0.00    +0.000 C 
ATOM     13  C   UNL     1     -18.211  39.929 -11.470  0.00  0.00    +0.000 C 
ENDBRANCH   2   8
BRANCH   3  16
ATOM     14  O   UNL     1     -14.803  42.379 -10.935  0.00  0.00    +0.000 OA
ATOM     15  N   UNL     1     -13.628  43.362 -12.642  0.00  0.00    +0.000 N 
ATOM     16  C   UNL     1     -14.717  43.287 -11.779  0.00  0.00    +0.000 C 
ATOM     17  H   UNL     1     -13.544  44.093 -13.342  0.00  0.00    +0.000 HD
ATOM     18  H   UNL     1     -12.878  42.681 -12.595  0.00  0.00    +0.000 HD
ENDBRANCH   3  16
TORSDOF 2
ENDMDL
