MODEL 1
REMARK VINA RESULT:    -6.599      0.000      0.000
REMARK INTER + INTRA:          -8.461
REMARK INTER:                  -7.756
REMARK INTRA:                  -0.705
REMARK UNBOUND:                -0.705
REMARK  Name = 24703666
REMARK  3 active torsions:
REMARK  status: ('A' for Active; 'I' for Inactive)
REMARK    1  A    between atoms: N_3  and  C_6
REMARK    2  A    between atoms: N_3  and  C_11
REMARK    3  A    between atoms: C_12  and  C_14
REMARK                            x       y       z     vdW  Elec       q    Type
REMARK                         _______ _______ _______ _____ _____    ______ ____
ROOT
ATOM      1  N   UNL     1     -18.531  42.231  -8.300  0.00  0.00    +0.000 NA
ATOM      2  C   UNL     1     -18.439  41.578  -9.481  0.00  0.00    +0.000 A 
ATOM      3  C   UNL     1     -19.362  40.646  -9.927  0.00  0.00    +0.000 A 
ATOM      4  C   UNL     1     -20.450  40.366  -9.108  0.00  0.00    +0.000 A 
ATOM      5  C   UNL     1     -19.603  41.934  -7.533  0.00  0.00    +0.000 A 
ATOM      6  C   UNL     1     -20.581  41.019  -7.887  0.00  0.00    +0.000 A 
ENDROOT
BRANCH   3   9
ATOM      7  O   UNL     1     -18.468  38.991 -11.343  0.00  0.00    +0.000 OA
ATOM      8  N   UNL     1     -20.018  40.409 -12.261  0.00  0.00    +0.000 N 
ATOM      9  C   UNL     1     -19.235  39.959 -11.204  0.00  0.00    +0.000 C 
ATOM     10  H   UNL     1     -20.657  41.193 -12.163  0.00  0.00    +0.000 HD
ATOM     11  H   UNL     1     -19.974  39.962 -13.170  0.00  0.00    +0.000 HD
ENDBRANCH   3   9
BRANCH   2  12
ATOM     12  N   UNL     1     -17.353  41.861 -10.289  0.00  0.00    +0.000 N 
ATOM     13  H   UNL     1     -16.665  41.125 -10.405  0.00  0.00    +0.000 HD
BRANCH  12  15
ATOM     14  N   UNL     1     -16.822  43.548 -13.513  0.00  0.00    +0.000 NA
ATOM     15  C   UNL     1     -16.915  43.208 -10.598  0.00  0.00    +0.000 C 
ATOM     16  C   UNL     1     -18.006  43.945 -11.379  0.00  0.00    +0.000 C 
ATOM     17  C   UNL     1     -15.606  43.174 -11.391  0.00  0.00    +0.000 C 
ATOM     18  C   UNL     1     -18.112  43.465 -12.827  0.00  0.00    +0.000 C 
ATOM     19  C   UNL     1     -15.807  42.737 -12.843  0.00  0.00    +0.000 C 
ATOM     20  H   UNL     1     -16.931  43.225 -14.474  0.00  0.00    +0.000 HD
ENDBRANCH  12  15
ENDBRANCH   2  12
TORSDOF 3
ENDMDL
MODEL 2
REMARK VINA RESULT:    -5.732      1.956      5.044
REMARK INTER + INTRA:          -7.442
REMARK INTER:                  -6.766
REMARK INTRA:                  -0.677
REMARK UNBOUND:                -0.705
REMARK  Name = 24703666
REMARK  3 active torsions:
REMARK  status: ('A' for Active; 'I' for Inactive)
REMARK    1  A    between atoms: N_3  and  C_6
REMARK    2  A    between atoms: N_3  and  C_11
REMARK    3  A    between atoms: C_12  and  C_14
REMARK                            x       y       z     vdW  Elec       q    Type
REMARK                         _______ _______ _______ _____ _____    ______ ____
ROOT
ATOM      1  N   UNL     1     -15.706  43.008 -11.201  0.00  0.00    +0.000 NA
ATOM      2  C   UNL     1     -16.926  42.940 -11.782  0.00  0.00    +0.000 A 
ATOM      3  C   UNL     1     -17.289  43.657 -12.910  0.00  0.00    +0.000 A 
ATOM      4  C   UNL     1     -16.340  44.498 -13.480  0.00  0.00    +0.000 A 
ATOM      5  C   UNL     1     -14.810  43.835 -11.785  0.00  0.00    +0.000 A 
ATOM      6  C   UNL     1     -15.074  44.594 -12.913  0.00  0.00    +0.000 A 
ENDROOT
BRANCH   3   9
ATOM      7  O   UNL     1     -19.132  42.462 -13.761  0.00  0.00    +0.000 OA
ATOM      8  N   UNL     1     -19.285  44.750 -13.783  0.00  0.00    +0.000 N 
ATOM      9  C   UNL     1     -18.612  43.563 -13.512  0.00  0.00    +0.000 C 
ATOM     10  H   UNL     1     -18.878  45.658 -13.578  0.00  0.00    +0.000 HD
ATOM     11  H   UNL     1     -20.211  44.742 -14.195  0.00  0.00    +0.000 HD
ENDBRANCH   3   9
BRANCH   2  12
ATOM     12  N   UNL     1     -17.865  42.102 -11.209  0.00  0.00    +0.000 N 
ATOM     13  H   UNL     1     -18.758  42.516 -10.964  0.00  0.00    +0.000 HD
BRANCH  12  15
ATOM     14  N   UNL     1     -19.894  39.116 -10.510  0.00  0.00    +0.000 NA
ATOM     15  C   UNL     1     -17.528  40.856 -10.550  0.00  0.00    +0.000 C 
ATOM     16  C   UNL     1     -17.710  39.687 -11.521  0.00  0.00    +0.000 C 
ATOM     17  C   UNL     1     -18.391  40.664  -9.300  0.00  0.00    +0.000 C 
ATOM     18  C   UNL     1     -19.184  39.357 -11.767  0.00  0.00    +0.000 C 
ATOM     19  C   UNL     1     -19.834  40.283  -9.632  0.00  0.00    +0.000 C 
ATOM     20  H   UNL     1     -20.869  38.896 -10.713  0.00  0.00    +0.000 HD
ENDBRANCH  12  15
ENDBRANCH   2  12
TORSDOF 3
ENDMDL
MODEL 3
REMARK VINA RESULT:    -5.667      2.598      5.108
REMARK INTER + INTRA:          -7.366
REMARK INTER:                  -6.717
REMARK INTRA:                  -0.649
REMARK UNBOUND:                -0.705
REMARK  Name = 24703666
REMARK  3 active torsions:
REMARK  status: ('A' for Active; 'I' for Inactive)
REMARK    1  A    between atoms: N_3  and  C_6
REMARK    2  A    between atoms: N_3  and  C_11
REMARK    3  A    between atoms: C_12  and  C_14
REMARK                            x       y       z     vdW  Elec       q    Type
REMARK                         _______ _______ _______ _____ _____    ______ ____
ROOT
ATOM      1  N   UNL     1     -17.469  44.492 -11.921  0.00  0.00    +0.000 NA
ATOM      2  C   UNL     1     -18.220  43.726 -12.745  0.00  0.00    +0.000 A 
ATOM      3  C   UNL     1     -18.681  44.140 -13.984  0.00  0.00    +0.000 A 
ATOM      4  C   UNL     1     -18.351  45.423 -14.406  0.00  0.00    +0.000 A 
ATOM      5  C   UNL     1     -17.168  45.733 -12.366  0.00  0.00    +0.000 A 
ATOM      6  C   UNL     1     -17.580  46.241 -13.587  0.00  0.00    +0.000 A 
ENDROOT
BRANCH   3   9
ATOM      7  O   UNL     1     -20.375  42.554 -14.385  0.00  0.00    +0.000 OA
ATOM      8  N   UNL     1     -19.249  43.349 -16.218  0.00  0.00    +0.000 N 
ATOM      9  C   UNL     1     -19.489  43.292 -14.849  0.00  0.00    +0.000 C 
ATOM     10  H   UNL     1     -18.535  43.953 -16.615  0.00  0.00    +0.000 HD
ATOM     11  H   UNL     1     -19.787  42.784 -16.866  0.00  0.00    +0.000 HD
ENDBRANCH   3   9
BRANCH   2  12
ATOM     12  N   UNL     1     -18.545  42.451 -12.319  0.00  0.00    +0.000 N 
ATOM     13  H   UNL     1     -19.408  42.351 -11.795  0.00  0.00    +0.000 HD
BRANCH  12  15
ATOM     14  N   UNL     1     -18.934  38.968 -11.209  0.00  0.00    +0.000 NA
ATOM     15  C   UNL     1     -17.575  41.384 -12.177  0.00  0.00    +0.000 C 
ATOM     16  C   UNL     1     -17.944  40.219 -13.098  0.00  0.00    +0.000 C 
ATOM     17  C   UNL     1     -17.499  40.923 -10.719  0.00  0.00    +0.000 C 
ATOM     18  C   UNL     1     -19.146  39.425 -12.582  0.00  0.00    +0.000 C 
ATOM     19  C   UNL     1     -18.712  40.091 -10.300  0.00  0.00    +0.000 C 
ATOM     20  H   UNL     1     -19.751  38.441 -10.901  0.00  0.00    +0.000 HD
ENDBRANCH  12  15
ENDBRANCH   2  12
TORSDOF 3
ENDMDL
MODEL 4
REMARK VINA RESULT:    -5.654      2.603      5.609
REMARK INTER + INTRA:          -7.351
REMARK INTER:                  -6.634
REMARK INTRA:                  -0.717
REMARK UNBOUND:                -0.705
REMARK  Name = 24703666
REMARK  3 active torsions:
REMARK  status: ('A' for Active; 'I' for Inactive)
REMARK    1  A    between atoms: N_3  and  C_6
REMARK    2  A    between atoms: N_3  and  C_11
REMARK    3  A    between atoms: C_12  and  C_14
REMARK                            x       y       z     vdW  Elec       q    Type
REMARK                         _______ _______ _______ _____ _____    ______ ____
ROOT
ATOM      1  N   UNL     1     -18.658  44.322 -14.091  0.00  0.00    +0.000 NA
ATOM      2  C   UNL     1     -17.720  43.760 -13.296  0.00  0.00    +0.000 A 
ATOM      3  C   UNL     1     -16.418  44.222 -13.186  0.00  0.00    +0.000 A 
ATOM      4  C   UNL     1     -16.056  45.331 -13.941  0.00  0.00    +0.000 A 
ATOM      5  C   UNL     1     -18.269  45.400 -14.808  0.00  0.00    +0.000 A 
ATOM      6  C   UNL     1     -16.993  45.938 -14.770  0.00  0.00    +0.000 A 
ENDROOT
BRANCH   3   9
ATOM      7  O   UNL     1     -15.721  43.219 -11.172  0.00  0.00    +0.000 OA
ATOM      8  N   UNL     1     -14.148  43.411 -12.830  0.00  0.00    +0.000 N 
ATOM      9  C   UNL     1     -15.429  43.594 -12.320  0.00  0.00    +0.000 C 
ATOM     10  H   UNL     1     -13.895  43.704 -13.769  0.00  0.00    +0.000 HD
ATOM     11  H   UNL     1     -13.422  42.973 -12.273  0.00  0.00    +0.000 HD
ENDBRANCH   3   9
BRANCH   2  12
ATOM     12  N   UNL     1     -18.087  42.656 -12.548  0.00  0.00    +0.000 N 
ATOM     13  H   UNL     1     -17.780  42.636 -11.581  0.00  0.00    +0.000 HD
BRANCH  12  15
ATOM     14  N   UNL     1     -18.129  39.265 -11.129  0.00  0.00    +0.000 NA
ATOM     15  C   UNL     1     -18.466  41.385 -13.132  0.00  0.00    +0.000 C 
ATOM     16  C   UNL     1     -19.642  40.786 -12.358  0.00  0.00    +0.000 C 
ATOM     17  C   UNL     1     -17.274  40.425 -13.139  0.00  0.00    +0.000 C 
ATOM     18  C   UNL     1     -19.222  40.229 -10.996  0.00  0.00    +0.000 C 
ATOM     19  C   UNL     1     -16.954  39.872 -11.750  0.00  0.00    +0.000 C 
ATOM     20  H   UNL     1     -17.879  38.913 -10.205  0.00  0.00    +0.000 HD
ENDBRANCH  12  15
ENDBRANCH   2  12
TORSDOF 3
ENDMDL
MODEL 5
REMARK VINA RESULT:    -5.586      2.781      5.671
REMARK INTER + INTRA:          -7.271
REMARK INTER:                  -6.492
REMARK INTRA:                  -0.779
REMARK UNBOUND:                -0.705
REMARK  Name = 24703666
REMARK  3 active torsions:
REMARK  status: ('A' for Active; 'I' for Inactive)
REMARK    1  A    between atoms: N_3  and  C_6
REMARK    2  A    between atoms: N_3  and  C_11
REMARK    3  A    between atoms: C_12  and  C_14
REMARK                            x       y       z     vdW  Elec       q    Type
REMARK                         _______ _______ _______ _____ _____    ______ ____
ROOT
ATOM      1  N   UNL     1     -20.411  42.620 -14.942  0.00  0.00    +0.000 NA
ATOM      2  C   UNL     1     -19.452  43.061 -14.097  0.00  0.00    +0.000 A 
ATOM      3  C   UNL     1     -18.704  44.209 -14.303  0.00  0.00    +0.000 A 
ATOM      4  C   UNL     1     -18.956  44.952 -15.451  0.00  0.00    +0.000 A 
ATOM      5  C   UNL     1     -20.629  43.369 -16.046  0.00  0.00    +0.000 A 
ATOM      6  C   UNL     1     -19.936  44.531 -16.344  0.00  0.00    +0.000 A 
ENDROOT
BRANCH   3   9
ATOM      7  O   UNL     1     -17.963  45.020 -12.220  0.00  0.00    +0.000 OA
ATOM      8  N   UNL     1     -16.358  44.650 -13.816  0.00  0.00    +0.000 N 
ATOM      9  C   UNL     1     -17.677  44.658 -13.374  0.00  0.00    +0.000 C 
ATOM     10  H   UNL     1     -16.105  44.349 -14.752  0.00  0.00    +0.000 HD
ATOM     11  H   UNL     1     -15.602  44.946 -13.208  0.00  0.00    +0.000 HD
ENDBRANCH   3   9
BRANCH   2  12
ATOM     12  N   UNL     1     -19.207  42.316 -12.958  0.00  0.00    +0.000 N 
ATOM     13  H   UNL     1     -19.143  42.827 -12.083  0.00  0.00    +0.000 HD
BRANCH  12  15
ATOM     14  N   UNL     1     -17.194  40.533 -10.451  0.00  0.00    +0.000 NA
ATOM     15  C   UNL     1     -18.613  40.994 -12.979  0.00  0.00    +0.000 C 
ATOM     16  C   UNL     1     -19.195  40.143 -11.848  0.00  0.00    +0.000 C 
ATOM     17  C   UNL     1     -17.090  41.092 -12.859  0.00  0.00    +0.000 C 
ATOM     18  C   UNL     1     -18.656  40.549 -10.475  0.00  0.00    +0.000 C 
ATOM     19  C   UNL     1     -16.632  41.447 -11.443  0.00  0.00    +0.000 C 
ATOM     20  H   UNL     1     -16.871  40.805  -9.522  0.00  0.00    +0.000 HD
ENDBRANCH  12  15
ENDBRANCH   2  12
TORSDOF 3
ENDMDL
