MODEL 1
REMARK VINA RESULT:    -6.416      0.000      0.000
REMARK INTER + INTRA:          -7.898
REMARK INTER:                  -7.354
REMARK INTRA:                  -0.544
REMARK UNBOUND:                -0.544
REMARK  Name = 24756456
REMARK  3 active torsions:
REMARK  status: ('A' for Active; 'I' for Inactive)
REMARK    1  A    between atoms: N_3  and  C_7
REMARK    2  A    between atoms: N_5  and  C_9
REMARK    3  A    between atoms: C_6  and  C_8
REMARK                            x       y       z     vdW  Elec       q    Type
REMARK                         _______ _______ _______ _____ _____    ______ ____
ROOT
ATOM      1  O   UNL     1     -17.362  41.559 -13.523  0.00  0.00    +0.000 OA
ATOM      2  N   UNL     1     -19.207  42.998 -13.292  0.00  0.00    +0.000 N 
ATOM      3  C   UNL     1     -18.303  42.010 -12.879  0.00  0.00    +0.000 C 
ATOM      4  H   UNL     1     -19.940  43.253 -12.634  0.00  0.00    +0.000 HD
ENDROOT
BRANCH   2   6
ATOM      5  I   UNL     1     -19.345  46.057 -18.755  0.00  0.00    +0.000 I 
ATOM      6  C   UNL     1     -19.237  43.680 -14.508  0.00  0.00    +0.000 A 
ATOM      7  C   UNL     1     -19.905  43.126 -15.601  0.00  0.00    +0.000 A 
ATOM      8  C   UNL     1     -18.601  44.914 -14.633  0.00  0.00    +0.000 A 
ATOM      9  C   UNL     1     -19.935  43.807 -16.818  0.00  0.00    +0.000 A 
ATOM     10  C   UNL     1     -18.631  45.596 -15.850  0.00  0.00    +0.000 A 
ATOM     11  C   UNL     1     -19.299  45.042 -16.942  0.00  0.00    +0.000 A 
ENDBRANCH   2   6
BRANCH   3  13
ATOM     12  N   UNL     1     -19.434  39.706 -10.102  0.00  0.00    +0.000 NA
ATOM     13  C   UNL     1     -18.549  41.449 -11.525  0.00  0.00    +0.000 A 
ATOM     14  C   UNL     1     -19.197  40.241 -11.320  0.00  0.00    +0.000 A 
ATOM     15  C   UNL     1     -18.115  42.152 -10.406  0.00  0.00    +0.000 A 
ATOM     16  C   UNL     1     -18.341  41.634  -9.136  0.00  0.00    +0.000 A 
ATOM     17  C   UNL     1     -18.999  40.419  -9.039  0.00  0.00    +0.000 A 
BRANCH  14  18
ATOM     18  N   UNL     1     -19.641  39.516 -12.456  0.00  0.00    +0.000 N 
ATOM     19  H   UNL     1     -19.855  40.027 -13.303  0.00  0.00    +0.000 HD
ATOM     20  H   UNL     1     -20.163  38.668 -12.275  0.00  0.00    +0.000 HD
ENDBRANCH  14  18
ENDBRANCH   3  13
TORSDOF 3
ENDMDL
MODEL 2
REMARK VINA RESULT:    -5.909      2.121      2.783
REMARK INTER + INTRA:          -7.316
REMARK INTER:                  -6.886
REMARK INTRA:                  -0.430
REMARK UNBOUND:                -0.544
REMARK  Name = 24756456
REMARK  3 active torsions:
REMARK  status: ('A' for Active; 'I' for Inactive)
REMARK    1  A    between atoms: N_3  and  C_7
REMARK    2  A    between atoms: N_5  and  C_9
REMARK    3  A    between atoms: C_6  and  C_8
REMARK                            x       y       z     vdW  Elec       q    Type
REMARK                         _______ _______ _______ _____ _____    ______ ____
ROOT
ATOM      1  O   UNL     1     -18.928  44.032 -13.075  0.00  0.00    +0.000 OA
ATOM      2  N   UNL     1     -19.725  42.690 -14.833  0.00  0.00    +0.000 N 
ATOM      3  C   UNL     1     -19.109  42.939 -13.599  0.00  0.00    +0.000 C 
ATOM      4  H   UNL     1     -19.787  41.718 -15.128  0.00  0.00    +0.000 HD
ENDROOT
BRANCH   2   6
ATOM      5  I   UNL     1     -22.128  46.849 -18.851  0.00  0.00    +0.000 I 
ATOM      6  C   UNL     1     -20.260  43.616 -15.728  0.00  0.00    +0.000 A 
ATOM      7  C   UNL     1     -19.476  44.675 -16.188  0.00  0.00    +0.000 A 
ATOM      8  C   UNL     1     -21.579  43.484 -16.163  0.00  0.00    +0.000 A 
ATOM      9  C   UNL     1     -20.012  45.601 -17.083  0.00  0.00    +0.000 A 
ATOM     10  C   UNL     1     -22.114  44.411 -17.058  0.00  0.00    +0.000 A 
ATOM     11  C   UNL     1     -21.330  45.469 -17.518  0.00  0.00    +0.000 A 
ENDBRANCH   2   6
BRANCH   3  13
ATOM     12  N   UNL     1     -16.782  40.413 -12.018  0.00  0.00    +0.000 NA
ATOM     13  C   UNL     1     -18.611  41.736 -12.882  0.00  0.00    +0.000 A 
ATOM     14  C   UNL     1     -17.263  41.496 -12.665  0.00  0.00    +0.000 A 
ATOM     15  C   UNL     1     -19.523  40.801 -12.403  0.00  0.00    +0.000 A 
ATOM     16  C   UNL     1     -19.065  39.673 -11.731  0.00  0.00    +0.000 A 
ATOM     17  C   UNL     1     -17.697  39.527 -11.567  0.00  0.00    +0.000 A 
BRANCH  14  18
ATOM     18  N   UNL     1     -16.327  42.445 -13.150  0.00  0.00    +0.000 N 
ATOM     19  H   UNL     1     -16.490  43.426 -12.962  0.00  0.00    +0.000 HD
ATOM     20  H   UNL     1     -15.843  42.206 -14.006  0.00  0.00    +0.000 HD
ENDBRANCH  14  18
ENDBRANCH   3  13
TORSDOF 3
ENDMDL
MODEL 3
REMARK VINA RESULT:    -5.776      1.659      2.253
REMARK INTER + INTRA:          -7.164
REMARK INTER:                  -6.621
REMARK INTRA:                  -0.543
REMARK UNBOUND:                -0.544
REMARK  Name = 24756456
REMARK  3 active torsions:
REMARK  status: ('A' for Active; 'I' for Inactive)
REMARK    1  A    between atoms: N_3  and  C_7
REMARK    2  A    between atoms: N_5  and  C_9
REMARK    3  A    between atoms: C_6  and  C_8
REMARK                            x       y       z     vdW  Elec       q    Type
REMARK                         _______ _______ _______ _____ _____    ______ ____
ROOT
ATOM      1  O   UNL     1     -17.104  41.386 -12.788  0.00  0.00    +0.000 OA
ATOM      2  N   UNL     1     -18.100  43.427 -12.179  0.00  0.00    +0.000 N 
ATOM      3  C   UNL     1     -17.804  42.064 -12.044  0.00  0.00    +0.000 C 
ATOM      4  H   UNL     1     -18.708  43.837 -11.473  0.00  0.00    +0.000 HD
ENDROOT
BRANCH   2   6
ATOM      5  I   UNL     1     -16.179  47.365 -16.654  0.00  0.00    +0.000 I 
ATOM      6  C   UNL     1     -17.672  44.304 -13.175  0.00  0.00    +0.000 A 
ATOM      7  C   UNL     1     -16.338  44.709 -13.222  0.00  0.00    +0.000 A 
ATOM      8  C   UNL     1     -18.578  44.776 -14.125  0.00  0.00    +0.000 A 
ATOM      9  C   UNL     1     -15.910  45.587 -14.219  0.00  0.00    +0.000 A 
ATOM     10  C   UNL     1     -18.150  45.653 -15.122  0.00  0.00    +0.000 A 
ATOM     11  C   UNL     1     -16.816  46.058 -15.169  0.00  0.00    +0.000 A 
ENDBRANCH   2   6
BRANCH   3  13
ATOM     12  N   UNL     1     -19.878  39.669  -9.980  0.00  0.00    +0.000 NA
ATOM     13  C   UNL     1     -18.437  41.387 -10.881  0.00  0.00    +0.000 A 
ATOM     14  C   UNL     1     -19.289  40.303 -11.017  0.00  0.00    +0.000 A 
ATOM     15  C   UNL     1     -18.172  41.849  -9.596  0.00  0.00    +0.000 A 
ATOM     16  C   UNL     1     -18.760  41.221  -8.503  0.00  0.00    +0.000 A 
ATOM     17  C   UNL     1     -19.598  40.146  -8.747  0.00  0.00    +0.000 A 
BRANCH  14  18
ATOM     18  N   UNL     1     -19.563  39.825 -12.324  0.00  0.00    +0.000 N 
ATOM     19  H   UNL     1     -19.922  40.475 -13.012  0.00  0.00    +0.000 HD
ATOM     20  H   UNL     1     -19.847  38.856 -12.401  0.00  0.00    +0.000 HD
ENDBRANCH  14  18
ENDBRANCH   3  13
TORSDOF 3
ENDMDL
MODEL 4
REMARK VINA RESULT:    -5.327      3.545      4.392
REMARK INTER + INTRA:          -6.650
REMARK INTER:                  -6.183
REMARK INTRA:                  -0.467
REMARK UNBOUND:                -0.544
REMARK  Name = 24756456
REMARK  3 active torsions:
REMARK  status: ('A' for Active; 'I' for Inactive)
REMARK    1  A    between atoms: N_3  and  C_7
REMARK    2  A    between atoms: N_5  and  C_9
REMARK    3  A    between atoms: C_6  and  C_8
REMARK                            x       y       z     vdW  Elec       q    Type
REMARK                         _______ _______ _______ _____ _____    ______ ____
ROOT
ATOM      1  O   UNL     1     -16.969  43.572 -13.532  0.00  0.00    +0.000 OA
ATOM      2  N   UNL     1     -17.719  44.394 -11.461  0.00  0.00    +0.000 N 
ATOM      3  C   UNL     1     -17.508  43.416 -12.441  0.00  0.00    +0.000 C 
ATOM      4  H   UNL     1     -18.192  44.098 -10.610  0.00  0.00    +0.000 HD
ENDROOT
BRANCH   2   6
ATOM      5  I   UNL     1     -16.154  50.455 -11.663  0.00  0.00    +0.000 I 
ATOM      6  C   UNL     1     -17.371  45.744 -11.506  0.00  0.00    +0.000 A 
ATOM      7  C   UNL     1     -16.037  46.115 -11.685  0.00  0.00    +0.000 A 
ATOM      8  C   UNL     1     -18.354  46.723 -11.371  0.00  0.00    +0.000 A 
ATOM      9  C   UNL     1     -15.689  47.465 -11.730  0.00  0.00    +0.000 A 
ATOM     10  C   UNL     1     -18.006  48.073 -11.416  0.00  0.00    +0.000 A 
ATOM     11  C   UNL     1     -16.673  48.444 -11.596  0.00  0.00    +0.000 A 
ENDBRANCH   2   6
BRANCH   3  13
ATOM     12  N   UNL     1     -19.489  40.198 -12.576  0.00  0.00    +0.000 NA
ATOM     13  C   UNL     1     -18.021  42.061 -12.109  0.00  0.00    +0.000 A 
ATOM     14  C   UNL     1     -19.004  41.428 -12.853  0.00  0.00    +0.000 A 
ATOM     15  C   UNL     1     -17.503  41.386 -11.009  0.00  0.00    +0.000 A 
ATOM     16  C   UNL     1     -17.978  40.118 -10.692  0.00  0.00    +0.000 A 
ATOM     17  C   UNL     1     -18.963  39.574 -11.499  0.00  0.00    +0.000 A 
BRANCH  14  18
ATOM     18  N   UNL     1     -19.536  42.108 -13.979  0.00  0.00    +0.000 N 
ATOM     19  H   UNL     1     -18.894  42.517 -14.645  0.00  0.00    +0.000 HD
ATOM     20  H   UNL     1     -20.432  42.563 -13.850  0.00  0.00    +0.000 HD
ENDBRANCH  14  18
ENDBRANCH   3  13
TORSDOF 3
ENDMDL
MODEL 5
REMARK VINA RESULT:    -5.281      3.011      3.739
REMARK INTER + INTRA:          -6.597
REMARK INTER:                  -6.064
REMARK INTRA:                  -0.533
REMARK UNBOUND:                -0.544
REMARK  Name = 24756456
REMARK  3 active torsions:
REMARK  status: ('A' for Active; 'I' for Inactive)
REMARK    1  A    between atoms: N_3  and  C_7
REMARK    2  A    between atoms: N_5  and  C_9
REMARK    3  A    between atoms: C_6  and  C_8
REMARK                            x       y       z     vdW  Elec       q    Type
REMARK                         _______ _______ _______ _____ _____    ______ ____
ROOT
ATOM      1  O   UNL     1     -16.258  43.301 -13.128  0.00  0.00    +0.000 OA
ATOM      2  N   UNL     1     -18.238  44.245 -12.282  0.00  0.00    +0.000 N 
ATOM      3  C   UNL     1     -17.358  43.201 -12.596  0.00  0.00    +0.000 C 
ATOM      4  H   UNL     1     -19.121  43.987 -11.848  0.00  0.00    +0.000 HD
ENDROOT
BRANCH   2   6
ATOM      5  I   UNL     1     -17.451  50.379 -13.273  0.00  0.00    +0.000 I 
ATOM      6  C   UNL     1     -18.063  45.611 -12.503  0.00  0.00    +0.000 A 
ATOM      7  C   UNL     1     -18.230  46.138 -13.784  0.00  0.00    +0.000 A 
ATOM      8  C   UNL     1     -17.720  46.450 -11.443  0.00  0.00    +0.000 A 
ATOM      9  C   UNL     1     -18.055  47.504 -14.005  0.00  0.00    +0.000 A 
ATOM     10  C   UNL     1     -17.545  47.817 -11.664  0.00  0.00    +0.000 A 
ATOM     11  C   UNL     1     -17.713  48.344 -12.944  0.00  0.00    +0.000 A 
ENDBRANCH   2   6
BRANCH   3  13
ATOM     12  N   UNL     1     -17.466  39.649 -11.304  0.00  0.00    +0.000 NA
ATOM     13  C   UNL     1     -17.844  41.837 -12.260  0.00  0.00    +0.000 A 
ATOM     14  C   UNL     1     -17.052  40.895 -11.622  0.00  0.00    +0.000 A 
ATOM     15  C   UNL     1     -19.145  41.475 -12.591  0.00  0.00    +0.000 A 
ATOM     16  C   UNL     1     -19.607  40.201 -12.281  0.00  0.00    +0.000 A 
ATOM     17  C   UNL     1     -18.736  39.333 -11.643  0.00  0.00    +0.000 A 
BRANCH  14  18
ATOM     18  N   UNL     1     -15.724  41.256 -11.279  0.00  0.00    +0.000 N 
ATOM     19  H   UNL     1     -14.970  40.634 -11.541  0.00  0.00    +0.000 HD
ATOM     20  H   UNL     1     -15.609  41.804 -10.436  0.00  0.00    +0.000 HD
ENDBRANCH  14  18
ENDBRANCH   3  13
TORSDOF 3
ENDMDL
