MODEL 1
REMARK VINA RESULT:    -7.724      0.000      0.000
REMARK INTER + INTRA:          -8.234
REMARK INTER:                  -8.176
REMARK INTRA:                  -0.058
REMARK UNBOUND:                -0.058
REMARK  Name = 252926
REMARK  2 active torsions:
REMARK  status: ('A' for Active; 'I' for Inactive)
REMARK    1  A    between atoms: C_7  and  C_12
REMARK    2  A    between atoms: C_11  and  C_13
REMARK                            x       y       z     vdW  Elec       q    Type
REMARK                         _______ _______ _______ _____ _____    ______ ____
ROOT
ATOM      1  O   UNL     1     -18.877  39.000 -11.350  0.00  0.00    +0.000 OA
ATOM      2  N   UNL     1     -18.003  40.670  -9.936  0.00  0.00    +0.000 N 
ATOM      3  N   UNL     1     -20.248  40.334  -9.273  0.00  0.00    +0.000 NA
ATOM      4  C   UNL     1     -19.078  40.989  -9.098  0.00  0.00    +0.000 A 
ATOM      5  C   UNL     1     -21.152  41.636  -7.446  0.00  0.00    +0.000 A 
ATOM      6  C   UNL     1     -18.870  41.962  -8.134  0.00  0.00    +0.000 A 
ATOM      7  C   UNL     1     -19.932  42.287  -7.297  0.00  0.00    +0.000 A 
ATOM      8  C   UNL     1     -21.258  40.676  -8.441  0.00  0.00    +0.000 A 
ATOM      9  C   UNL     1     -17.968  39.731 -10.971  0.00  0.00    +0.000 C 
ATOM     10  C   UNL     1     -16.617  39.692 -11.641  0.00  0.00    +0.000 C 
ATOM     11  H   UNL     1     -17.145  41.191  -9.764  0.00  0.00    +0.000 HD
ENDROOT
BRANCH   5  14
ATOM     12  O   UNL     1     -23.298  41.237  -6.562  0.00  0.00    +0.000 OA
ATOM     13  N   UNL     1     -22.181  43.078  -5.774  0.00  0.00    +0.000 N 
ATOM     14  C   UNL     1     -22.280  41.952  -6.588  0.00  0.00    +0.000 C 
ATOM     15  H   UNL     1     -21.388  43.707  -5.732  0.00  0.00    +0.000 HD
ATOM     16  H   UNL     1     -22.952  43.319  -5.160  0.00  0.00    +0.000 HD
ENDBRANCH   5  14
TORSDOF 1
ENDMDL
MODEL 2
REMARK VINA RESULT:    -6.837      1.940      5.938
REMARK INTER + INTRA:          -7.295
REMARK INTER:                  -7.241
REMARK INTRA:                  -0.053
REMARK UNBOUND:                -0.058
REMARK  Name = 252926
REMARK  2 active torsions:
REMARK  status: ('A' for Active; 'I' for Inactive)
REMARK    1  A    between atoms: C_7  and  C_12
REMARK    2  A    between atoms: C_11  and  C_13
REMARK                            x       y       z     vdW  Elec       q    Type
REMARK                         _______ _______ _______ _____ _____    ______ ____
ROOT
ATOM      1  O   UNL     1     -19.557  42.345  -6.845  0.00  0.00    +0.000 OA
ATOM      2  N   UNL     1     -20.638  40.915  -8.375  0.00  0.00    +0.000 N 
ATOM      3  N   UNL     1     -18.427  41.197  -9.164  0.00  0.00    +0.000 NA
ATOM      4  C   UNL     1     -19.647  40.639  -9.325  0.00  0.00    +0.000 A 
ATOM      5  C   UNL     1     -17.741  40.079 -11.196  0.00  0.00    +0.000 A 
ATOM      6  C   UNL     1     -19.986  39.804 -10.378  0.00  0.00    +0.000 A 
ATOM      7  C   UNL     1     -19.009  39.524 -11.326  0.00  0.00    +0.000 A 
ATOM      8  C   UNL     1     -17.503  40.903 -10.106  0.00  0.00    +0.000 A 
ATOM      9  C   UNL     1     -20.538  41.720  -7.236  0.00  0.00    +0.000 C 
ATOM     10  C   UNL     1     -21.837  41.765  -6.472  0.00  0.00    +0.000 C 
ATOM     11  H   UNL     1     -21.539  40.472  -8.542  0.00  0.00    +0.000 HD
ENDROOT
BRANCH   5  14
ATOM     12  O   UNL     1     -16.952  39.719 -13.385  0.00  0.00    +0.000 OA
ATOM     13  N   UNL     1     -15.395  39.662 -11.703  0.00  0.00    +0.000 N 
ATOM     14  C   UNL     1     -16.699  39.806 -12.170  0.00  0.00    +0.000 C 
ATOM     15  H   UNL     1     -15.106  39.722 -10.735  0.00  0.00    +0.000 HD
ATOM     16  H   UNL     1     -14.647  39.476 -12.364  0.00  0.00    +0.000 HD
ENDBRANCH   5  14
TORSDOF 1
ENDMDL
MODEL 3
REMARK VINA RESULT:    -6.069      4.329      5.516
REMARK INTER + INTRA:          -6.482
REMARK INTER:                  -6.424
REMARK INTRA:                  -0.058
REMARK UNBOUND:                -0.058
REMARK  Name = 252926
REMARK  2 active torsions:
REMARK  status: ('A' for Active; 'I' for Inactive)
REMARK    1  A    between atoms: C_7  and  C_12
REMARK    2  A    between atoms: C_11  and  C_13
REMARK                            x       y       z     vdW  Elec       q    Type
REMARK                         _______ _______ _______ _____ _____    ______ ____
ROOT
ATOM      1  O   UNL     1     -20.426  42.677 -16.091  0.00  0.00    +0.000 OA
ATOM      2  N   UNL     1     -18.875  43.753 -14.680  0.00  0.00    +0.000 N 
ATOM      3  N   UNL     1     -19.595  41.813 -13.534  0.00  0.00    +0.000 NA
ATOM      4  C   UNL     1     -18.824  42.924 -13.553  0.00  0.00    +0.000 A 
ATOM      5  C   UNL     1     -18.700  41.332 -11.340  0.00  0.00    +0.000 A 
ATOM      6  C   UNL     1     -17.978  43.299 -12.521  0.00  0.00    +0.000 A 
ATOM      7  C   UNL     1     -17.921  42.482 -11.397  0.00  0.00    +0.000 A 
ATOM      8  C   UNL     1     -19.514  41.044 -12.425  0.00  0.00    +0.000 A 
ATOM      9  C   UNL     1     -19.642  43.586 -15.836  0.00  0.00    +0.000 C 
ATOM     10  C   UNL     1     -19.415  44.706 -16.820  0.00  0.00    +0.000 C 
ATOM     11  H   UNL     1     -18.276  44.575 -14.644  0.00  0.00    +0.000 HD
ENDROOT
BRANCH   5  14
ATOM     12  O   UNL     1     -19.469  39.521 -10.046  0.00  0.00    +0.000 OA
ATOM     13  N   UNL     1     -17.677  40.692  -9.223  0.00  0.00    +0.000 N 
ATOM     14  C   UNL     1     -18.662  40.459 -10.180  0.00  0.00    +0.000 C 
ATOM     15  H   UNL     1     -16.983  41.428  -9.260  0.00  0.00    +0.000 HD
ATOM     16  H   UNL     1     -17.625  40.093  -8.405  0.00  0.00    +0.000 HD
ENDBRANCH   5  14
TORSDOF 1
ENDMDL
MODEL 4
REMARK VINA RESULT:    -5.247      4.680      6.137
REMARK INTER + INTRA:          -5.612
REMARK INTER:                  -5.556
REMARK INTRA:                  -0.056
REMARK UNBOUND:                -0.058
REMARK  Name = 252926
REMARK  2 active torsions:
REMARK  status: ('A' for Active; 'I' for Inactive)
REMARK    1  A    between atoms: C_7  and  C_12
REMARK    2  A    between atoms: C_11  and  C_13
REMARK                            x       y       z     vdW  Elec       q    Type
REMARK                         _______ _______ _______ _____ _____    ______ ____
ROOT
ATOM      1  O   UNL     1     -17.476  46.279 -13.470  0.00  0.00    +0.000 OA
ATOM      2  N   UNL     1     -19.025  44.649 -14.176  0.00  0.00    +0.000 N 
ATOM      3  N   UNL     1     -17.881  43.732 -12.320  0.00  0.00    +0.000 NA
ATOM      4  C   UNL     1     -18.821  43.591 -13.282  0.00  0.00    +0.000 A 
ATOM      5  C   UNL     1     -18.451  41.509 -11.557  0.00  0.00    +0.000 A 
ATOM      6  C   UNL     1     -19.603  42.458 -13.442  0.00  0.00    +0.000 A 
ATOM      7  C   UNL     1     -19.408  41.402 -12.560  0.00  0.00    +0.000 A 
ATOM      8  C   UNL     1     -17.720  42.684 -11.480  0.00  0.00    +0.000 A 
ATOM      9  C   UNL     1     -18.366  45.881 -14.215  0.00  0.00    +0.000 C 
ATOM     10  C   UNL     1     -18.875  46.748 -15.339  0.00  0.00    +0.000 C 
ATOM     11  H   UNL     1     -19.742  44.493 -14.881  0.00  0.00    +0.000 HD
ENDROOT
BRANCH   5  14
ATOM     12  O   UNL     1     -18.472  39.242 -10.920  0.00  0.00    +0.000 OA
ATOM     13  N   UNL     1     -17.696  40.743  -9.370  0.00  0.00    +0.000 N 
ATOM     14  C   UNL     1     -18.223  40.423 -10.619  0.00  0.00    +0.000 C 
ATOM     15  H   UNL     1     -17.463  41.676  -9.050  0.00  0.00    +0.000 HD
ATOM     16  H   UNL     1     -17.522  40.003  -8.698  0.00  0.00    +0.000 HD
ENDBRANCH   5  14
TORSDOF 1
ENDMDL
MODEL 5
REMARK VINA RESULT:    -5.242      4.936      6.813
REMARK INTER + INTRA:          -5.607
REMARK INTER:                  -5.560
REMARK INTRA:                  -0.048
REMARK UNBOUND:                -0.058
REMARK  Name = 252926
REMARK  2 active torsions:
REMARK  status: ('A' for Active; 'I' for Inactive)
REMARK    1  A    between atoms: C_7  and  C_12
REMARK    2  A    between atoms: C_11  and  C_13
REMARK                            x       y       z     vdW  Elec       q    Type
REMARK                         _______ _______ _______ _____ _____    ______ ____
ROOT
ATOM      1  O   UNL     1     -18.511  46.858 -13.272  0.00  0.00    +0.000 OA
ATOM      2  N   UNL     1     -17.724  45.698 -11.377  0.00  0.00    +0.000 N 
ATOM      3  N   UNL     1     -18.179  44.064 -13.025  0.00  0.00    +0.000 NA
ATOM      4  C   UNL     1     -17.752  44.357 -11.776  0.00  0.00    +0.000 A 
ATOM      5  C   UNL     1     -17.794  41.731 -12.520  0.00  0.00    +0.000 A 
ATOM      6  C   UNL     1     -17.336  43.407 -10.856  0.00  0.00    +0.000 A 
ATOM      7  C   UNL     1     -17.360  42.072 -11.243  0.00  0.00    +0.000 A 
ATOM      8  C   UNL     1     -18.190  42.756 -13.365  0.00  0.00    +0.000 A 
ATOM      9  C   UNL     1     -18.091  46.825 -12.119  0.00  0.00    +0.000 C 
ATOM     10  C   UNL     1     -17.919  48.094 -11.324  0.00  0.00    +0.000 C 
ATOM     11  H   UNL     1     -17.396  45.865 -10.428  0.00  0.00    +0.000 HD
ENDROOT
BRANCH   5  14
ATOM     12  O   UNL     1     -18.907  39.762 -13.172  0.00  0.00    +0.000 OA
ATOM     13  N   UNL     1     -16.616  39.689 -13.136  0.00  0.00    +0.000 N 
ATOM     14  C   UNL     1     -17.831  40.346 -12.953  0.00  0.00    +0.000 C 
ATOM     15  H   UNL     1     -15.700  40.093 -12.984  0.00  0.00    +0.000 HD
ATOM     16  H   UNL     1     -16.613  38.722 -13.444  0.00  0.00    +0.000 HD
ENDBRANCH   5  14
TORSDOF 1
ENDMDL
