MODEL 1
REMARK VINA RESULT:    -7.051      0.000      0.000
REMARK INTER + INTRA:          -8.737
REMARK INTER:                  -8.700
REMARK INTRA:                  -0.037
REMARK UNBOUND:                -0.037
REMARK  Name = 25587592
REMARK  5 active torsions:
REMARK  status: ('A' for Active; 'I' for Inactive)
REMARK    1  A    between atoms: N_2  and  C_5
REMARK    2  A    between atoms: N_2  and  C_7
REMARK    3  A    between atoms: N_2  and  C_8
REMARK    4  A    between atoms: C_5  and  C_6
REMARK    5  A    between atoms: C_9  and  C_16
REMARK                            x       y       z     vdW  Elec       q    Type
REMARK                         _______ _______ _______ _____ _____    ______ ____
ROOT
ATOM      1  N   UNL     1     -18.064  43.365 -10.970  0.00  0.00    +0.000 NA
ATOM      2  C   UNL     1     -17.799  42.089 -11.328  0.00  0.00    +0.000 A 
ATOM      3  C   UNL     1     -16.750  41.716 -12.153  0.00  0.00    +0.000 A 
ATOM      4  C   UNL     1     -15.918  42.717 -12.641  0.00  0.00    +0.000 A 
ATOM      5  C   UNL     1     -16.158  44.043 -12.295  0.00  0.00    +0.000 A 
ATOM      6  C   UNL     1     -17.234  44.312 -11.464  0.00  0.00    +0.000 A 
ENDROOT
BRANCH   3   9
ATOM      7  O   UNL     1     -17.025  39.820 -13.524  0.00  0.00    +0.000 OA
ATOM      8  N   UNL     1     -15.612  39.603 -11.730  0.00  0.00    +0.000 N 
ATOM      9  C   UNL     1     -16.492  40.331 -12.524  0.00  0.00    +0.000 C 
ATOM     10  H   UNL     1     -15.176  40.000 -10.905  0.00  0.00    +0.000 HD
ATOM     11  H   UNL     1     -15.386  38.639 -11.950  0.00  0.00    +0.000 HD
ENDBRANCH   3   9
BRANCH   2  12
ATOM     12  N   UNL     1     -18.642  41.085 -10.835  0.00  0.00    +0.000 N 
ATOM     13  C   UNL     1     -19.732  40.568 -11.660  0.00  0.00    +0.000 C 
BRANCH  12  14
ATOM     14  C   UNL     1     -18.455  40.530  -9.511  0.00  0.00    +0.000 C 
BRANCH  14  15
ATOM     15  C   UNL     1     -19.540  40.974  -8.589  0.00  0.00    +0.000 A 
ATOM     16  C   UNL     1     -20.811  40.408  -8.685  0.00  0.00    +0.000 A 
ATOM     17  C   UNL     1     -19.283  41.955  -7.631  0.00  0.00    +0.000 A 
ATOM     18  C   UNL     1     -21.826  40.823  -7.823  0.00  0.00    +0.000 A 
ATOM     19  C   UNL     1     -20.298  42.370  -6.769  0.00  0.00    +0.000 A 
ATOM     20  C   UNL     1     -21.570  41.804  -6.865  0.00  0.00    +0.000 A 
ENDBRANCH  14  15
ENDBRANCH  12  14
ENDBRANCH   2  12
TORSDOF 4
ENDMDL
MODEL 2
REMARK VINA RESULT:    -6.748      1.579      5.239
REMARK INTER + INTRA:          -8.363
REMARK INTER:                  -8.231
REMARK INTRA:                  -0.132
REMARK UNBOUND:                -0.037
REMARK  Name = 25587592
REMARK  5 active torsions:
REMARK  status: ('A' for Active; 'I' for Inactive)
REMARK    1  A    between atoms: N_2  and  C_5
REMARK    2  A    between atoms: N_2  and  C_7
REMARK    3  A    between atoms: N_2  and  C_8
REMARK    4  A    between atoms: C_5  and  C_6
REMARK    5  A    between atoms: C_9  and  C_16
REMARK                            x       y       z     vdW  Elec       q    Type
REMARK                         _______ _______ _______ _____ _____    ______ ____
ROOT
ATOM      1  N   UNL     1     -18.103  42.247  -9.052  0.00  0.00    +0.000 NA
ATOM      2  C   UNL     1     -18.285  41.478 -10.148  0.00  0.00    +0.000 A 
ATOM      3  C   UNL     1     -19.308  40.553 -10.287  0.00  0.00    +0.000 A 
ATOM      4  C   UNL     1     -20.203  40.410  -9.232  0.00  0.00    +0.000 A 
ATOM      5  C   UNL     1     -20.049  41.184  -8.087  0.00  0.00    +0.000 A 
ATOM      6  C   UNL     1     -18.993  42.080  -8.047  0.00  0.00    +0.000 A 
ENDROOT
BRANCH   3   9
ATOM      7  O   UNL     1     -19.081  38.557 -11.517  0.00  0.00    +0.000 OA
ATOM      8  N   UNL     1     -20.111  40.313 -12.575  0.00  0.00    +0.000 N 
ATOM      9  C   UNL     1     -19.476  39.735 -11.481  0.00  0.00    +0.000 C 
ATOM     10  H   UNL     1     -20.430  41.276 -12.567  0.00  0.00    +0.000 HD
ATOM     11  H   UNL     1     -20.266  39.785 -13.427  0.00  0.00    +0.000 HD
ENDBRANCH   3   9
BRANCH   2  12
ATOM     12  N   UNL     1     -17.378  41.625 -11.205  0.00  0.00    +0.000 N 
ATOM     13  C   UNL     1     -16.120  40.880 -11.206  0.00  0.00    +0.000 C 
BRANCH  12  14
ATOM     14  C   UNL     1     -17.661  42.503 -12.321  0.00  0.00    +0.000 C 
BRANCH  14  15
ATOM     15  C   UNL     1     -17.034  43.841 -12.118  0.00  0.00    +0.000 A 
ATOM     16  C   UNL     1     -17.802  44.907 -11.649  0.00  0.00    +0.000 A 
ATOM     17  C   UNL     1     -15.681  44.027 -12.400  0.00  0.00    +0.000 A 
ATOM     18  C   UNL     1     -17.216  46.158 -11.460  0.00  0.00    +0.000 A 
ATOM     19  C   UNL     1     -15.094  45.278 -12.211  0.00  0.00    +0.000 A 
ATOM     20  C   UNL     1     -15.862  46.344 -11.742  0.00  0.00    +0.000 A 
ENDBRANCH  14  15
ENDBRANCH  12  14
ENDBRANCH   2  12
TORSDOF 4
ENDMDL
MODEL 3
REMARK VINA RESULT:    -6.073      1.845      2.515
REMARK INTER + INTRA:          -7.529
REMARK INTER:                  -7.789
REMARK INTRA:                   0.259
REMARK UNBOUND:                -0.037
REMARK  Name = 25587592
REMARK  5 active torsions:
REMARK  status: ('A' for Active; 'I' for Inactive)
REMARK    1  A    between atoms: N_2  and  C_5
REMARK    2  A    between atoms: N_2  and  C_7
REMARK    3  A    between atoms: N_2  and  C_8
REMARK    4  A    between atoms: C_5  and  C_6
REMARK    5  A    between atoms: C_9  and  C_16
REMARK                            x       y       z     vdW  Elec       q    Type
REMARK                         _______ _______ _______ _____ _____    ______ ____
ROOT
ATOM      1  N   UNL     1     -15.840  42.773 -11.689  0.00  0.00    +0.000 NA
ATOM      2  C   UNL     1     -16.974  42.197 -12.147  0.00  0.00    +0.000 A 
ATOM      3  C   UNL     1     -18.010  42.893 -12.749  0.00  0.00    +0.000 A 
ATOM      4  C   UNL     1     -17.873  44.270 -12.891  0.00  0.00    +0.000 A 
ATOM      5  C   UNL     1     -16.720  44.900 -12.432  0.00  0.00    +0.000 A 
ATOM      6  C   UNL     1     -15.742  44.113 -11.845  0.00  0.00    +0.000 A 
ENDROOT
BRANCH   3   9
ATOM      7  O   UNL     1     -19.985  41.644 -12.452  0.00  0.00    +0.000 OA
ATOM      8  N   UNL     1     -19.509  42.335 -14.587  0.00  0.00    +0.000 N 
ATOM      9  C   UNL     1     -19.223  42.244 -13.229  0.00  0.00    +0.000 C 
ATOM     10  H   UNL     1     -18.893  42.812 -15.237  0.00  0.00    +0.000 HD
ATOM     11  H   UNL     1     -20.347  41.913 -14.973  0.00  0.00    +0.000 HD
ENDBRANCH   3   9
BRANCH   2  12
ATOM     12  N   UNL     1     -17.106  40.811 -11.999  0.00  0.00    +0.000 N 
ATOM     13  C   UNL     1     -17.338  39.964 -13.168  0.00  0.00    +0.000 C 
BRANCH  12  14
ATOM     14  C   UNL     1     -17.010  40.181 -10.699  0.00  0.00    +0.000 C 
BRANCH  14  15
ATOM     15  C   UNL     1     -18.181  40.536  -9.846  0.00  0.00    +0.000 A 
ATOM     16  C   UNL     1     -19.353  39.783  -9.923  0.00  0.00    +0.000 A 
ATOM     17  C   UNL     1     -18.106  41.621  -8.973  0.00  0.00    +0.000 A 
ATOM     18  C   UNL     1     -20.449  40.115  -9.127  0.00  0.00    +0.000 A 
ATOM     19  C   UNL     1     -19.201  41.953  -8.177  0.00  0.00    +0.000 A 
ATOM     20  C   UNL     1     -20.373  41.200  -8.254  0.00  0.00    +0.000 A 
ENDBRANCH  14  15
ENDBRANCH  12  14
ENDBRANCH   2  12
TORSDOF 4
ENDMDL
MODEL 4
REMARK VINA RESULT:    -5.764      1.900      5.248
REMARK INTER + INTRA:          -7.148
REMARK INTER:                  -7.469
REMARK INTRA:                   0.321
REMARK UNBOUND:                -0.037
REMARK  Name = 25587592
REMARK  5 active torsions:
REMARK  status: ('A' for Active; 'I' for Inactive)
REMARK    1  A    between atoms: N_2  and  C_5
REMARK    2  A    between atoms: N_2  and  C_7
REMARK    3  A    between atoms: N_2  and  C_8
REMARK    4  A    between atoms: C_5  and  C_6
REMARK    5  A    between atoms: C_9  and  C_16
REMARK                            x       y       z     vdW  Elec       q    Type
REMARK                         _______ _______ _______ _____ _____    ______ ____
ROOT
ATOM      1  N   UNL     1     -18.085  42.675 -10.029  0.00  0.00    +0.000 NA
ATOM      2  C   UNL     1     -17.897  42.081 -11.229  0.00  0.00    +0.000 A 
ATOM      3  C   UNL     1     -18.042  40.721 -11.454  0.00  0.00    +0.000 A 
ATOM      4  C   UNL     1     -18.405  39.919 -10.378  0.00  0.00    +0.000 A 
ATOM      5  C   UNL     1     -18.609  40.493  -9.127  0.00  0.00    +0.000 A 
ATOM      6  C   UNL     1     -18.438  41.862  -9.007  0.00  0.00    +0.000 A 
ENDROOT
BRANCH   3   9
ATOM      7  O   UNL     1     -18.778  39.855 -13.517  0.00  0.00    +0.000 OA
ATOM      8  N   UNL     1     -16.516  39.838 -13.137  0.00  0.00    +0.000 N 
ATOM      9  C   UNL     1     -17.827  40.110 -12.759  0.00  0.00    +0.000 C 
ATOM     10  H   UNL     1     -15.728  40.029 -12.527  0.00  0.00    +0.000 HD
ATOM     11  H   UNL     1     -16.309  39.425 -14.040  0.00  0.00    +0.000 HD
ENDBRANCH   3   9
BRANCH   2  12
ATOM     12  N   UNL     1     -17.528  42.895 -12.308  0.00  0.00    +0.000 N 
ATOM     13  C   UNL     1     -18.515  43.265 -13.321  0.00  0.00    +0.000 C 
BRANCH  12  14
ATOM     14  C   UNL     1     -16.177  43.395 -12.445  0.00  0.00    +0.000 C 
BRANCH  14  15
ATOM     15  C   UNL     1     -16.101  44.837 -12.074  0.00  0.00    +0.000 A 
ATOM     16  C   UNL     1     -14.869  45.490 -12.059  0.00  0.00    +0.000 A 
ATOM     17  C   UNL     1     -17.264  45.533 -11.739  0.00  0.00    +0.000 A 
ATOM     18  C   UNL     1     -14.798  46.838 -11.710  0.00  0.00    +0.000 A 
ATOM     19  C   UNL     1     -17.193  46.881 -11.391  0.00  0.00    +0.000 A 
ATOM     20  C   UNL     1     -15.961  47.534 -11.376  0.00  0.00    +0.000 A 
ENDBRANCH  14  15
ENDBRANCH  12  14
ENDBRANCH   2  12
TORSDOF 4
ENDMDL
MODEL 5
REMARK VINA RESULT:    -5.628      2.050      2.992
REMARK INTER + INTRA:          -6.981
REMARK INTER:                  -6.868
REMARK INTRA:                  -0.113
REMARK UNBOUND:                -0.037
REMARK  Name = 25587592
REMARK  5 active torsions:
REMARK  status: ('A' for Active; 'I' for Inactive)
REMARK    1  A    between atoms: N_2  and  C_5
REMARK    2  A    between atoms: N_2  and  C_7
REMARK    3  A    between atoms: N_2  and  C_8
REMARK    4  A    between atoms: C_5  and  C_6
REMARK    5  A    between atoms: C_9  and  C_16
REMARK                            x       y       z     vdW  Elec       q    Type
REMARK                         _______ _______ _______ _____ _____    ______ ____
ROOT
ATOM      1  N   UNL     1     -18.416  44.371 -12.056  0.00  0.00    +0.000 NA
ATOM      2  C   UNL     1     -17.227  43.731 -11.986  0.00  0.00    +0.000 A 
ATOM      3  C   UNL     1     -16.004  44.374 -11.886  0.00  0.00    +0.000 A 
ATOM      4  C   UNL     1     -16.001  45.765 -11.855  0.00  0.00    +0.000 A 
ATOM      5  C   UNL     1     -17.205  46.459 -11.925  0.00  0.00    +0.000 A 
ATOM      6  C   UNL     1     -18.374  45.722 -12.023  0.00  0.00    +0.000 A 
ENDROOT
BRANCH   3   9
ATOM      7  O   UNL     1     -14.262  43.293 -10.727  0.00  0.00    +0.000 OA
ATOM      8  N   UNL     1     -14.088  43.375 -13.013  0.00  0.00    +0.000 N 
ATOM      9  C   UNL     1     -14.739  43.657 -11.815  0.00  0.00    +0.000 C 
ATOM     10  H   UNL     1     -14.457  43.674 -13.909  0.00  0.00    +0.000 HD
ATOM     11  H   UNL     1     -13.210  42.867 -13.022  0.00  0.00    +0.000 HD
ENDBRANCH   3   9
BRANCH   2  12
ATOM     12  N   UNL     1     -17.238  42.331 -12.020  0.00  0.00    +0.000 N 
ATOM     13  C   UNL     1     -17.569  41.627 -13.257  0.00  0.00    +0.000 C 
BRANCH  12  14
ATOM     14  C   UNL     1     -16.916  41.548 -10.845  0.00  0.00    +0.000 C 
BRANCH  14  15
ATOM     15  C   UNL     1     -18.135  41.290 -10.026  0.00  0.00    +0.000 A 
ATOM     16  C   UNL     1     -18.406  42.082  -8.910  0.00  0.00    +0.000 A 
ATOM     17  C   UNL     1     -19.003  40.256 -10.374  0.00  0.00    +0.000 A 
ATOM     18  C   UNL     1     -19.545  41.840  -8.143  0.00  0.00    +0.000 A 
ATOM     19  C   UNL     1     -20.143  40.014  -9.607  0.00  0.00    +0.000 A 
ATOM     20  C   UNL     1     -20.414  40.806  -8.492  0.00  0.00    +0.000 A 
ENDBRANCH  14  15
ENDBRANCH  12  14
ENDBRANCH   2  12
TORSDOF 4
ENDMDL
