MODEL 1
REMARK VINA RESULT:    -5.879      0.000      0.000
REMARK INTER + INTRA:          -7.009
REMARK INTER:                  -6.567
REMARK INTRA:                  -0.442
REMARK UNBOUND:                -0.442
REMARK  Name = 25652799
REMARK  3 active torsions:
REMARK  status: ('A' for Active; 'I' for Inactive)
REMARK    1  A    between atoms: N_2  and  C_11
REMARK    2  A    between atoms: C_5  and  C_10
REMARK    3  A    between atoms: C_12  and  C_14
REMARK                            x       y       z     vdW  Elec       q    Type
REMARK                         _______ _______ _______ _____ _____    ______ ____
ROOT
ATOM      1  N   UNL     1     -17.993  42.631  -9.538  0.00  0.00    +0.000 NA
ATOM      2  C   UNL     1     -17.832  42.258 -10.826  0.00  0.00    +0.000 A 
ATOM      3  C   UNL     1     -18.175  41.010 -11.320  0.00  0.00    +0.000 A 
ATOM      4  C   UNL     1     -18.720  40.086 -10.435  0.00  0.00    +0.000 A 
ATOM      5  C   UNL     1     -18.524  41.708  -8.706  0.00  0.00    +0.000 A 
ATOM      6  C   UNL     1     -18.901  40.435  -9.101  0.00  0.00    +0.000 A 
ENDROOT
BRANCH   2   7
ATOM      7  N   UNL     1     -17.280  43.192 -11.712  0.00  0.00    +0.000 N 
ATOM      8  C   UNL     1     -16.169  45.231 -13.442  0.00  0.00    +0.000 C 
ATOM      9  C   UNL     1     -15.393  43.956 -13.097  0.00  0.00    +0.000 C 
ATOM     10  C   UNL     1     -17.673  44.937 -13.406  0.00  0.00    +0.000 C 
ATOM     11  C   UNL     1     -15.826  43.380 -11.749  0.00  0.00    +0.000 C 
ATOM     12  C   UNL     1     -18.098  44.363 -12.055  0.00  0.00    +0.000 C 
ATOM     13  C   UNL     1     -15.753  45.769 -14.809  0.00  0.00    +0.000 C 
ENDBRANCH   2   7
BRANCH   3  16
ATOM     14  O   UNL     1     -18.858  40.867 -13.571  0.00  0.00    +0.000 OA
ATOM     15  N   UNL     1     -16.788  40.021 -13.062  0.00  0.00    +0.000 N 
ATOM     16  C   UNL     1     -17.987  40.634 -12.715  0.00  0.00    +0.000 C 
ATOM     17  H   UNL     1     -16.062  39.832 -12.379  0.00  0.00    +0.000 HD
ATOM     18  H   UNL     1     -16.601  39.745 -14.021  0.00  0.00    +0.000 HD
ENDBRANCH   3  16
TORSDOF 2
ENDMDL
MODEL 2
REMARK VINA RESULT:    -5.147      1.694      2.243
REMARK INTER + INTRA:          -6.191
REMARK INTER:                  -5.958
REMARK INTRA:                  -0.233
REMARK UNBOUND:                -0.442
REMARK  Name = 25652799
REMARK  3 active torsions:
REMARK  status: ('A' for Active; 'I' for Inactive)
REMARK    1  A    between atoms: N_2  and  C_11
REMARK    2  A    between atoms: C_5  and  C_10
REMARK    3  A    between atoms: C_12  and  C_14
REMARK                            x       y       z     vdW  Elec       q    Type
REMARK                         _______ _______ _______ _____ _____    ______ ____
ROOT
ATOM      1  N   UNL     1     -17.270  41.253 -11.045  0.00  0.00    +0.000 NA
ATOM      2  C   UNL     1     -17.786  42.056 -12.002  0.00  0.00    +0.000 A 
ATOM      3  C   UNL     1     -18.858  41.710 -12.809  0.00  0.00    +0.000 A 
ATOM      4  C   UNL     1     -19.438  40.460 -12.621  0.00  0.00    +0.000 A 
ATOM      5  C   UNL     1     -17.859  40.046 -10.892  0.00  0.00    +0.000 A 
ATOM      6  C   UNL     1     -18.935  39.607 -11.646  0.00  0.00    +0.000 A 
ENDROOT
BRANCH   2   7
ATOM      7  N   UNL     1     -17.196  43.312 -12.188  0.00  0.00    +0.000 N 
ATOM      8  C   UNL     1     -15.914  45.897 -12.433  0.00  0.00    +0.000 C 
ATOM      9  C   UNL     1     -15.761  44.816 -13.508  0.00  0.00    +0.000 C 
ATOM     10  C   UNL     1     -17.269  45.733 -11.735  0.00  0.00    +0.000 C 
ATOM     11  C   UNL     1     -15.932  43.413 -12.925  0.00  0.00    +0.000 C 
ATOM     12  C   UNL     1     -17.431  44.328 -11.154  0.00  0.00    +0.000 C 
ATOM     13  C   UNL     1     -15.782  47.291 -13.041  0.00  0.00    +0.000 C 
ENDBRANCH   2   7
BRANCH   3  16
ATOM     14  O   UNL     1     -19.301  42.315 -15.042  0.00  0.00    +0.000 OA
ATOM     15  N   UNL     1     -20.024  43.761 -13.417  0.00  0.00    +0.000 N 
ATOM     16  C   UNL     1     -19.391  42.595 -13.835  0.00  0.00    +0.000 C 
ATOM     17  H   UNL     1     -20.115  44.002 -12.435  0.00  0.00    +0.000 HD
ATOM     18  H   UNL     1     -20.421  44.410 -14.089  0.00  0.00    +0.000 HD
ENDBRANCH   3  16
TORSDOF 2
ENDMDL
MODEL 3
REMARK VINA RESULT:    -4.791      2.311      5.056
REMARK INTER + INTRA:          -5.793
REMARK INTER:                  -5.423
REMARK INTRA:                  -0.370
REMARK UNBOUND:                -0.442
REMARK  Name = 25652799
REMARK  3 active torsions:
REMARK  status: ('A' for Active; 'I' for Inactive)
REMARK    1  A    between atoms: N_2  and  C_11
REMARK    2  A    between atoms: C_5  and  C_10
REMARK    3  A    between atoms: C_12  and  C_14
REMARK                            x       y       z     vdW  Elec       q    Type
REMARK                         _______ _______ _______ _____ _____    ______ ____
ROOT
ATOM      1  N   UNL     1     -17.946  45.858 -11.610  0.00  0.00    +0.000 NA
ATOM      2  C   UNL     1     -17.085  44.821 -11.706  0.00  0.00    +0.000 A 
ATOM      3  C   UNL     1     -15.713  44.962 -11.828  0.00  0.00    +0.000 A 
ATOM      4  C   UNL     1     -15.190  46.251 -11.850  0.00  0.00    +0.000 A 
ATOM      5  C   UNL     1     -17.403  47.096 -11.636  0.00  0.00    +0.000 A 
ATOM      6  C   UNL     1     -16.044  47.343 -11.753  0.00  0.00    +0.000 A 
ENDROOT
BRANCH   2   7
ATOM      7  N   UNL     1     -17.619  43.526 -11.685  0.00  0.00    +0.000 N 
ATOM      8  C   UNL     1     -18.826  40.898 -11.543  0.00  0.00    +0.000 C 
ATOM      9  C   UNL     1     -18.558  41.591 -12.883  0.00  0.00    +0.000 C 
ATOM     10  C   UNL     1     -17.794  41.367 -10.512  0.00  0.00    +0.000 C 
ATOM     11  C   UNL     1     -18.551  43.113 -12.739  0.00  0.00    +0.000 C 
ATOM     12  C   UNL     1     -17.794  42.889 -10.373  0.00  0.00    +0.000 C 
ATOM     13  C   UNL     1     -18.788  39.380 -11.698  0.00  0.00    +0.000 C 
ENDBRANCH   2   7
BRANCH   3  16
ATOM     14  O   UNL     1     -14.375  43.248 -10.921  0.00  0.00    +0.000 OA
ATOM     15  N   UNL     1     -14.462  43.392 -13.208  0.00  0.00    +0.000 N 
ATOM     16  C   UNL     1     -14.809  43.825 -11.932  0.00  0.00    +0.000 C 
ATOM     17  H   UNL     1     -14.814  43.845 -14.045  0.00  0.00    +0.000 HD
ATOM     18  H   UNL     1     -13.841  42.599 -13.339  0.00  0.00    +0.000 HD
ENDBRANCH   3  16
TORSDOF 2
ENDMDL
MODEL 4
REMARK VINA RESULT:    -4.382     15.046     16.171
REMARK INTER + INTRA:          -5.336
REMARK INTER:                  -4.972
REMARK INTRA:                  -0.364
REMARK UNBOUND:                -0.442
REMARK  Name = 25652799
REMARK  3 active torsions:
REMARK  status: ('A' for Active; 'I' for Inactive)
REMARK    1  A    between atoms: N_2  and  C_11
REMARK    2  A    between atoms: C_5  and  C_10
REMARK    3  A    between atoms: C_12  and  C_14
REMARK                            x       y       z     vdW  Elec       q    Type
REMARK                         _______ _______ _______ _____ _____    ______ ____
ROOT
ATOM      1  N   UNL     1     -32.033  45.063 -18.433  0.00  0.00    +0.000 NA
ATOM      2  C   UNL     1     -31.845  43.829 -17.914  0.00  0.00    +0.000 A 
ATOM      3  C   UNL     1     -31.131  42.823 -18.544  0.00  0.00    +0.000 A 
ATOM      4  C   UNL     1     -30.573  43.101 -19.787  0.00  0.00    +0.000 A 
ATOM      5  C   UNL     1     -31.477  45.297 -19.643  0.00  0.00    +0.000 A 
ATOM      6  C   UNL     1     -30.745  44.359 -20.353  0.00  0.00    +0.000 A 
ENDROOT
BRANCH   2   7
ATOM      7  N   UNL     1     -32.412  43.555 -16.663  0.00  0.00    +0.000 N 
ATOM      8  C   UNL     1     -33.612  43.137 -14.061  0.00  0.00    +0.000 C 
ATOM      9  C   UNL     1     -34.048  42.331 -15.289  0.00  0.00    +0.000 C 
ATOM     10  C   UNL     1     -32.142  43.543 -14.214  0.00  0.00    +0.000 C 
ATOM     11  C   UNL     1     -33.805  43.103 -16.585  0.00  0.00    +0.000 C 
ATOM     12  C   UNL     1     -31.908  44.316 -15.512  0.00  0.00    +0.000 C 
ATOM     13  C   UNL     1     -33.823  42.333 -12.780  0.00  0.00    +0.000 C 
ENDBRANCH   2   7
BRANCH   3  16
ATOM     14  O   UNL     1     -30.170  41.316 -17.010  0.00  0.00    +0.000 OA
ATOM     15  N   UNL     1     -31.691  40.452 -18.493  0.00  0.00    +0.000 N 
ATOM     16  C   UNL     1     -30.948  41.501 -17.961  0.00  0.00    +0.000 C 
ATOM     17  H   UNL     1     -32.338  40.587 -19.263  0.00  0.00    +0.000 HD
ATOM     18  H   UNL     1     -31.607  39.512 -18.120  0.00  0.00    +0.000 HD
ENDBRANCH   3  16
TORSDOF 2
ENDMDL
MODEL 5
REMARK VINA RESULT:    -4.322     17.228     19.352
REMARK INTER + INTRA:          -5.270
REMARK INTER:                  -4.825
REMARK INTRA:                  -0.445
REMARK UNBOUND:                -0.442
REMARK  Name = 25652799
REMARK  3 active torsions:
REMARK  status: ('A' for Active; 'I' for Inactive)
REMARK    1  A    between atoms: N_2  and  C_11
REMARK    2  A    between atoms: C_5  and  C_10
REMARK    3  A    between atoms: C_12  and  C_14
REMARK                            x       y       z     vdW  Elec       q    Type
REMARK                         _______ _______ _______ _____ _____    ______ ____
ROOT
ATOM      1  N   UNL     1     -31.541  42.182   3.326  0.00  0.00    +0.000 NA
ATOM      2  C   UNL     1     -30.344  41.935   2.749  0.00  0.00    +0.000 A 
ATOM      3  C   UNL     1     -29.549  42.908   2.166  0.00  0.00    +0.000 A 
ATOM      4  C   UNL     1     -30.011  44.220   2.178  0.00  0.00    +0.000 A 
ATOM      5  C   UNL     1     -31.959  43.468   3.318  0.00  0.00    +0.000 A 
ATOM      6  C   UNL     1     -31.238  44.513   2.763  0.00  0.00    +0.000 A 
ENDROOT
BRANCH   2   7
ATOM      7  N   UNL     1     -29.886  40.612   2.739  0.00  0.00    +0.000 N 
ATOM      8  C   UNL     1     -29.040  37.844   2.826  0.00  0.00    +0.000 C 
ATOM      9  C   UNL     1     -29.422  38.529   1.510  0.00  0.00    +0.000 C 
ATOM     10  C   UNL     1     -28.483  38.888   3.801  0.00  0.00    +0.000 C 
ATOM     11  C   UNL     1     -30.407  39.676   1.736  0.00  0.00    +0.000 C 
ATOM     12  C   UNL     1     -29.475  40.029   4.023  0.00  0.00    +0.000 C 
ATOM     13  C   UNL     1     -28.025  36.729   2.585  0.00  0.00    +0.000 C 
ENDBRANCH   2   7
BRANCH   3  16
ATOM     14  O   UNL     1     -27.213  42.610   2.212  0.00  0.00    +0.000 OA
ATOM     15  N   UNL     1     -28.255  42.308   0.192  0.00  0.00    +0.000 N 
ATOM     16  C   UNL     1     -28.264  42.611   1.549  0.00  0.00    +0.000 C 
ATOM     17  H   UNL     1     -29.104  42.295  -0.363  0.00  0.00    +0.000 HD
ATOM     18  H   UNL     1     -27.388  42.086  -0.288  0.00  0.00    +0.000 HD
ENDBRANCH   3  16
TORSDOF 2
ENDMDL
