MODEL 1
REMARK VINA RESULT:    -7.430      0.000      0.000
REMARK INTER + INTRA:          -7.912
REMARK INTER:                  -7.865
REMARK INTRA:                  -0.047
REMARK UNBOUND:                -0.047
REMARK  Name = 261592
REMARK  1 active torsions:
REMARK  status: ('A' for Active; 'I' for Inactive)
REMARK    1  A    between atoms: C_12  and  C_14
REMARK                            x       y       z     vdW  Elec       q    Type
REMARK                         _______ _______ _______ _____ _____    ______ ____
ROOT
ATOM      1  N   UNL     1     -18.348  40.469 -10.488  0.00  0.00    +0.000 N 
ATOM      2  N   UNL     1     -18.512  41.820  -8.508  0.00  0.00    +0.000 NA
ATOM      3  C   UNL     1     -17.823  39.571 -12.598  0.00  0.00    +0.000 C 
ATOM      4  C   UNL     1     -16.532  39.846 -11.846  0.00  0.00    +0.000 C 
ATOM      5  C   UNL     1     -18.871  39.539 -11.488  0.00  0.00    +0.000 C 
ATOM      6  C   UNL     1     -16.963  40.838 -10.768  0.00  0.00    +0.000 C 
ATOM      7  C   UNL     1     -19.074  40.940  -9.416  0.00  0.00    +0.000 A 
ATOM      8  C   UNL     1     -20.413  40.518  -9.240  0.00  0.00    +0.000 A 
ATOM      9  C   UNL     1     -21.158  40.985  -8.164  0.00  0.00    +0.000 A 
ATOM     10  C   UNL     1     -20.582  41.870  -7.259  0.00  0.00    +0.000 A 
ATOM     11  C   UNL     1     -19.268  42.253  -7.474  0.00  0.00    +0.000 A 
ENDROOT
BRANCH  10  14
ATOM     12  O   UNL     1     -21.173  41.913  -4.979  0.00  0.00    +0.000 OA
ATOM     13  N   UNL     1     -22.231  43.416  -6.351  0.00  0.00    +0.000 N 
ATOM     14  C   UNL     1     -21.333  42.376  -6.124  0.00  0.00    +0.000 C 
ATOM     15  H   UNL     1     -22.415  43.850  -7.246  0.00  0.00    +0.000 HD
ATOM     16  H   UNL     1     -22.764  43.794  -5.573  0.00  0.00    +0.000 HD
ENDBRANCH  10  14
TORSDOF 1
ENDMDL
MODEL 2
REMARK VINA RESULT:    -7.013      2.847      6.030
REMARK INTER + INTRA:          -7.470
REMARK INTER:                  -7.415
REMARK INTRA:                  -0.055
REMARK UNBOUND:                -0.047
REMARK  Name = 261592
REMARK  1 active torsions:
REMARK  status: ('A' for Active; 'I' for Inactive)
REMARK    1  A    between atoms: C_12  and  C_14
REMARK                            x       y       z     vdW  Elec       q    Type
REMARK                         _______ _______ _______ _____ _____    ______ ____
ROOT
ATOM      1  N   UNL     1     -20.636  41.347  -8.044  0.00  0.00    +0.000 N 
ATOM      2  N   UNL     1     -20.072  40.038  -9.978  0.00  0.00    +0.000 NA
ATOM      3  C   UNL     1     -21.723  42.617  -6.389  0.00  0.00    +0.000 C 
ATOM      4  C   UNL     1     -22.470  41.306  -6.572  0.00  0.00    +0.000 C 
ATOM      5  C   UNL     1     -20.353  42.323  -6.993  0.00  0.00    +0.000 C 
ATOM      6  C   UNL     1     -21.997  40.826  -7.942  0.00  0.00    +0.000 C 
ATOM      7  C   UNL     1     -19.732  40.969  -9.012  0.00  0.00    +0.000 A 
ATOM      8  C   UNL     1     -18.437  41.540  -9.019  0.00  0.00    +0.000 A 
ATOM      9  C   UNL     1     -17.515  41.168  -9.990  0.00  0.00    +0.000 A 
ATOM     10  C   UNL     1     -17.869  40.232 -10.956  0.00  0.00    +0.000 A 
ATOM     11  C   UNL     1     -19.148  39.702 -10.906  0.00  0.00    +0.000 A 
ENDROOT
BRANCH  10  14
ATOM     12  O   UNL     1     -17.294  39.619 -13.156  0.00  0.00    +0.000 OA
ATOM     13  N   UNL     1     -15.591  39.681 -11.622  0.00  0.00    +0.000 N 
ATOM     14  C   UNL     1     -16.928  39.822 -11.984  0.00  0.00    +0.000 C 
ATOM     15  H   UNL     1     -15.213  39.831 -10.695  0.00  0.00    +0.000 HD
ATOM     16  H   UNL     1     -14.911  39.401 -12.323  0.00  0.00    +0.000 HD
ENDBRANCH  10  14
TORSDOF 1
ENDMDL
MODEL 3
REMARK VINA RESULT:    -5.474      4.698      6.106
REMARK INTER + INTRA:          -5.842
REMARK INTER:                  -5.794
REMARK INTRA:                  -0.047
REMARK UNBOUND:                -0.047
REMARK  Name = 261592
REMARK  1 active torsions:
REMARK  status: ('A' for Active; 'I' for Inactive)
REMARK    1  A    between atoms: C_12  and  C_14
REMARK                            x       y       z     vdW  Elec       q    Type
REMARK                         _______ _______ _______ _____ _____    ______ ____
ROOT
ATOM      1  N   UNL     1     -19.599  43.720 -15.242  0.00  0.00    +0.000 N 
ATOM      2  N   UNL     1     -19.682  41.998 -13.569  0.00  0.00    +0.000 NA
ATOM      3  C   UNL     1     -19.615  44.958 -17.241  0.00  0.00    +0.000 C 
ATOM      4  C   UNL     1     -20.899  44.149 -17.154  0.00  0.00    +0.000 C 
ATOM      5  C   UNL     1     -19.123  44.986 -15.797  0.00  0.00    +0.000 C 
ATOM      6  C   UNL     1     -20.558  43.069 -16.130  0.00  0.00    +0.000 C 
ATOM      7  C   UNL     1     -19.189  43.205 -14.031  0.00  0.00    +0.000 A 
ATOM      8  C   UNL     1     -18.251  43.920 -13.250  0.00  0.00    +0.000 A 
ATOM      9  C   UNL     1     -17.828  43.412 -12.027  0.00  0.00    +0.000 A 
ATOM     10  C   UNL     1     -18.331  42.197 -11.573  0.00  0.00    +0.000 A 
ATOM     11  C   UNL     1     -19.247  41.535 -12.375  0.00  0.00    +0.000 A 
ENDROOT
BRANCH  10  14
ATOM     12  O   UNL     1     -18.340  42.086  -9.221  0.00  0.00    +0.000 OA
ATOM     13  N   UNL     1     -17.019  40.570 -10.323  0.00  0.00    +0.000 N 
ATOM     14  C   UNL     1     -17.910  41.639 -10.300  0.00  0.00    +0.000 C 
ATOM     15  H   UNL     1     -16.628  40.146 -11.155  0.00  0.00    +0.000 HD
ATOM     16  H   UNL     1     -16.713  40.156  -9.447  0.00  0.00    +0.000 HD
ENDBRANCH  10  14
TORSDOF 1
ENDMDL
MODEL 4
REMARK VINA RESULT:    -5.325      4.603      5.573
REMARK INTER + INTRA:          -5.684
REMARK INTER:                  -5.624
REMARK INTRA:                  -0.059
REMARK UNBOUND:                -0.047
REMARK  Name = 261592
REMARK  1 active torsions:
REMARK  status: ('A' for Active; 'I' for Inactive)
REMARK    1  A    between atoms: C_12  and  C_14
REMARK                            x       y       z     vdW  Elec       q    Type
REMARK                         _______ _______ _______ _____ _____    ______ ____
ROOT
ATOM      1  N   UNL     1     -18.509  44.379 -14.309  0.00  0.00    +0.000 N 
ATOM      2  N   UNL     1     -17.695  43.516 -12.219  0.00  0.00    +0.000 NA
ATOM      3  C   UNL     1     -19.191  45.738 -16.103  0.00  0.00    +0.000 C 
ATOM      4  C   UNL     1     -17.773  46.118 -15.710  0.00  0.00    +0.000 C 
ATOM      5  C   UNL     1     -19.357  44.347 -15.499  0.00  0.00    +0.000 C 
ATOM      6  C   UNL     1     -17.643  45.554 -14.297  0.00  0.00    +0.000 C 
ATOM      7  C   UNL     1     -18.528  43.419 -13.320  0.00  0.00    +0.000 A 
ATOM      8  C   UNL     1     -19.411  42.319 -13.432  0.00  0.00    +0.000 A 
ATOM      9  C   UNL     1     -19.441  41.344 -12.441  0.00  0.00    +0.000 A 
ATOM     10  C   UNL     1     -18.600  41.454 -11.340  0.00  0.00    +0.000 A 
ATOM     11  C   UNL     1     -17.753  42.549 -11.276  0.00  0.00    +0.000 A 
ENDROOT
BRANCH  10  14
ATOM     12  O   UNL     1     -19.283  39.411 -10.386  0.00  0.00    +0.000 OA
ATOM     13  N   UNL     1     -17.815  40.682  -9.166  0.00  0.00    +0.000 N 
ATOM     14  C   UNL     1     -18.607  40.452 -10.288  0.00  0.00    +0.000 C 
ATOM     15  H   UNL     1     -17.235  41.497  -9.012  0.00  0.00    +0.000 HD
ATOM     16  H   UNL     1     -17.797  39.995  -8.419  0.00  0.00    +0.000 HD
ENDBRANCH  10  14
TORSDOF 1
ENDMDL
MODEL 5
REMARK VINA RESULT:    -5.237      5.565      7.130
REMARK INTER + INTRA:          -5.590
REMARK INTER:                  -5.542
REMARK INTRA:                  -0.048
REMARK UNBOUND:                -0.047
REMARK  Name = 261592
REMARK  1 active torsions:
REMARK  status: ('A' for Active; 'I' for Inactive)
REMARK    1  A    between atoms: C_12  and  C_14
REMARK                            x       y       z     vdW  Elec       q    Type
REMARK                         _______ _______ _______ _____ _____    ______ ____
ROOT
ATOM      1  N   UNL     1     -18.678  41.959 -11.919  0.00  0.00    +0.000 N 
ATOM      2  N   UNL     1     -19.630  42.293 -14.100  0.00  0.00    +0.000 NA
ATOM      3  C   UNL     1     -18.232  41.315  -9.701  0.00  0.00    +0.000 C 
ATOM      4  C   UNL     1     -18.505  40.070 -10.529  0.00  0.00    +0.000 C 
ATOM      5  C   UNL     1     -17.892  42.365 -10.755  0.00  0.00    +0.000 C 
ATOM      6  C   UNL     1     -19.236  40.619 -11.750  0.00  0.00    +0.000 C 
ATOM      7  C   UNL     1     -18.871  42.744 -13.034  0.00  0.00    +0.000 A 
ATOM      8  C   UNL     1     -18.284  44.030 -13.092  0.00  0.00    +0.000 A 
ATOM      9  C   UNL     1     -18.470  44.834 -14.211  0.00  0.00    +0.000 A 
ATOM     10  C   UNL     1     -19.236  44.369 -15.274  0.00  0.00    +0.000 A 
ATOM     11  C   UNL     1     -19.789  43.103 -15.170  0.00  0.00    +0.000 A 
ENDROOT
BRANCH  10  14
ATOM     12  O   UNL     1     -18.532  45.404 -17.269  0.00  0.00    +0.000 OA
ATOM     13  N   UNL     1     -20.725  45.701 -16.669  0.00  0.00    +0.000 N 
ATOM     14  C   UNL     1     -19.449  45.184 -16.457  0.00  0.00    +0.000 C 
ATOM     15  H   UNL     1     -21.523  45.565 -16.062  0.00  0.00    +0.000 HD
ATOM     16  H   UNL     1     -20.903  46.269 -17.492  0.00  0.00    +0.000 HD
ENDBRANCH  10  14
TORSDOF 1
ENDMDL
