MODEL 1
REMARK VINA RESULT:    -6.584      0.000      0.000
REMARK INTER + INTRA:          -6.584
REMARK INTER:                  -6.584
REMARK INTRA:                   0.000
REMARK UNBOUND:                 0.000
REMARK  Name = 270260
REMARK  0 active torsions:
REMARK  status: ('A' for Active; 'I' for Inactive)
REMARK                            x       y       z     vdW  Elec       q    Type
REMARK                         _______ _______ _______ _____ _____    ______ ____
ROOT
ATOM      1  O   UNL     1     -19.249  38.911 -11.323  0.00  0.00    +0.000 OA
ATOM      2  O   UNL     1     -15.823  41.973 -11.710  0.00  0.00    +0.000 OA
ATOM      3  N   UNL     1     -17.268  42.153  -9.938  0.00  0.00    +0.000 N 
ATOM      4  N   UNL     1     -17.532  40.444 -11.522  0.00  0.00    +0.000 N 
ATOM      5  N   UNL     1     -18.735  42.372  -8.097  0.00  0.00    +0.000 NA
ATOM      6  C   UNL     1     -19.083  40.586  -9.674  0.00  0.00    +0.000 A 
ATOM      7  C   UNL     1     -18.385  41.699  -9.218  0.00  0.00    +0.000 A 
ATOM      8  C   UNL     1     -18.649  39.894 -10.903  0.00  0.00    +0.000 A 
ATOM      9  C   UNL     1     -20.189  40.141  -8.952  0.00  0.00    +0.000 A 
ATOM     10  C   UNL     1     -16.807  41.555 -11.096  0.00  0.00    +0.000 A 
ATOM     11  C   UNL     1     -20.564  40.819  -7.799  0.00  0.00    +0.000 A 
ATOM     12  C   UNL     1     -19.813  41.917  -7.418  0.00  0.00    +0.000 A 
ATOM     13  H   UNL     1     -16.784  42.968  -9.575  0.00  0.00    +0.000 HD
ATOM     14  H   UNL     1     -17.211  39.988 -12.371  0.00  0.00    +0.000 HD
ENDROOT
TORSDOF 0
ENDMDL
MODEL 2
REMARK VINA RESULT:    -6.125      1.580      2.715
REMARK INTER + INTRA:          -6.125
REMARK INTER:                  -6.125
REMARK INTRA:                   0.000
REMARK UNBOUND:                 0.000
REMARK  Name = 270260
REMARK  0 active torsions:
REMARK  status: ('A' for Active; 'I' for Inactive)
REMARK                            x       y       z     vdW  Elec       q    Type
REMARK                         _______ _______ _______ _____ _____    ______ ____
ROOT
ATOM      1  O   UNL     1     -16.940  42.770 -10.647  0.00  0.00    +0.000 OA
ATOM      2  O   UNL     1     -18.791  39.592 -13.427  0.00  0.00    +0.000 OA
ATOM      3  N   UNL     1     -19.592  39.786 -11.286  0.00  0.00    +0.000 N 
ATOM      4  N   UNL     1     -17.863  41.178 -12.043  0.00  0.00    +0.000 N 
ATOM      5  N   UNL     1     -20.445  39.954  -9.089  0.00  0.00    +0.000 NA
ATOM      6  C   UNL     1     -18.668  41.426  -9.778  0.00  0.00    +0.000 A 
ATOM      7  C   UNL     1     -19.572  40.398 -10.023  0.00  0.00    +0.000 A 
ATOM      8  C   UNL     1     -17.743  41.865 -10.840  0.00  0.00    +0.000 A 
ATOM      9  C   UNL     1     -18.658  42.029  -8.522  0.00  0.00    +0.000 A 
ATOM     10  C   UNL     1     -18.754  40.145 -12.326  0.00  0.00    +0.000 A 
ATOM     11  C   UNL     1     -19.546  41.588  -7.549  0.00  0.00    +0.000 A 
ATOM     12  C   UNL     1     -20.411  40.559  -7.879  0.00  0.00    +0.000 A 
ATOM     13  H   UNL     1     -20.265  39.039 -11.428  0.00  0.00    +0.000 HD
ATOM     14  H   UNL     1     -17.237  41.459 -12.792  0.00  0.00    +0.000 HD
ENDROOT
TORSDOF 0
ENDMDL
MODEL 3
REMARK VINA RESULT:    -5.996      2.041      4.558
REMARK INTER + INTRA:          -5.996
REMARK INTER:                  -5.996
REMARK INTRA:                   0.000
REMARK UNBOUND:                 0.000
REMARK  Name = 270260
REMARK  0 active torsions:
REMARK  status: ('A' for Active; 'I' for Inactive)
REMARK                            x       y       z     vdW  Elec       q    Type
REMARK                         _______ _______ _______ _____ _____    ______ ____
ROOT
ATOM      1  O   UNL     1     -17.853  42.757  -8.945  0.00  0.00    +0.000 OA
ATOM      2  O   UNL     1     -21.325  39.764  -8.445  0.00  0.00    +0.000 OA
ATOM      3  N   UNL     1     -20.035  39.651 -10.339  0.00  0.00    +0.000 N 
ATOM      4  N   UNL     1     -19.595  41.261  -8.691  0.00  0.00    +0.000 N 
ATOM      5  N   UNL     1     -18.729  39.502 -12.303  0.00  0.00    +0.000 NA
ATOM      6  C   UNL     1     -18.204  41.187 -10.665  0.00  0.00    +0.000 A 
ATOM      7  C   UNL     1     -18.968  40.120 -11.123  0.00  0.00    +0.000 A 
ATOM      8  C   UNL     1     -18.515  41.816  -9.368  0.00  0.00    +0.000 A 
ATOM      9  C   UNL     1     -17.146  41.643 -11.450  0.00  0.00    +0.000 A 
ATOM     10  C   UNL     1     -20.384  40.194  -9.116  0.00  0.00    +0.000 A 
ATOM     11  C   UNL     1     -16.884  41.022 -12.664  0.00  0.00    +0.000 A 
ATOM     12  C   UNL     1     -17.696  39.967 -13.042  0.00  0.00    +0.000 A 
ATOM     13  H   UNL     1     -20.571  38.871 -10.705  0.00  0.00    +0.000 HD
ATOM     14  H   UNL     1     -19.833  41.676  -7.794  0.00  0.00    +0.000 HD
ENDROOT
TORSDOF 0
ENDMDL
MODEL 4
REMARK VINA RESULT:    -5.836      2.047      3.820
REMARK INTER + INTRA:          -5.836
REMARK INTER:                  -5.836
REMARK INTRA:                   0.000
REMARK UNBOUND:                 0.000
REMARK  Name = 270260
REMARK  0 active torsions:
REMARK  status: ('A' for Active; 'I' for Inactive)
REMARK                            x       y       z     vdW  Elec       q    Type
REMARK                         _______ _______ _______ _____ _____    ______ ____
ROOT
ATOM      1  O   UNL     1     -19.457  39.439 -12.883  0.00  0.00    +0.000 OA
ATOM      2  O   UNL     1     -20.014  40.017  -8.343  0.00  0.00    +0.000 OA
ATOM      3  N   UNL     1     -18.597  41.428  -9.469  0.00  0.00    +0.000 N 
ATOM      4  N   UNL     1     -19.737  39.724 -10.608  0.00  0.00    +0.000 N 
ATOM      5  N   UNL     1     -17.131  42.901 -10.593  0.00  0.00    +0.000 NA
ATOM      6  C   UNL     1     -18.259  41.181 -11.844  0.00  0.00    +0.000 A 
ATOM      7  C   UNL     1     -17.980  41.849 -10.657  0.00  0.00    +0.000 A 
ATOM      8  C   UNL     1     -19.196  40.042 -11.848  0.00  0.00    +0.000 A 
ATOM      9  C   UNL     1     -17.642  41.608 -13.019  0.00  0.00    +0.000 A 
ATOM     10  C   UNL     1     -19.484  40.368  -9.399  0.00  0.00    +0.000 A 
ATOM     11  C   UNL     1     -16.768  42.686 -12.974  0.00  0.00    +0.000 A 
ATOM     12  C   UNL     1     -16.548  43.293 -11.749  0.00  0.00    +0.000 A 
ATOM     13  H   UNL     1     -18.369  41.939  -8.622  0.00  0.00    +0.000 HD
ATOM     14  H   UNL     1     -20.386  38.942 -10.581  0.00  0.00    +0.000 HD
ENDROOT
TORSDOF 0
ENDMDL
MODEL 5
REMARK VINA RESULT:    -5.720      2.664      4.636
REMARK INTER + INTRA:          -5.720
REMARK INTER:                  -5.720
REMARK INTRA:                   0.000
REMARK UNBOUND:                 0.000
REMARK  Name = 270260
REMARK  0 active torsions:
REMARK  status: ('A' for Active; 'I' for Inactive)
REMARK                            x       y       z     vdW  Elec       q    Type
REMARK                         _______ _______ _______ _____ _____    ______ ____
ROOT
ATOM      1  O   UNL     1     -17.717  42.208  -9.701  0.00  0.00    +0.000 OA
ATOM      2  O   UNL     1     -19.596  38.378 -11.449  0.00  0.00    +0.000 OA
ATOM      3  N   UNL     1     -19.511  40.261 -12.757  0.00  0.00    +0.000 N 
ATOM      4  N   UNL     1     -18.659  40.288 -10.572  0.00  0.00    +0.000 N 
ATOM      5  N   UNL     1     -19.441  42.179 -14.136  0.00  0.00    +0.000 NA
ATOM      6  C   UNL     1     -18.542  42.299 -11.905  0.00  0.00    +0.000 A 
ATOM      7  C   UNL     1     -19.160  41.608 -12.942  0.00  0.00    +0.000 A 
ATOM      8  C   UNL     1     -18.261  41.618 -10.627  0.00  0.00    +0.000 A 
ATOM      9  C   UNL     1     -18.196  43.635 -12.099  0.00  0.00    +0.000 A 
ATOM     10  C   UNL     1     -19.279  39.561 -11.587  0.00  0.00    +0.000 A 
ATOM     11  C   UNL     1     -18.476  44.240 -13.318  0.00  0.00    +0.000 A 
ATOM     12  C   UNL     1     -19.093  43.477 -14.294  0.00  0.00    +0.000 A 
ATOM     13  H   UNL     1     -19.960  39.788 -13.536  0.00  0.00    +0.000 HD
ATOM     14  H   UNL     1     -18.479  39.794  -9.702  0.00  0.00    +0.000 HD
ENDROOT
TORSDOF 0
ENDMDL
