MODEL 1
REMARK VINA RESULT:    -6.882      0.000      0.000
REMARK INTER + INTRA:          -7.562
REMARK INTER:                  -7.485
REMARK INTRA:                  -0.077
REMARK UNBOUND:                -0.077
REMARK  Name = 2763340
REMARK  2 active torsions:
REMARK  status: ('A' for Active; 'I' for Inactive)
REMARK    1  A    between atoms: N_3  and  N_5
REMARK    2  A    between atoms: C_6  and  C_11
REMARK                            x       y       z     vdW  Elec       q    Type
REMARK                         _______ _______ _______ _____ _____    ______ ____
ROOT
ATOM      1  N   UNL     1     -18.392  41.838  -8.309  0.00  0.00    +0.000 NA
ATOM      2  N   UNL     1     -17.212  40.563  -9.939  0.00  0.00    +0.000 N 
ATOM      3  C   UNL     1     -20.715  41.337  -7.862  0.00  0.00    +0.000 A 
ATOM      4  C   UNL     1     -20.685  40.320  -8.809  0.00  0.00    +0.000 A 
ATOM      5  C   UNL     1     -19.510  40.059  -9.506  0.00  0.00    +0.000 A 
ATOM      6  C   UNL     1     -19.553  42.061  -7.651  0.00  0.00    +0.000 A 
ATOM      7  C   UNL     1     -18.402  40.840  -9.221  0.00  0.00    +0.000 A 
ATOM      8  H   UNL     1     -16.406  41.139  -9.732  0.00  0.00    +0.000 HD
ATOM      9  H   UNL     1     -17.291  40.163 -10.866  0.00  0.00    +0.000 HD
ENDROOT
BRANCH   3  12
ATOM     10  O   UNL     1     -23.010  41.065  -7.342  0.00  0.00    +0.000 OA
ATOM     11  N   UNL     1     -21.824  42.629  -6.141  0.00  0.00    +0.000 N 
ATOM     12  C   UNL     1     -21.927  41.634  -7.119  0.00  0.00    +0.000 C 
ATOM     13  H   UNL     1     -20.974  43.155  -5.970  0.00  0.00    +0.000 HD
BRANCH  11  14
ATOM     14  N   UNL     1     -22.941  42.987  -5.410  0.00  0.00    +0.000 NA
ATOM     15  H   UNL     1     -23.089  43.982  -5.567  0.00  0.00    +0.000 HD
ATOM     16  H   UNL     1     -23.737  42.513  -5.835  0.00  0.00    +0.000 HD
ENDBRANCH  11  14
ENDBRANCH   3  12
TORSDOF 2
ENDMDL
MODEL 2
REMARK VINA RESULT:    -6.685      2.399      4.586
REMARK INTER + INTRA:          -7.348
REMARK INTER:                  -7.270
REMARK INTRA:                  -0.077
REMARK UNBOUND:                -0.077
REMARK  Name = 2763340
REMARK  2 active torsions:
REMARK  status: ('A' for Active; 'I' for Inactive)
REMARK    1  A    between atoms: N_3  and  N_5
REMARK    2  A    between atoms: C_6  and  C_11
REMARK                            x       y       z     vdW  Elec       q    Type
REMARK                         _______ _______ _______ _____ _____    ______ ____
ROOT
ATOM      1  N   UNL     1     -19.611  42.418  -6.892  0.00  0.00    +0.000 NA
ATOM      2  N   UNL     1     -21.544  42.930  -5.595  0.00  0.00    +0.000 N 
ATOM      3  C   UNL     1     -19.786  40.837  -8.713  0.00  0.00    +0.000 A 
ATOM      4  C   UNL     1     -21.138  40.662  -8.440  0.00  0.00    +0.000 A 
ATOM      5  C   UNL     1     -21.728  41.363  -7.394  0.00  0.00    +0.000 A 
ATOM      6  C   UNL     1     -19.073  41.718  -7.916  0.00  0.00    +0.000 A 
ATOM      7  C   UNL     1     -20.928  42.221  -6.657  0.00  0.00    +0.000 A 
ATOM      8  H   UNL     1     -20.955  43.552  -5.057  0.00  0.00    +0.000 HD
ATOM      9  H   UNL     1     -22.346  42.514  -5.140  0.00  0.00    +0.000 HD
ENDROOT
BRANCH   3  12
ATOM     10  O   UNL     1     -17.925  40.211 -10.038  0.00  0.00    +0.000 OA
ATOM     11  N   UNL     1     -19.972  39.319 -10.588  0.00  0.00    +0.000 N 
ATOM     12  C   UNL     1     -19.141  40.117  -9.796  0.00  0.00    +0.000 C 
ATOM     13  H   UNL     1     -20.977  39.262 -10.460  0.00  0.00    +0.000 HD
BRANCH  11  14
ATOM     14  N   UNL     1     -19.437  38.623 -11.657  0.00  0.00    +0.000 NA
ATOM     15  H   UNL     1     -18.429  38.588 -11.510  0.00  0.00    +0.000 HD
ATOM     16  H   UNL     1     -19.767  37.662 -11.579  0.00  0.00    +0.000 HD
ENDBRANCH  11  14
ENDBRANCH   3  12
TORSDOF 2
ENDMDL
MODEL 3
REMARK VINA RESULT:    -6.313      2.069      4.847
REMARK INTER + INTRA:          -6.943
REMARK INTER:                  -6.866
REMARK INTRA:                  -0.077
REMARK UNBOUND:                -0.077
REMARK  Name = 2763340
REMARK  2 active torsions:
REMARK  status: ('A' for Active; 'I' for Inactive)
REMARK    1  A    between atoms: N_3  and  N_5
REMARK    2  A    between atoms: C_6  and  C_11
REMARK                            x       y       z     vdW  Elec       q    Type
REMARK                         _______ _______ _______ _____ _____    ______ ____
ROOT
ATOM      1  N   UNL     1     -19.176  42.320  -7.548  0.00  0.00    +0.000 NA
ATOM      2  N   UNL     1     -21.181  42.527  -6.279  0.00  0.00    +0.000 N 
ATOM      3  C   UNL     1     -19.061  40.694  -9.334  0.00  0.00    +0.000 A 
ATOM      4  C   UNL     1     -20.368  40.299  -9.067  0.00  0.00    +0.000 A 
ATOM      5  C   UNL     1     -21.080  40.914  -8.042  0.00  0.00    +0.000 A 
ATOM      6  C   UNL     1     -18.516  41.700  -8.552  0.00  0.00    +0.000 A 
ATOM      7  C   UNL     1     -20.443  41.910  -7.319  0.00  0.00    +0.000 A 
ATOM      8  H   UNL     1     -20.712  43.251  -5.750  0.00  0.00    +0.000 HD
ATOM      9  H   UNL     1     -21.907  41.991  -5.820  0.00  0.00    +0.000 HD
ENDROOT
BRANCH   3  12
ATOM     10  O   UNL     1     -18.758  39.186 -11.135  0.00  0.00    +0.000 OA
ATOM     11  N   UNL     1     -16.969  40.500 -10.534  0.00  0.00    +0.000 N 
ATOM     12  C   UNL     1     -18.292  40.071 -10.395  0.00  0.00    +0.000 C 
ATOM     13  H   UNL     1     -16.535  41.176  -9.914  0.00  0.00    +0.000 HD
BRANCH  11  14
ATOM     14  N   UNL     1     -16.164  39.934 -11.505  0.00  0.00    +0.000 NA
ATOM     15  H   UNL     1     -16.439  40.348 -12.394  0.00  0.00    +0.000 HD
ATOM     16  H   UNL     1     -15.213  40.256 -11.326  0.00  0.00    +0.000 HD
ENDBRANCH  11  14
ENDBRANCH   3  12
TORSDOF 2
ENDMDL
MODEL 4
REMARK VINA RESULT:    -5.477      1.774      2.568
REMARK INTER + INTRA:          -6.034
REMARK INTER:                  -5.958
REMARK INTRA:                  -0.076
REMARK UNBOUND:                -0.077
REMARK  Name = 2763340
REMARK  2 active torsions:
REMARK  status: ('A' for Active; 'I' for Inactive)
REMARK    1  A    between atoms: N_3  and  N_5
REMARK    2  A    between atoms: C_6  and  C_11
REMARK                            x       y       z     vdW  Elec       q    Type
REMARK                         _______ _______ _______ _____ _____    ______ ____
ROOT
ATOM      1  N   UNL     1     -17.211  41.157 -10.835  0.00  0.00    +0.000 NA
ATOM      2  N   UNL     1     -16.708  39.887 -12.787  0.00  0.00    +0.000 N 
ATOM      3  C   UNL     1     -19.254  40.713  -9.621  0.00  0.00    +0.000 A 
ATOM      4  C   UNL     1     -19.587  39.717 -10.533  0.00  0.00    +0.000 A 
ATOM      5  C   UNL     1     -18.734  39.439 -11.595  0.00  0.00    +0.000 A 
ATOM      6  C   UNL     1     -18.066  41.398  -9.815  0.00  0.00    +0.000 A 
ATOM      7  C   UNL     1     -17.568  40.182 -11.700  0.00  0.00    +0.000 A 
ATOM      8  H   UNL     1     -15.861  40.435 -12.863  0.00  0.00    +0.000 HD
ATOM      9  H   UNL     1     -17.115  39.511 -13.635  0.00  0.00    +0.000 HD
ENDROOT
BRANCH   3  12
ATOM     10  O   UNL     1     -21.266  40.547  -8.382  0.00  0.00    +0.000 OA
ATOM     11  N   UNL     1     -19.623  41.933  -7.564  0.00  0.00    +0.000 N 
ATOM     12  C   UNL     1     -20.125  41.027  -8.503  0.00  0.00    +0.000 C 
ATOM     13  H   UNL     1     -18.722  42.390  -7.657  0.00  0.00    +0.000 HD
BRANCH  11  14
ATOM     14  N   UNL     1     -20.404  42.303  -6.485  0.00  0.00    +0.000 NA
ATOM     15  H   UNL     1     -21.236  42.752  -6.863  0.00  0.00    +0.000 HD
ATOM     16  H   UNL     1     -20.724  41.442  -6.043  0.00  0.00    +0.000 HD
ENDBRANCH  11  14
ENDBRANCH   3  12
TORSDOF 2
ENDMDL
MODEL 5
REMARK VINA RESULT:    -5.355      3.916      5.754
REMARK INTER + INTRA:          -5.901
REMARK INTER:                  -5.846
REMARK INTRA:                  -0.056
REMARK UNBOUND:                -0.077
REMARK  Name = 2763340
REMARK  2 active torsions:
REMARK  status: ('A' for Active; 'I' for Inactive)
REMARK    1  A    between atoms: N_3  and  N_5
REMARK    2  A    between atoms: C_6  and  C_11
REMARK                            x       y       z     vdW  Elec       q    Type
REMARK                         _______ _______ _______ _____ _____    ______ ____
ROOT
ATOM      1  N   UNL     1     -19.462  39.709 -10.101  0.00  0.00    +0.000 NA
ATOM      2  N   UNL     1     -19.265  40.083  -7.756  0.00  0.00    +0.000 N 
ATOM      3  C   UNL     1     -18.525  41.317 -11.644  0.00  0.00    +0.000 A 
ATOM      4  C   UNL     1     -18.087  42.096 -10.578  0.00  0.00    +0.000 A 
ATOM      5  C   UNL     1     -18.335  41.682  -9.274  0.00  0.00    +0.000 A 
ATOM      6  C   UNL     1     -19.202  40.144 -11.355  0.00  0.00    +0.000 A 
ATOM      7  C   UNL     1     -19.020  40.492  -9.091  0.00  0.00    +0.000 A 
ATOM      8  H   UNL     1     -19.770  39.216  -7.627  0.00  0.00    +0.000 HD
ATOM      9  H   UNL     1     -19.343  40.796  -7.041  0.00  0.00    +0.000 HD
ENDROOT
BRANCH   3  12
ATOM     10  O   UNL     1     -17.148  41.743 -13.524  0.00  0.00    +0.000 OA
ATOM     11  N   UNL     1     -19.405  42.125 -13.749  0.00  0.00    +0.000 N 
ATOM     12  C   UNL     1     -18.283  41.723 -13.017  0.00  0.00    +0.000 C 
ATOM     13  H   UNL     1     -20.338  42.178 -13.355  0.00  0.00    +0.000 HD
BRANCH  11  14
ATOM     14  N   UNL     1     -19.253  42.552 -15.055  0.00  0.00    +0.000 NA
ATOM     15  H   UNL     1     -18.600  41.909 -15.501  0.00  0.00    +0.000 HD
ATOM     16  H   UNL     1     -20.149  42.410 -15.519  0.00  0.00    +0.000 HD
ENDBRANCH  11  14
ENDBRANCH   3  12
TORSDOF 2
ENDMDL
