MODEL 1
REMARK VINA RESULT:    -6.225      0.000      0.000
REMARK INTER + INTRA:          -8.431
REMARK INTER:                  -7.681
REMARK INTRA:                  -0.750
REMARK UNBOUND:                -0.750
REMARK  Name = 28103819
REMARK  4 active torsions:
REMARK  status: ('A' for Active; 'I' for Inactive)
REMARK    1  A    between atoms: N_2  and  C_8
REMARK    2  A    between atoms: N_2  and  C_9
REMARK    3  A    between atoms: C_5  and  C_8
REMARK    4  A    between atoms: C_10  and  C_12
REMARK                            x       y       z     vdW  Elec       q    Type
REMARK                         _______ _______ _______ _____ _____    ______ ____
ROOT
ATOM      1  N   UNL     1     -18.566  42.207  -8.238  0.00  0.00    +0.000 NA
ATOM      2  C   UNL     1     -18.442  41.536  -9.405  0.00  0.00    +0.000 A 
ATOM      3  C   UNL     1     -19.365  40.614  -9.871  0.00  0.00    +0.000 A 
ATOM      4  C   UNL     1     -20.487  40.363  -9.089  0.00  0.00    +0.000 A 
ATOM      5  C   UNL     1     -19.670  41.937  -7.505  0.00  0.00    +0.000 A 
ATOM      6  C   UNL     1     -20.650  41.033  -7.882  0.00  0.00    +0.000 A 
ENDROOT
BRANCH   3   9
ATOM      7  O   UNL     1     -18.359  39.001 -11.262  0.00  0.00    +0.000 OA
ATOM      8  N   UNL     1     -20.037  40.261 -12.187  0.00  0.00    +0.000 N 
ATOM      9  C   UNL     1     -19.202  39.904 -11.133  0.00  0.00    +0.000 C 
ATOM     10  H   UNL     1     -20.736  40.992 -12.097  0.00  0.00    +0.000 HD
ATOM     11  H   UNL     1     -19.971  39.795 -13.085  0.00  0.00    +0.000 HD
ENDBRANCH   3   9
BRANCH   2  12
ATOM     12  N   UNL     1     -17.295  41.795 -10.196  0.00  0.00    +0.000 N 
ATOM     13  H   UNL     1     -16.847  40.986 -10.614  0.00  0.00    +0.000 HD
BRANCH  12  14
ATOM     14  C   UNL     1     -17.035  43.070 -10.782  0.00  0.00    +0.000 C 
BRANCH  14  15
ATOM     15  C   UNL     1     -17.765  43.214 -12.076  0.00  0.00    +0.000 C 
ATOM     16  C   UNL     1     -17.354  42.372 -13.248  0.00  0.00    +0.000 C 
ATOM     17  C   UNL     1     -17.065  43.844 -13.245  0.00  0.00    +0.000 C 
ENDBRANCH  14  15
ENDBRANCH  12  14
ENDBRANCH   2  12
TORSDOF 4
ENDMDL
MODEL 2
REMARK VINA RESULT:    -6.086      1.982      4.769
REMARK INTER + INTRA:          -8.259
REMARK INTER:                  -7.719
REMARK INTRA:                  -0.540
REMARK UNBOUND:                -0.750
REMARK  Name = 28103819
REMARK  4 active torsions:
REMARK  status: ('A' for Active; 'I' for Inactive)
REMARK    1  A    between atoms: N_2  and  C_8
REMARK    2  A    between atoms: N_2  and  C_9
REMARK    3  A    between atoms: C_5  and  C_8
REMARK    4  A    between atoms: C_10  and  C_12
REMARK                            x       y       z     vdW  Elec       q    Type
REMARK                         _______ _______ _______ _____ _____    ______ ____
ROOT
ATOM      1  N   UNL     1     -19.152  39.617 -10.544  0.00  0.00    +0.000 NA
ATOM      2  C   UNL     1     -18.225  40.585 -10.362  0.00  0.00    +0.000 A 
ATOM      3  C   UNL     1     -17.453  41.121 -11.380  0.00  0.00    +0.000 A 
ATOM      4  C   UNL     1     -17.643  40.631 -12.668  0.00  0.00    +0.000 A 
ATOM      5  C   UNL     1     -19.307  39.166 -11.809  0.00  0.00    +0.000 A 
ATOM      6  C   UNL     1     -18.586  39.635 -12.895  0.00  0.00    +0.000 A 
ENDROOT
BRANCH   3   9
ATOM      7  O   UNL     1     -16.797  43.325 -10.872  0.00  0.00    +0.000 OA
ATOM      8  N   UNL     1     -15.119  41.805 -11.240  0.00  0.00    +0.000 N 
ATOM      9  C   UNL     1     -16.461  42.162 -11.152  0.00  0.00    +0.000 C 
ATOM     10  H   UNL     1     -14.826  40.858 -11.460  0.00  0.00    +0.000 HD
ATOM     11  H   UNL     1     -14.386  42.489 -11.084  0.00  0.00    +0.000 HD
ENDBRANCH   3   9
BRANCH   2  12
ATOM     12  N   UNL     1     -18.036  41.078  -9.047  0.00  0.00    +0.000 N 
ATOM     13  H   UNL     1     -17.490  41.929  -8.961  0.00  0.00    +0.000 HD
BRANCH  12  14
ATOM     14  C   UNL     1     -18.903  40.738  -7.965  0.00  0.00    +0.000 C 
BRANCH  14  15
ATOM     15  C   UNL     1     -19.860  41.850  -7.687  0.00  0.00    +0.000 C 
ATOM     16  C   UNL     1     -20.565  41.898  -6.363  0.00  0.00    +0.000 C 
ATOM     17  C   UNL     1     -21.328  41.549  -7.606  0.00  0.00    +0.000 C 
ENDBRANCH  14  15
ENDBRANCH  12  14
ENDBRANCH   2  12
TORSDOF 4
ENDMDL
MODEL 3
REMARK VINA RESULT:    -5.799      1.561      4.483
REMARK INTER + INTRA:          -7.904
REMARK INTER:                  -7.373
REMARK INTRA:                  -0.531
REMARK UNBOUND:                -0.750
REMARK  Name = 28103819
REMARK  4 active torsions:
REMARK  status: ('A' for Active; 'I' for Inactive)
REMARK    1  A    between atoms: N_2  and  C_8
REMARK    2  A    between atoms: N_2  and  C_9
REMARK    3  A    between atoms: C_5  and  C_8
REMARK    4  A    between atoms: C_10  and  C_12
REMARK                            x       y       z     vdW  Elec       q    Type
REMARK                         _______ _______ _______ _____ _____    ______ ____
ROOT
ATOM      1  N   UNL     1     -17.706  43.593 -10.900  0.00  0.00    +0.000 NA
ATOM      2  C   UNL     1     -17.586  42.256 -10.733  0.00  0.00    +0.000 A 
ATOM      3  C   UNL     1     -17.332  41.366 -11.763  0.00  0.00    +0.000 A 
ATOM      4  C   UNL     1     -17.194  41.879 -13.048  0.00  0.00    +0.000 A 
ATOM      5  C   UNL     1     -17.567  44.054 -12.163  0.00  0.00    +0.000 A 
ATOM      6  C   UNL     1     -17.312  43.248 -13.261  0.00  0.00    +0.000 A 
ENDROOT
BRANCH   3   9
ATOM      7  O   UNL     1     -18.171  39.251 -11.156  0.00  0.00    +0.000 OA
ATOM      8  N   UNL     1     -15.980  39.340 -11.826  0.00  0.00    +0.000 N 
ATOM      9  C   UNL     1     -17.209  39.930 -11.551  0.00  0.00    +0.000 C 
ATOM     10  H   UNL     1     -15.185  39.878 -12.156  0.00  0.00    +0.000 HD
ATOM     11  H   UNL     1     -15.841  38.343 -11.702  0.00  0.00    +0.000 HD
ENDBRANCH   3   9
BRANCH   2  12
ATOM     12  N   UNL     1     -17.729  41.741  -9.421  0.00  0.00    +0.000 N 
ATOM     13  H   UNL     1     -16.962  41.173  -9.076  0.00  0.00    +0.000 HD
BRANCH  12  14
ATOM     14  C   UNL     1     -18.605  42.323  -8.456  0.00  0.00    +0.000 C 
BRANCH  14  15
ATOM     15  C   UNL     1     -19.413  41.269  -7.774  0.00  0.00    +0.000 C 
ATOM     16  C   UNL     1     -20.894  41.211  -8.009  0.00  0.00    +0.000 C 
ATOM     17  C   UNL     1     -20.363  41.666  -6.682  0.00  0.00    +0.000 C 
ENDBRANCH  14  15
ENDBRANCH  12  14
ENDBRANCH   2  12
TORSDOF 4
ENDMDL
MODEL 4
REMARK VINA RESULT:    -5.048      1.924      4.847
REMARK INTER + INTRA:          -6.978
REMARK INTER:                  -6.482
REMARK INTRA:                  -0.496
REMARK UNBOUND:                -0.750
REMARK  Name = 28103819
REMARK  4 active torsions:
REMARK  status: ('A' for Active; 'I' for Inactive)
REMARK    1  A    between atoms: N_2  and  C_8
REMARK    2  A    between atoms: N_2  and  C_9
REMARK    3  A    between atoms: C_5  and  C_8
REMARK    4  A    between atoms: C_10  and  C_12
REMARK                            x       y       z     vdW  Elec       q    Type
REMARK                         _______ _______ _______ _____ _____    ______ ____
ROOT
ATOM      1  N   UNL     1     -15.897  42.123 -11.294  0.00  0.00    +0.000 NA
ATOM      2  C   UNL     1     -17.093  41.989 -11.909  0.00  0.00    +0.000 A 
ATOM      3  C   UNL     1     -17.556  42.841 -12.898  0.00  0.00    +0.000 A 
ATOM      4  C   UNL     1     -16.740  43.900 -13.279  0.00  0.00    +0.000 A 
ATOM      5  C   UNL     1     -15.132  43.165 -11.690  0.00  0.00    +0.000 A 
ATOM      6  C   UNL     1     -15.503  44.073 -12.668  0.00  0.00    +0.000 A 
ENDROOT
BRANCH   3   9
ATOM      7  O   UNL     1     -19.242  41.555 -13.924  0.00  0.00    +0.000 OA
ATOM      8  N   UNL     1     -19.648  43.801 -13.698  0.00  0.00    +0.000 N 
ATOM      9  C   UNL     1     -18.852  42.671 -13.541  0.00  0.00    +0.000 C 
ATOM     10  H   UNL     1     -19.349  44.719 -13.385  0.00  0.00    +0.000 HD
ATOM     11  H   UNL     1     -20.562  43.739 -14.133  0.00  0.00    +0.000 HD
ENDBRANCH   3   9
BRANCH   2  12
ATOM     12  N   UNL     1     -17.920  40.908 -11.514  0.00  0.00    +0.000 N 
ATOM     13  H   UNL     1     -18.198  40.264 -12.248  0.00  0.00    +0.000 HD
BRANCH  12  14
ATOM     14  C   UNL     1     -17.985  40.440 -10.167  0.00  0.00    +0.000 C 
BRANCH  14  15
ATOM     15  C   UNL     1     -19.174  41.011  -9.468  0.00  0.00    +0.000 C 
ATOM     16  C   UNL     1     -19.317  40.820  -7.987  0.00  0.00    +0.000 C 
ATOM     17  C   UNL     1     -20.222  40.083  -8.928  0.00  0.00    +0.000 C 
ENDBRANCH  14  15
ENDBRANCH  12  14
ENDBRANCH   2  12
TORSDOF 4
ENDMDL
MODEL 5
REMARK VINA RESULT:    -4.985      3.217      4.526
REMARK INTER + INTRA:          -6.900
REMARK INTER:                  -6.426
REMARK INTRA:                  -0.474
REMARK UNBOUND:                -0.750
REMARK  Name = 28103819
REMARK  4 active torsions:
REMARK  status: ('A' for Active; 'I' for Inactive)
REMARK    1  A    between atoms: N_2  and  C_8
REMARK    2  A    between atoms: N_2  and  C_9
REMARK    3  A    between atoms: C_5  and  C_8
REMARK    4  A    between atoms: C_10  and  C_12
REMARK                            x       y       z     vdW  Elec       q    Type
REMARK                         _______ _______ _______ _____ _____    ______ ____
ROOT
ATOM      1  N   UNL     1     -18.447  44.038 -12.806  0.00  0.00    +0.000 NA
ATOM      2  C   UNL     1     -18.473  42.743 -13.194  0.00  0.00    +0.000 A 
ATOM      3  C   UNL     1     -17.823  41.720 -12.525  0.00  0.00    +0.000 A 
ATOM      4  C   UNL     1     -17.099  42.045 -11.384  0.00  0.00    +0.000 A 
ATOM      5  C   UNL     1     -17.731  44.316 -11.692  0.00  0.00    +0.000 A 
ATOM      6  C   UNL     1     -17.047  43.366 -10.952  0.00  0.00    +0.000 A 
ENDROOT
BRANCH   3   9
ATOM      7  O   UNL     1     -18.949  39.758 -13.183  0.00  0.00    +0.000 OA
ATOM      8  N   UNL     1     -16.657  39.679 -13.168  0.00  0.00    +0.000 N 
ATOM      9  C   UNL     1     -17.869  40.333 -12.970  0.00  0.00    +0.000 C 
ATOM     10  H   UNL     1     -15.765  40.136 -13.006  0.00  0.00    +0.000 HD
ATOM     11  H   UNL     1     -16.631  38.715 -13.483  0.00  0.00    +0.000 HD
ENDBRANCH   3   9
BRANCH   2  12
ATOM     12  N   UNL     1     -19.212  42.420 -14.360  0.00  0.00    +0.000 N 
ATOM     13  H   UNL     1     -19.757  41.565 -14.322  0.00  0.00    +0.000 HD
BRANCH  12  14
ATOM     14  C   UNL     1     -19.582  43.396 -15.333  0.00  0.00    +0.000 C 
BRANCH  14  15
ATOM     15  C   UNL     1     -20.003  42.739 -16.606  0.00  0.00    +0.000 C 
ATOM     16  C   UNL     1     -20.067  43.551 -17.865  0.00  0.00    +0.000 C 
ATOM     17  C   UNL     1     -21.333  43.090 -17.206  0.00  0.00    +0.000 C 
ENDBRANCH  14  15
ENDBRANCH  12  14
ENDBRANCH   2  12
TORSDOF 4
ENDMDL
