MODEL 1
REMARK VINA RESULT:    -6.047      0.000      0.000
REMARK INTER + INTRA:          -9.338
REMARK INTER:                  -8.875
REMARK INTRA:                  -0.464
REMARK UNBOUND:                -0.464
REMARK  Name = 28103503
REMARK  10 active torsions:
REMARK  status: ('A' for Active; 'I' for Inactive)
REMARK    1  A    between atoms: N_2  and  C_6
REMARK    2  A    between atoms: N_2  and  C_8
REMARK    3  A    between atoms: N_2  and  C_9
REMARK    4  A    between atoms: N_3  and  C_10
REMARK    5  A    between atoms: N_3  and  C_13
REMARK    6  A    between atoms: C_6  and  C_7
REMARK    7  A    between atoms: C_7  and  C_10
REMARK    8  A    between atoms: C_8  and  C_11
REMARK    9  A    between atoms: C_9  and  C_12
REMARK   10  A    between atoms: C_14  and  C_16
REMARK                            x       y       z     vdW  Elec       q    Type
REMARK                         _______ _______ _______ _____ _____    ______ ____
ROOT
ATOM      1  N   UNL     1     -19.599  41.408 -12.480  0.00  0.00    +0.000 NA
ATOM      2  C   UNL     1     -18.452  41.042 -11.862  0.00  0.00    +0.000 A 
ATOM      3  C   UNL     1     -17.220  41.628 -12.106  0.00  0.00    +0.000 A 
ATOM      4  C   UNL     1     -17.161  42.654 -13.042  0.00  0.00    +0.000 A 
ATOM      5  C   UNL     1     -19.502  42.409 -13.383  0.00  0.00    +0.000 A 
ATOM      6  C   UNL     1     -18.318  43.059 -13.697  0.00  0.00    +0.000 A 
ENDROOT
BRANCH   3   9
ATOM      7  O   UNL     1     -15.831  40.030 -11.074  0.00  0.00    +0.000 OA
ATOM      8  N   UNL     1     -15.023  42.172 -11.204  0.00  0.00    +0.000 N 
ATOM      9  C   UNL     1     -16.002  41.209 -11.427  0.00  0.00    +0.000 C 
ATOM     10  H   UNL     1     -15.143  43.138 -11.492  0.00  0.00    +0.000 HD
ATOM     11  H   UNL     1     -14.153  41.934 -10.742  0.00  0.00    +0.000 HD
ENDBRANCH   3   9
BRANCH   2  12
ATOM     12  N   UNL     1     -18.520  40.017 -10.933  0.00  0.00    +0.000 N 
ATOM     13  H   UNL     1     -17.793  39.310 -10.959  0.00  0.00    +0.000 HD
BRANCH  12  14
ATOM     14  C   UNL     1     -19.392  40.033  -9.783  0.00  0.00    +0.000 C 
BRANCH  14  15
ATOM     15  C   UNL     1     -19.028  41.181  -8.843  0.00  0.00    +0.000 C 
BRANCH  15  16
ATOM     16  C   UNL     1     -19.845  41.230  -7.548  0.00  0.00    +0.000 C 
BRANCH  16  17
ATOM     17  N   UNL     1     -21.218  41.656  -7.787  0.00  0.00    +0.000 NA
BRANCH  17  18
ATOM     18  C   UNL     1     -21.680  42.534  -6.709  0.00  0.00    +0.000 C 
ATOM     19  C   UNL     1     -20.982  42.211  -5.400  0.00  0.00    +0.000 C 
ENDBRANCH  17  18
BRANCH  17  20
ATOM     20  C   UNL     1     -22.104  40.498  -7.911  0.00  0.00    +0.000 C 
ATOM     21  C   UNL     1     -23.494  40.810  -7.382  0.00  0.00    +0.000 C 
ENDBRANCH  17  20
ENDBRANCH  16  17
ENDBRANCH  15  16
ENDBRANCH  14  15
ENDBRANCH  12  14
ENDBRANCH   2  12
TORSDOF 8
ENDMDL
MODEL 2
REMARK VINA RESULT:    -5.611      3.862      7.521
REMARK INTER + INTRA:          -8.698
REMARK INTER:                  -7.964
REMARK INTRA:                  -0.734
REMARK UNBOUND:                -0.464
REMARK  Name = 28103503
REMARK  10 active torsions:
REMARK  status: ('A' for Active; 'I' for Inactive)
REMARK    1  A    between atoms: N_2  and  C_6
REMARK    2  A    between atoms: N_2  and  C_8
REMARK    3  A    between atoms: N_2  and  C_9
REMARK    4  A    between atoms: N_3  and  C_10
REMARK    5  A    between atoms: N_3  and  C_13
REMARK    6  A    between atoms: C_6  and  C_7
REMARK    7  A    between atoms: C_7  and  C_10
REMARK    8  A    between atoms: C_8  and  C_11
REMARK    9  A    between atoms: C_9  and  C_12
REMARK   10  A    between atoms: C_14  and  C_16
REMARK                            x       y       z     vdW  Elec       q    Type
REMARK                         _______ _______ _______ _____ _____    ______ ____
ROOT
ATOM      1  N   UNL     1     -18.346  43.782 -12.798  0.00  0.00    +0.000 NA
ATOM      2  C   UNL     1     -18.788  42.517 -12.980  0.00  0.00    +0.000 A 
ATOM      3  C   UNL     1     -18.658  41.508 -12.039  0.00  0.00    +0.000 A 
ATOM      4  C   UNL     1     -18.035  41.817 -10.835  0.00  0.00    +0.000 A 
ATOM      5  C   UNL     1     -17.746  44.044 -11.616  0.00  0.00    +0.000 A 
ATOM      6  C   UNL     1     -17.568  43.107 -10.611  0.00  0.00    +0.000 A 
ENDROOT
BRANCH   3   9
ATOM      7  O   UNL     1     -18.978  39.582 -13.357  0.00  0.00    +0.000 OA
ATOM      8  N   UNL     1     -19.779  39.509 -11.209  0.00  0.00    +0.000 N 
ATOM      9  C   UNL     1     -19.142  40.153 -12.265  0.00  0.00    +0.000 C 
ATOM     10  H   UNL     1     -19.915  39.958 -10.309  0.00  0.00    +0.000 HD
ATOM     11  H   UNL     1     -20.129  38.563 -11.310  0.00  0.00    +0.000 HD
ENDBRANCH   3   9
BRANCH   2  12
ATOM     12  N   UNL     1     -19.406  42.216 -14.184  0.00  0.00    +0.000 N 
ATOM     13  H   UNL     1     -19.926  41.347 -14.241  0.00  0.00    +0.000 HD
BRANCH  12  14
ATOM     14  C   UNL     1     -19.574  43.165 -15.258  0.00  0.00    +0.000 C 
BRANCH  14  15
ATOM     15  C   UNL     1     -21.004  43.127 -15.795  0.00  0.00    +0.000 C 
BRANCH  15  16
ATOM     16  C   UNL     1     -21.112  42.890 -17.305  0.00  0.00    +0.000 C 
BRANCH  16  17
ATOM     17  N   UNL     1     -21.793  43.988 -17.980  0.00  0.00    +0.000 NA
BRANCH  17  18
ATOM     18  C   UNL     1     -20.823  44.906 -18.580  0.00  0.00    +0.000 C 
ATOM     19  C   UNL     1     -20.630  44.611 -20.058  0.00  0.00    +0.000 C 
ENDBRANCH  17  18
BRANCH  17  20
ATOM     20  C   UNL     1     -22.662  44.708 -17.047  0.00  0.00    +0.000 C 
ATOM     21  C   UNL     1     -23.117  46.034 -17.633  0.00  0.00    +0.000 C 
ENDBRANCH  17  20
ENDBRANCH  16  17
ENDBRANCH  15  16
ENDBRANCH  14  15
ENDBRANCH  12  14
ENDBRANCH   2  12
TORSDOF 8
ENDMDL
MODEL 3
REMARK VINA RESULT:    -5.505      2.792      4.382
REMARK INTER + INTRA:          -8.544
REMARK INTER:                  -7.654
REMARK INTRA:                  -0.890
REMARK UNBOUND:                -0.464
REMARK  Name = 28103503
REMARK  10 active torsions:
REMARK  status: ('A' for Active; 'I' for Inactive)
REMARK    1  A    between atoms: N_2  and  C_6
REMARK    2  A    between atoms: N_2  and  C_8
REMARK    3  A    between atoms: N_2  and  C_9
REMARK    4  A    between atoms: N_3  and  C_10
REMARK    5  A    between atoms: N_3  and  C_13
REMARK    6  A    between atoms: C_6  and  C_7
REMARK    7  A    between atoms: C_7  and  C_10
REMARK    8  A    between atoms: C_8  and  C_11
REMARK    9  A    between atoms: C_9  and  C_12
REMARK   10  A    between atoms: C_14  and  C_16
REMARK                            x       y       z     vdW  Elec       q    Type
REMARK                         _______ _______ _______ _____ _____    ______ ____
ROOT
ATOM      1  N   UNL     1     -20.435  42.702 -15.619  0.00  0.00    +0.000 NA
ATOM      2  C   UNL     1     -19.639  43.237 -14.666  0.00  0.00    +0.000 A 
ATOM      3  C   UNL     1     -18.929  44.417 -14.822  0.00  0.00    +0.000 A 
ATOM      4  C   UNL     1     -19.044  45.091 -16.032  0.00  0.00    +0.000 A 
ATOM      5  C   UNL     1     -20.522  43.386 -16.782  0.00  0.00    +0.000 A 
ATOM      6  C   UNL     1     -19.854  44.573 -17.036  0.00  0.00    +0.000 A 
ENDROOT
BRANCH   3   9
ATOM      7  O   UNL     1     -18.557  45.456 -12.740  0.00  0.00    +0.000 OA
ATOM      8  N   UNL     1     -16.700  44.906 -13.968  0.00  0.00    +0.000 N 
ATOM      9  C   UNL     1     -18.076  44.966 -13.777  0.00  0.00    +0.000 C 
ATOM     10  H   UNL     1     -16.290  44.502 -14.805  0.00  0.00    +0.000 HD
ATOM     11  H   UNL     1     -16.059  45.266 -13.269  0.00  0.00    +0.000 HD
ENDBRANCH   3   9
BRANCH   2  12
ATOM     12  N   UNL     1     -19.527  42.558 -13.463  0.00  0.00    +0.000 N 
ATOM     13  H   UNL     1     -20.170  42.810 -12.720  0.00  0.00    +0.000 HD
BRANCH  12  14
ATOM     14  C   UNL     1     -18.746  41.357 -13.290  0.00  0.00    +0.000 C 
BRANCH  14  15
ATOM     15  C   UNL     1     -19.506  40.333 -12.449  0.00  0.00    +0.000 C 
BRANCH  15  16
ATOM     16  C   UNL     1     -18.625  39.479 -11.532  0.00  0.00    +0.000 C 
BRANCH  16  17
ATOM     17  N   UNL     1     -18.738  39.884 -10.136  0.00  0.00    +0.000 NA
BRANCH  17  18
ATOM     18  C   UNL     1     -19.987  40.615  -9.911  0.00  0.00    +0.000 C 
ATOM     19  C   UNL     1     -20.705  40.107  -8.673  0.00  0.00    +0.000 C 
ENDBRANCH  17  18
BRANCH  17  20
ATOM     20  C   UNL     1     -17.592  40.705  -9.743  0.00  0.00    +0.000 C 
ATOM     21  C   UNL     1     -17.932  42.185  -9.798  0.00  0.00    +0.000 C 
ENDBRANCH  17  20
ENDBRANCH  16  17
ENDBRANCH  15  16
ENDBRANCH  14  15
ENDBRANCH  12  14
ENDBRANCH   2  12
TORSDOF 8
ENDMDL
MODEL 4
REMARK VINA RESULT:    -5.383      3.905      7.256
REMARK INTER + INTRA:          -8.364
REMARK INTER:                  -7.582
REMARK INTRA:                  -0.782
REMARK UNBOUND:                -0.464
REMARK  Name = 28103503
REMARK  10 active torsions:
REMARK  status: ('A' for Active; 'I' for Inactive)
REMARK    1  A    between atoms: N_2  and  C_6
REMARK    2  A    between atoms: N_2  and  C_8
REMARK    3  A    between atoms: N_2  and  C_9
REMARK    4  A    between atoms: N_3  and  C_10
REMARK    5  A    between atoms: N_3  and  C_13
REMARK    6  A    between atoms: C_6  and  C_7
REMARK    7  A    between atoms: C_7  and  C_10
REMARK    8  A    between atoms: C_8  and  C_11
REMARK    9  A    between atoms: C_9  and  C_12
REMARK   10  A    between atoms: C_14  and  C_16
REMARK                            x       y       z     vdW  Elec       q    Type
REMARK                         _______ _______ _______ _____ _____    ______ ____
ROOT
ATOM      1  N   UNL     1     -19.209  40.564 -13.203  0.00  0.00    +0.000 NA
ATOM      2  C   UNL     1     -18.396  41.644 -13.258  0.00  0.00    +0.000 A 
ATOM      3  C   UNL     1     -17.341  41.863 -12.386  0.00  0.00    +0.000 A 
ATOM      4  C   UNL     1     -17.105  40.915 -11.398  0.00  0.00    +0.000 A 
ATOM      5  C   UNL     1     -18.949  39.665 -12.229  0.00  0.00    +0.000 A 
ATOM      6  C   UNL     1     -17.919  39.792 -11.310  0.00  0.00    +0.000 A 
ENDROOT
BRANCH   3   9
ATOM      7  O   UNL     1     -16.961  44.187 -12.477  0.00  0.00    +0.000 OA
ATOM      8  N   UNL     1     -15.110  42.833 -12.517  0.00  0.00    +0.000 N 
ATOM      9  C   UNL     1     -16.485  43.038 -12.468  0.00  0.00    +0.000 C 
ATOM     10  H   UNL     1     -14.703  41.903 -12.503  0.00  0.00    +0.000 HD
ATOM     11  H   UNL     1     -14.467  43.616 -12.567  0.00  0.00    +0.000 HD
ENDBRANCH   3   9
BRANCH   2  12
ATOM     12  N   UNL     1     -18.640  42.586 -14.244  0.00  0.00    +0.000 N 
ATOM     13  H   UNL     1     -17.867  42.843 -14.849  0.00  0.00    +0.000 HD
BRANCH  12  14
ATOM     14  C   UNL     1     -19.961  43.020 -14.630  0.00  0.00    +0.000 C 
BRANCH  14  15
ATOM     15  C   UNL     1     -19.916  43.778 -15.956  0.00  0.00    +0.000 C 
BRANCH  15  16
ATOM     16  C   UNL     1     -20.442  42.989 -17.159  0.00  0.00    +0.000 C 
BRANCH  16  17
ATOM     17  N   UNL     1     -21.466  43.728 -17.888  0.00  0.00    +0.000 NA
BRANCH  17  18
ATOM     18  C   UNL     1     -20.975  44.123 -19.210  0.00  0.00    +0.000 C 
ATOM     19  C   UNL     1     -20.527  45.574 -19.217  0.00  0.00    +0.000 C 
ENDBRANCH  17  18
BRANCH  17  20
ATOM     20  C   UNL     1     -21.890  44.906 -17.131  0.00  0.00    +0.000 C 
ATOM     21  C   UNL     1     -23.397  44.925 -16.941  0.00  0.00    +0.000 C 
ENDBRANCH  17  20
ENDBRANCH  16  17
ENDBRANCH  15  16
ENDBRANCH  14  15
ENDBRANCH  12  14
ENDBRANCH   2  12
TORSDOF 8
ENDMDL
MODEL 5
REMARK VINA RESULT:    -5.316      3.529      5.405
REMARK INTER + INTRA:          -8.266
REMARK INTER:                  -7.487
REMARK INTRA:                  -0.779
REMARK UNBOUND:                -0.464
REMARK  Name = 28103503
REMARK  10 active torsions:
REMARK  status: ('A' for Active; 'I' for Inactive)
REMARK    1  A    between atoms: N_2  and  C_6
REMARK    2  A    between atoms: N_2  and  C_8
REMARK    3  A    between atoms: N_2  and  C_9
REMARK    4  A    between atoms: N_3  and  C_10
REMARK    5  A    between atoms: N_3  and  C_13
REMARK    6  A    between atoms: C_6  and  C_7
REMARK    7  A    between atoms: C_7  and  C_10
REMARK    8  A    between atoms: C_8  and  C_11
REMARK    9  A    between atoms: C_9  and  C_12
REMARK   10  A    between atoms: C_14  and  C_16
REMARK                            x       y       z     vdW  Elec       q    Type
REMARK                         _______ _______ _______ _____ _____    ______ ____
ROOT
ATOM      1  N   UNL     1     -20.541  42.719 -15.806  0.00  0.00    +0.000 NA
ATOM      2  C   UNL     1     -19.772  43.729 -15.341  0.00  0.00    +0.000 A 
ATOM      3  C   UNL     1     -19.322  44.783 -16.122  0.00  0.00    +0.000 A 
ATOM      4  C   UNL     1     -19.684  44.800 -17.463  0.00  0.00    +0.000 A 
ATOM      5  C   UNL     1     -20.873  42.770 -17.115  0.00  0.00    +0.000 A 
ATOM      6  C   UNL     1     -20.475  43.779 -17.978  0.00  0.00    +0.000 A 
ENDROOT
BRANCH   3   9
ATOM      7  O   UNL     1     -18.946  46.688 -14.788  0.00  0.00    +0.000 OA
ATOM      8  N   UNL     1     -17.163  45.905 -16.001  0.00  0.00    +0.000 N 
ATOM      9  C   UNL     1     -18.492  45.856 -15.592  0.00  0.00    +0.000 C 
ATOM     10  H   UNL     1     -16.774  45.229 -16.650  0.00  0.00    +0.000 HD
ATOM     11  H   UNL     1     -16.539  46.627 -15.658  0.00  0.00    +0.000 HD
ENDBRANCH   3   9
BRANCH   2  12
ATOM     12  N   UNL     1     -19.414  43.703 -14.003  0.00  0.00    +0.000 N 
ATOM     13  H   UNL     1     -19.931  44.300 -13.366  0.00  0.00    +0.000 HD
BRANCH  12  14
ATOM     14  C   UNL     1     -18.544  42.707 -13.425  0.00  0.00    +0.000 C 
BRANCH  14  15
ATOM     15  C   UNL     1     -18.219  43.050 -11.972  0.00  0.00    +0.000 C 
BRANCH  15  16
ATOM     16  C   UNL     1     -17.553  41.918 -11.183  0.00  0.00    +0.000 C 
BRANCH  16  17
ATOM     17  N   UNL     1     -18.481  40.827 -10.907  0.00  0.00    +0.000 NA
BRANCH  17  18
ATOM     18  C   UNL     1     -18.587  40.593  -9.465  0.00  0.00    +0.000 C 
ATOM     19  C   UNL     1     -19.978  40.117  -9.087  0.00  0.00    +0.000 C 
ENDBRANCH  17  18
BRANCH  17  20
ATOM     20  C   UNL     1     -18.057  39.605 -11.590  0.00  0.00    +0.000 C 
ATOM     21  C   UNL     1     -16.568  39.635 -11.897  0.00  0.00    +0.000 C 
ENDBRANCH  17  20
ENDBRANCH  16  17
ENDBRANCH  15  16
ENDBRANCH  14  15
ENDBRANCH  12  14
ENDBRANCH   2  12
TORSDOF 8
ENDMDL
