MODEL 1
REMARK VINA RESULT:    -6.846      0.000      0.000
REMARK INTER + INTRA:          -7.534
REMARK INTER:                  -7.447
REMARK INTRA:                  -0.088
REMARK UNBOUND:                -0.088
REMARK  Name = 2826733
REMARK  3 active torsions:
REMARK  status: ('A' for Active; 'I' for Inactive)
REMARK    1  A    between atoms: N_3  and  C_12
REMARK    2  A    between atoms: N_4  and  N_5
REMARK    3  A    between atoms: C_6  and  C_11
REMARK                            x       y       z     vdW  Elec       q    Type
REMARK                         _______ _______ _______ _____ _____    ______ ____
ROOT
ATOM      1  N   UNL     1     -21.623  40.649  -8.136  0.00  0.00    +0.000 NA
ATOM      2  N   UNL     1     -22.078  42.062  -6.273  0.00  0.00    +0.000 N 
ATOM      3  C   UNL     1     -19.417  40.661  -9.126  0.00  0.00    +0.000 A 
ATOM      4  C   UNL     1     -19.000  41.611  -8.202  0.00  0.00    +0.000 A 
ATOM      5  C   UNL     1     -21.181  41.573  -7.254  0.00  0.00    +0.000 A 
ATOM      6  C   UNL     1     -19.892  42.081  -7.244  0.00  0.00    +0.000 A 
ATOM      7  C   UNL     1     -20.728  40.216  -9.052  0.00  0.00    +0.000 A 
ATOM      8  H   UNL     1     -23.030  41.715  -6.303  0.00  0.00    +0.000 HD
ENDROOT
BRANCH   3  11
ATOM      9  O   UNL     1     -18.875  39.256 -10.924  0.00  0.00    +0.000 OA
ATOM     10  N   UNL     1     -17.234  40.725 -10.199  0.00  0.00    +0.000 N 
ATOM     11  C   UNL     1     -18.510  40.151 -10.139  0.00  0.00    +0.000 C 
ATOM     12  C   UNL     1     -16.228  40.344 -11.164  0.00  0.00    +0.000 C 
ATOM     13  H   UNL     1     -17.002  41.508  -9.596  0.00  0.00    +0.000 HD
ENDBRANCH   3  11
BRANCH   2  14
ATOM     14  N   UNL     1     -21.794  43.185  -5.537  0.00  0.00    +0.000 NA
ATOM     15  H   UNL     1     -21.456  43.910  -6.168  0.00  0.00    +0.000 HD
ATOM     16  H   UNL     1     -21.020  42.977  -4.908  0.00  0.00    +0.000 HD
ENDBRANCH   2  14
TORSDOF 2
ENDMDL
MODEL 2
REMARK VINA RESULT:    -6.525      2.105      5.267
REMARK INTER + INTRA:          -7.185
REMARK INTER:                  -7.103
REMARK INTRA:                  -0.082
REMARK UNBOUND:                -0.088
REMARK  Name = 2826733
REMARK  3 active torsions:
REMARK  status: ('A' for Active; 'I' for Inactive)
REMARK    1  A    between atoms: N_3  and  C_12
REMARK    2  A    between atoms: N_4  and  N_5
REMARK    3  A    between atoms: C_6  and  C_11
REMARK                            x       y       z     vdW  Elec       q    Type
REMARK                         _______ _______ _______ _____ _____    ______ ____
ROOT
ATOM      1  N   UNL     1     -19.290  39.459 -10.557  0.00  0.00    +0.000 NA
ATOM      2  N   UNL     1     -17.394  39.426 -11.999  0.00  0.00    +0.000 N 
ATOM      3  C   UNL     1     -19.420  41.117  -8.801  0.00  0.00    +0.000 A 
ATOM      4  C   UNL     1     -18.192  41.638  -9.193  0.00  0.00    +0.000 A 
ATOM      5  C   UNL     1     -18.099  39.993 -10.909  0.00  0.00    +0.000 A 
ATOM      6  C   UNL     1     -17.512  41.071 -10.266  0.00  0.00    +0.000 A 
ATOM      7  C   UNL     1     -19.921  40.036  -9.510  0.00  0.00    +0.000 A 
ATOM      8  H   UNL     1     -17.808  38.616 -12.446  0.00  0.00    +0.000 HD
ENDROOT
BRANCH   3  11
ATOM      9  O   UNL     1     -19.553  42.287  -6.774  0.00  0.00    +0.000 OA
ATOM     10  N   UNL     1     -21.546  41.544  -7.698  0.00  0.00    +0.000 N 
ATOM     11  C   UNL     1     -20.153  41.686  -7.685  0.00  0.00    +0.000 C 
ATOM     12  C   UNL     1     -22.415  42.075  -6.672  0.00  0.00    +0.000 C 
ATOM     13  H   UNL     1     -22.004  41.119  -8.497  0.00  0.00    +0.000 HD
ENDBRANCH   3  11
BRANCH   2  14
ATOM     14  N   UNL     1     -16.076  39.723 -12.233  0.00  0.00    +0.000 NA
ATOM     15  H   UNL     1     -15.728  39.103 -12.963  0.00  0.00    +0.000 HD
ATOM     16  H   UNL     1     -15.537  39.502 -11.397  0.00  0.00    +0.000 HD
ENDBRANCH   2  14
TORSDOF 2
ENDMDL
MODEL 3
REMARK VINA RESULT:    -6.122      1.965      5.475
REMARK INTER + INTRA:          -6.746
REMARK INTER:                  -6.661
REMARK INTRA:                  -0.086
REMARK UNBOUND:                -0.088
REMARK  Name = 2826733
REMARK  3 active torsions:
REMARK  status: ('A' for Active; 'I' for Inactive)
REMARK    1  A    between atoms: N_3  and  C_12
REMARK    2  A    between atoms: N_4  and  N_5
REMARK    3  A    between atoms: C_6  and  C_11
REMARK                            x       y       z     vdW  Elec       q    Type
REMARK                         _______ _______ _______ _____ _____    ______ ____
ROOT
ATOM      1  N   UNL     1     -17.349  41.632 -10.510  0.00  0.00    +0.000 NA
ATOM      2  N   UNL     1     -16.472  40.497 -12.412  0.00  0.00    +0.000 N 
ATOM      3  C   UNL     1     -19.376  40.822  -9.472  0.00  0.00    +0.000 A 
ATOM      4  C   UNL     1     -19.452  39.795 -10.406  0.00  0.00    +0.000 A 
ATOM      5  C   UNL     1     -17.456  40.621 -11.400  0.00  0.00    +0.000 A 
ATOM      6  C   UNL     1     -18.478  39.686 -11.392  0.00  0.00    +0.000 A 
ATOM      7  C   UNL     1     -18.314  41.707  -9.567  0.00  0.00    +0.000 A 
ATOM      8  H   UNL     1     -15.744  41.201 -12.438  0.00  0.00    +0.000 HD
ENDROOT
BRANCH   3  11
ATOM      9  O   UNL     1     -21.470  40.371  -8.518  0.00  0.00    +0.000 OA
ATOM     10  N   UNL     1     -20.049  41.769  -7.334  0.00  0.00    +0.000 N 
ATOM     11  C   UNL     1     -20.378  40.964  -8.431  0.00  0.00    +0.000 C 
ATOM     12  C   UNL     1     -20.929  41.989  -6.208  0.00  0.00    +0.000 C 
ATOM     13  H   UNL     1     -19.119  42.169  -7.260  0.00  0.00    +0.000 HD
ENDBRANCH   3  11
BRANCH   2  14
ATOM     14  N   UNL     1     -16.661  39.685 -13.501  0.00  0.00    +0.000 NA
ATOM     15  H   UNL     1     -17.583  39.255 -13.430  0.00  0.00    +0.000 HD
ATOM     16  H   UNL     1     -15.990  38.920 -13.460  0.00  0.00    +0.000 HD
ENDBRANCH   2  14
TORSDOF 2
ENDMDL
MODEL 4
REMARK VINA RESULT:    -5.582      4.869      5.491
REMARK INTER + INTRA:          -6.160
REMARK INTER:                  -6.072
REMARK INTRA:                  -0.088
REMARK UNBOUND:                -0.088
REMARK  Name = 2826733
REMARK  3 active torsions:
REMARK  status: ('A' for Active; 'I' for Inactive)
REMARK    1  A    between atoms: N_3  and  C_12
REMARK    2  A    between atoms: N_4  and  N_5
REMARK    3  A    between atoms: C_6  and  C_11
REMARK                            x       y       z     vdW  Elec       q    Type
REMARK                         _______ _______ _______ _____ _____    ______ ____
ROOT
ATOM      1  N   UNL     1     -18.726  41.266 -13.182  0.00  0.00    +0.000 NA
ATOM      2  N   UNL     1     -19.777  39.222 -12.557  0.00  0.00    +0.000 N 
ATOM      3  C   UNL     1     -16.650  41.909 -12.123  0.00  0.00    +0.000 A 
ATOM      4  C   UNL     1     -16.674  40.749 -11.356  0.00  0.00    +0.000 A 
ATOM      5  C   UNL     1     -18.715  40.150 -12.421  0.00  0.00    +0.000 A 
ATOM      6  C   UNL     1     -17.722  39.847 -11.502  0.00  0.00    +0.000 A 
ATOM      7  C   UNL     1     -17.691  42.119 -13.013  0.00  0.00    +0.000 A 
ATOM      8  H   UNL     1     -20.519  39.461 -13.204  0.00  0.00    +0.000 HD
ENDROOT
BRANCH   3  11
ATOM      9  O   UNL     1     -15.637  43.979 -12.556  0.00  0.00    +0.000 OA
ATOM     10  N   UNL     1     -14.479  42.500 -11.196  0.00  0.00    +0.000 N 
ATOM     11  C   UNL     1     -15.569  42.870 -11.993  0.00  0.00    +0.000 C 
ATOM     12  C   UNL     1     -13.339  43.355 -10.951  0.00  0.00    +0.000 C 
ATOM     13  H   UNL     1     -14.498  41.622 -10.688  0.00  0.00    +0.000 HD
ENDBRANCH   3  11
BRANCH   2  14
ATOM     14  N   UNL     1     -19.981  38.226 -11.636  0.00  0.00    +0.000 NA
ATOM     15  H   UNL     1     -19.124  38.099 -11.099  0.00  0.00    +0.000 HD
ATOM     16  H   UNL     1     -20.134  37.349 -12.132  0.00  0.00    +0.000 HD
ENDBRANCH   2  14
TORSDOF 2
ENDMDL
MODEL 5
REMARK VINA RESULT:    -5.399      4.703      5.694
REMARK INTER + INTRA:          -5.960
REMARK INTER:                  -5.893
REMARK INTRA:                  -0.066
REMARK UNBOUND:                -0.088
REMARK  Name = 2826733
REMARK  3 active torsions:
REMARK  status: ('A' for Active; 'I' for Inactive)
REMARK    1  A    between atoms: N_3  and  C_12
REMARK    2  A    between atoms: N_4  and  N_5
REMARK    3  A    between atoms: C_6  and  C_11
REMARK                            x       y       z     vdW  Elec       q    Type
REMARK                         _______ _______ _______ _____ _____    ______ ____
ROOT
ATOM      1  N   UNL     1     -19.327  41.602 -13.566  0.00  0.00    +0.000 NA
ATOM      2  N   UNL     1     -19.578  39.413 -12.661  0.00  0.00    +0.000 N 
ATOM      3  C   UNL     1     -18.121  43.278 -12.308  0.00  0.00    +0.000 A 
ATOM      4  C   UNL     1     -17.894  42.359 -11.289  0.00  0.00    +0.000 A 
ATOM      5  C   UNL     1     -19.086  40.737 -12.556  0.00  0.00    +0.000 A 
ATOM      6  C   UNL     1     -18.382  41.062 -11.408  0.00  0.00    +0.000 A 
ATOM      7  C   UNL     1     -18.838  42.853 -13.416  0.00  0.00    +0.000 A 
ATOM      8  H   UNL     1     -20.122  39.186 -13.485  0.00  0.00    +0.000 HD
ENDROOT
BRANCH   3  11
ATOM      9  O   UNL     1     -18.415  45.592 -12.076  0.00  0.00    +0.000 OA
ATOM     10  N   UNL     1     -16.237  44.817 -12.261  0.00  0.00    +0.000 N 
ATOM     11  C   UNL     1     -17.625  44.639 -12.213  0.00  0.00    +0.000 C 
ATOM     12  C   UNL     1     -15.590  46.106 -12.156  0.00  0.00    +0.000 C 
ATOM     13  H   UNL     1     -15.624  44.009 -12.292  0.00  0.00    +0.000 HD
ENDBRANCH   3  11
BRANCH   2  14
ATOM     14  N   UNL     1     -19.620  38.574 -11.576  0.00  0.00    +0.000 NA
ATOM     15  H   UNL     1     -18.769  38.012 -11.567  0.00  0.00    +0.000 HD
ATOM     16  H   UNL     1     -20.389  37.918 -11.698  0.00  0.00    +0.000 HD
ENDBRANCH   2  14
TORSDOF 2
ENDMDL
