MODEL 1
REMARK VINA RESULT:    -6.129      0.000      0.000
REMARK INTER + INTRA:          -8.142
REMARK INTER:                  -7.920
REMARK INTRA:                  -0.222
REMARK UNBOUND:                -0.222
REMARK  Name = 28387487
REMARK  6 active torsions:
REMARK  status: ('A' for Active; 'I' for Inactive)
REMARK    1  A    between atoms: N_2  and  C_6
REMARK    2  A    between atoms: N_2  and  C_7
REMARK    3  A    between atoms: N_2  and  C_10
REMARK    4  A    between atoms: C_6  and  C_9
REMARK    5  A    between atoms: C_8  and  C_13
REMARK    6  A    between atoms: C_9  and  C_15
REMARK                            x       y       z     vdW  Elec       q    Type
REMARK                         _______ _______ _______ _____ _____    ______ ____
ROOT
ATOM      1  N   UNL     1     -18.363  42.234  -8.691  0.00  0.00    +0.000 NA
ATOM      2  C   UNL     1     -18.443  41.520  -9.836  0.00  0.00    +0.000 A 
ATOM      3  C   UNL     1     -19.382  40.527 -10.067  0.00  0.00    +0.000 A 
ATOM      4  C   UNL     1     -20.298  40.250  -9.059  0.00  0.00    +0.000 A 
ATOM      5  C   UNL     1     -20.248  40.963  -7.866  0.00  0.00    +0.000 A 
ATOM      6  C   UNL     1     -19.270  41.936  -7.734  0.00  0.00    +0.000 A 
ENDROOT
BRANCH   3   9
ATOM      7  O   UNL     1     -18.913  38.652 -11.414  0.00  0.00    +0.000 OA
ATOM      8  N   UNL     1     -20.127  40.341 -12.380  0.00  0.00    +0.000 N 
ATOM      9  C   UNL     1     -19.442  39.772 -11.312  0.00  0.00    +0.000 C 
ATOM     10  H   UNL     1     -20.569  41.252 -12.313  0.00  0.00    +0.000 HD
ATOM     11  H   UNL     1     -20.204  39.857 -13.268  0.00  0.00    +0.000 HD
ENDBRANCH   3   9
BRANCH   2  12
ATOM     12  N   UNL     1     -17.504  41.806 -10.858  0.00  0.00    +0.000 N 
ATOM     13  C   UNL     1     -16.398  40.907 -11.101  0.00  0.00    +0.000 C 
BRANCH  12  14
ATOM     14  C   UNL     1     -17.650  42.994 -11.669  0.00  0.00    +0.000 C 
BRANCH  14  15
ATOM     15  C   UNL     1     -17.324  42.700 -13.129  0.00  0.00    +0.000 C 
BRANCH  15  17
ATOM     16  N   UNL     1     -19.492  42.553 -14.612  0.00  0.00    +0.000 NA
ATOM     17  C   UNL     1     -18.535  42.619 -13.958  0.00  0.00    +0.000 C 
ENDBRANCH  15  17
ENDBRANCH  14  15
ENDBRANCH  12  14
ENDBRANCH   2  12
TORSDOF 5
ENDMDL
MODEL 2
REMARK VINA RESULT:    -5.236      2.009      5.259
REMARK INTER + INTRA:          -6.989
REMARK INTER:                  -6.646
REMARK INTRA:                  -0.343
REMARK UNBOUND:                -0.222
REMARK  Name = 28387487
REMARK  6 active torsions:
REMARK  status: ('A' for Active; 'I' for Inactive)
REMARK    1  A    between atoms: N_2  and  C_6
REMARK    2  A    between atoms: N_2  and  C_7
REMARK    3  A    between atoms: N_2  and  C_10
REMARK    4  A    between atoms: C_6  and  C_9
REMARK    5  A    between atoms: C_8  and  C_13
REMARK    6  A    between atoms: C_9  and  C_15
REMARK                            x       y       z     vdW  Elec       q    Type
REMARK                         _______ _______ _______ _____ _____    ______ ____
ROOT
ATOM      1  N   UNL     1     -19.629  42.294 -14.509  0.00  0.00    +0.000 NA
ATOM      2  C   UNL     1     -18.722  42.237 -13.509  0.00  0.00    +0.000 A 
ATOM      3  C   UNL     1     -17.869  43.277 -13.175  0.00  0.00    +0.000 A 
ATOM      4  C   UNL     1     -17.953  44.451 -13.914  0.00  0.00    +0.000 A 
ATOM      5  C   UNL     1     -18.874  44.548 -14.952  0.00  0.00    +0.000 A 
ATOM      6  C   UNL     1     -19.681  43.451 -15.207  0.00  0.00    +0.000 A 
ENDROOT
BRANCH   3   9
ATOM      7  O   UNL     1     -17.214  43.448 -10.919  0.00  0.00    +0.000 OA
ATOM      8  N   UNL     1     -15.611  42.772 -12.412  0.00  0.00    +0.000 N 
ATOM      9  C   UNL     1     -16.900  43.184 -12.091  0.00  0.00    +0.000 C 
ATOM     10  H   UNL     1     -15.337  42.547 -13.363  0.00  0.00    +0.000 HD
ATOM     11  H   UNL     1     -14.897  42.685 -11.696  0.00  0.00    +0.000 HD
ENDBRANCH   3   9
BRANCH   2  12
ATOM     12  N   UNL     1     -18.641  41.036 -12.761  0.00  0.00    +0.000 N 
ATOM     13  C   UNL     1     -17.707  40.001 -13.148  0.00  0.00    +0.000 C 
BRANCH  12  14
ATOM     14  C   UNL     1     -19.484  40.840 -11.603  0.00  0.00    +0.000 C 
BRANCH  14  15
ATOM     15  C   UNL     1     -18.782  39.982 -10.557  0.00  0.00    +0.000 C 
BRANCH  15  17
ATOM     16  N   UNL     1     -18.472  41.261  -8.279  0.00  0.00    +0.000 NA
ATOM     17  C   UNL     1     -18.608  40.697  -9.285  0.00  0.00    +0.000 C 
ENDBRANCH  15  17
ENDBRANCH  14  15
ENDBRANCH  12  14
ENDBRANCH   2  12
TORSDOF 5
ENDMDL
MODEL 3
REMARK VINA RESULT:    -5.200      1.580      4.185
REMARK INTER + INTRA:          -6.942
REMARK INTER:                  -6.973
REMARK INTRA:                   0.031
REMARK UNBOUND:                -0.222
REMARK  Name = 28387487
REMARK  6 active torsions:
REMARK  status: ('A' for Active; 'I' for Inactive)
REMARK    1  A    between atoms: N_2  and  C_6
REMARK    2  A    between atoms: N_2  and  C_7
REMARK    3  A    between atoms: N_2  and  C_10
REMARK    4  A    between atoms: C_6  and  C_9
REMARK    5  A    between atoms: C_8  and  C_13
REMARK    6  A    between atoms: C_9  and  C_15
REMARK                            x       y       z     vdW  Elec       q    Type
REMARK                         _______ _______ _______ _____ _____    ______ ____
ROOT
ATOM      1  N   UNL     1     -17.728  43.755 -11.429  0.00  0.00    +0.000 NA
ATOM      2  C   UNL     1     -17.994  42.441 -11.600  0.00  0.00    +0.000 A 
ATOM      3  C   UNL     1     -18.539  41.903 -12.755  0.00  0.00    +0.000 A 
ATOM      4  C   UNL     1     -18.828  42.769 -13.803  0.00  0.00    +0.000 A 
ATOM      5  C   UNL     1     -18.569  44.129 -13.666  0.00  0.00    +0.000 A 
ATOM      6  C   UNL     1     -18.024  44.567 -12.470  0.00  0.00    +0.000 A 
ENDROOT
BRANCH   3   9
ATOM      7  O   UNL     1     -17.973  39.706 -13.388  0.00  0.00    +0.000 OA
ATOM      8  N   UNL     1     -20.055  40.016 -12.481  0.00  0.00    +0.000 N 
ATOM      9  C   UNL     1     -18.817  40.481 -12.908  0.00  0.00    +0.000 C 
ATOM     10  H   UNL     1     -20.755  40.633 -12.081  0.00  0.00    +0.000 HD
ATOM     11  H   UNL     1     -20.300  39.034 -12.558  0.00  0.00    +0.000 HD
ENDBRANCH   3   9
BRANCH   2  12
ATOM     12  N   UNL     1     -17.699  41.564 -10.526  0.00  0.00    +0.000 N 
ATOM     13  C   UNL     1     -16.610  40.621 -10.637  0.00  0.00    +0.000 C 
BRANCH  12  14
ATOM     14  C   UNL     1     -18.481  41.613  -9.310  0.00  0.00    +0.000 C 
BRANCH  14  15
ATOM     15  C   UNL     1     -19.268  40.322  -9.118  0.00  0.00    +0.000 C 
BRANCH  15  17
ATOM     16  N   UNL     1     -21.688  40.772  -8.191  0.00  0.00    +0.000 NA
ATOM     17  C   UNL     1     -20.621  40.573  -8.601  0.00  0.00    +0.000 C 
ENDBRANCH  15  17
ENDBRANCH  14  15
ENDBRANCH  12  14
ENDBRANCH   2  12
TORSDOF 5
ENDMDL
MODEL 4
REMARK VINA RESULT:    -5.194      2.084      2.842
REMARK INTER + INTRA:          -6.935
REMARK INTER:                  -6.720
REMARK INTRA:                  -0.215
REMARK UNBOUND:                -0.222
REMARK  Name = 28387487
REMARK  6 active torsions:
REMARK  status: ('A' for Active; 'I' for Inactive)
REMARK    1  A    between atoms: N_2  and  C_6
REMARK    2  A    between atoms: N_2  and  C_7
REMARK    3  A    between atoms: N_2  and  C_10
REMARK    4  A    between atoms: C_6  and  C_9
REMARK    5  A    between atoms: C_8  and  C_13
REMARK    6  A    between atoms: C_9  and  C_15
REMARK                            x       y       z     vdW  Elec       q    Type
REMARK                         _______ _______ _______ _____ _____    ______ ____
ROOT
ATOM      1  N   UNL     1     -18.137  42.283  -8.998  0.00  0.00    +0.000 NA
ATOM      2  C   UNL     1     -18.080  41.972 -10.312  0.00  0.00    +0.000 A 
ATOM      3  C   UNL     1     -18.757  40.908 -10.888  0.00  0.00    +0.000 A 
ATOM      4  C   UNL     1     -19.544  40.114 -10.062  0.00  0.00    +0.000 A 
ATOM      5  C   UNL     1     -19.629  40.402  -8.704  0.00  0.00    +0.000 A 
ATOM      6  C   UNL     1     -18.912  41.487  -8.226  0.00  0.00    +0.000 A 
ENDROOT
BRANCH   3   9
ATOM      7  O   UNL     1     -17.794  39.840 -12.753  0.00  0.00    +0.000 OA
ATOM      8  N   UNL     1     -19.624  41.163 -13.151  0.00  0.00    +0.000 N 
ATOM      9  C   UNL     1     -18.673  40.597 -12.308  0.00  0.00    +0.000 C 
ATOM     10  H   UNL     1     -20.353  41.778 -12.805  0.00  0.00    +0.000 HD
ATOM     11  H   UNL     1     -19.616  40.975 -14.148  0.00  0.00    +0.000 HD
ENDBRANCH   3   9
BRANCH   2  12
ATOM     12  N   UNL     1     -17.274  42.785 -11.147  0.00  0.00    +0.000 N 
ATOM     13  C   UNL     1     -17.827  43.972 -11.759  0.00  0.00    +0.000 C 
BRANCH  12  14
ATOM     14  C   UNL     1     -15.891  42.437 -11.385  0.00  0.00    +0.000 C 
BRANCH  14  15
ATOM     15  C   UNL     1     -15.179  43.539 -12.162  0.00  0.00    +0.000 C 
BRANCH  15  17
ATOM     16  N   UNL     1     -12.576  43.492 -11.781  0.00  0.00    +0.000 NA
ATOM     17  C   UNL     1     -13.725  43.512 -11.948  0.00  0.00    +0.000 C 
ENDBRANCH  15  17
ENDBRANCH  14  15
ENDBRANCH  12  14
ENDBRANCH   2  12
TORSDOF 5
ENDMDL
MODEL 5
REMARK VINA RESULT:    -4.946      1.956      4.539
REMARK INTER + INTRA:          -6.613
REMARK INTER:                  -6.646
REMARK INTRA:                   0.033
REMARK UNBOUND:                -0.222
REMARK  Name = 28387487
REMARK  6 active torsions:
REMARK  status: ('A' for Active; 'I' for Inactive)
REMARK    1  A    between atoms: N_2  and  C_6
REMARK    2  A    between atoms: N_2  and  C_7
REMARK    3  A    between atoms: N_2  and  C_10
REMARK    4  A    between atoms: C_6  and  C_9
REMARK    5  A    between atoms: C_8  and  C_13
REMARK    6  A    between atoms: C_9  and  C_15
REMARK                            x       y       z     vdW  Elec       q    Type
REMARK                         _______ _______ _______ _____ _____    ______ ____
ROOT
ATOM      1  N   UNL     1     -17.899  43.332 -10.844  0.00  0.00    +0.000 NA
ATOM      2  C   UNL     1     -17.721  42.046 -11.220  0.00  0.00    +0.000 A 
ATOM      3  C   UNL     1     -16.788  41.634 -12.159  0.00  0.00    +0.000 A 
ATOM      4  C   UNL     1     -15.985  42.604 -12.747  0.00  0.00    +0.000 A 
ATOM      5  C   UNL     1     -16.138  43.938 -12.387  0.00  0.00    +0.000 A 
ATOM      6  C   UNL     1     -17.101  44.247 -11.439  0.00  0.00    +0.000 A 
ENDROOT
BRANCH   3   9
ATOM      7  O   UNL     1     -17.182  39.778 -13.554  0.00  0.00    +0.000 OA
ATOM      8  N   UNL     1     -15.799  39.444 -11.756  0.00  0.00    +0.000 N 
ATOM      9  C   UNL     1     -16.622  40.240 -12.545  0.00  0.00    +0.000 C 
ATOM     10  H   UNL     1     -15.329  39.805 -10.932  0.00  0.00    +0.000 HD
ATOM     11  H   UNL     1     -15.643  38.467 -11.982  0.00  0.00    +0.000 HD
ENDBRANCH   3   9
BRANCH   2  12
ATOM     12  N   UNL     1     -18.545  41.063 -10.617  0.00  0.00    +0.000 N 
ATOM     13  C   UNL     1     -19.678  40.525 -11.336  0.00  0.00    +0.000 C 
BRANCH  12  14
ATOM     14  C   UNL     1     -18.254  40.588  -9.283  0.00  0.00    +0.000 C 
BRANCH  14  15
ATOM     15  C   UNL     1     -18.902  41.484  -8.233  0.00  0.00    +0.000 C 
BRANCH  15  17
ATOM     16  N   UNL     1     -21.483  41.029  -8.004  0.00  0.00    +0.000 NA
ATOM     17  C   UNL     1     -20.344  41.229  -8.106  0.00  0.00    +0.000 C 
ENDBRANCH  15  17
ENDBRANCH  14  15
ENDBRANCH  12  14
ENDBRANCH   2  12
TORSDOF 5
ENDMDL
