MODEL 1
REMARK VINA RESULT:    -6.025      0.000      0.000
REMARK INTER + INTRA:          -8.265
REMARK INTER:                  -7.962
REMARK INTRA:                  -0.302
REMARK UNBOUND:                -0.302
REMARK  Name = 28387549
REMARK  7 active torsions:
REMARK  status: ('A' for Active; 'I' for Inactive)
REMARK    1  A    between atoms: N_2  and  C_6
REMARK    2  A    between atoms: N_2  and  C_8
REMARK    3  A    between atoms: N_2  and  C_10
REMARK    4  A    between atoms: N_4  and  C_9
REMARK    5  A    between atoms: C_6  and  C_7
REMARK    6  A    between atoms: C_7  and  C_9
REMARK    7  A    between atoms: C_11  and  C_13
REMARK                            x       y       z     vdW  Elec       q    Type
REMARK                         _______ _______ _______ _____ _____    ______ ____
ROOT
ATOM      1  N   UNL     1     -18.357  42.173  -8.706  0.00  0.00    +0.000 NA
ATOM      2  C   UNL     1     -18.455  41.486  -9.867  0.00  0.00    +0.000 A 
ATOM      3  C   UNL     1     -19.420  40.525 -10.121  0.00  0.00    +0.000 A 
ATOM      4  C   UNL     1     -20.345  40.250  -9.119  0.00  0.00    +0.000 A 
ATOM      5  C   UNL     1     -20.276  40.936  -7.911  0.00  0.00    +0.000 A 
ATOM      6  C   UNL     1     -19.274  41.878  -7.756  0.00  0.00    +0.000 A 
ENDROOT
BRANCH   3   9
ATOM      7  O   UNL     1     -19.075  38.636 -11.485  0.00  0.00    +0.000 OA
ATOM      8  N   UNL     1     -20.080  40.449 -12.466  0.00  0.00    +0.000 N 
ATOM      9  C   UNL     1     -19.498  39.800 -11.382  0.00  0.00    +0.000 C 
ATOM     10  H   UNL     1     -20.447  41.393 -12.396  0.00  0.00    +0.000 HD
ATOM     11  H   UNL     1     -20.163  39.989 -13.366  0.00  0.00    +0.000 HD
ENDBRANCH   3   9
BRANCH   2  12
ATOM     12  N   UNL     1     -17.518  41.767 -10.871  0.00  0.00    +0.000 N 
ATOM     13  C   UNL     1     -16.463  40.801 -11.179  0.00  0.00    +0.000 C 
BRANCH  12  14
ATOM     14  C   UNL     1     -17.570  42.997 -11.627  0.00  0.00    +0.000 C 
BRANCH  14  15
ATOM     15  C   UNL     1     -17.438  42.726 -13.123  0.00  0.00    +0.000 C 
BRANCH  15  16
ATOM     16  C   UNL     1     -18.519  43.433 -13.944  0.00  0.00    +0.000 C 
BRANCH  16  17
ATOM     17  N   UNL     1     -19.441  42.456 -14.513  0.00  0.00    +0.000 NA
ATOM     18  H   UNL     1     -19.943  42.873 -15.296  0.00  0.00    +0.000 HD
ATOM     19  H   UNL     1     -20.145  42.212 -13.818  0.00  0.00    +0.000 HD
ENDBRANCH  16  17
ENDBRANCH  15  16
ENDBRANCH  14  15
ENDBRANCH  12  14
ENDBRANCH   2  12
TORSDOF 6
ENDMDL
MODEL 2
REMARK VINA RESULT:    -5.375      1.975      5.159
REMARK INTER + INTRA:          -7.405
REMARK INTER:                  -6.920
REMARK INTRA:                  -0.485
REMARK UNBOUND:                -0.302
REMARK  Name = 28387549
REMARK  7 active torsions:
REMARK  status: ('A' for Active; 'I' for Inactive)
REMARK    1  A    between atoms: N_2  and  C_6
REMARK    2  A    between atoms: N_2  and  C_8
REMARK    3  A    between atoms: N_2  and  C_10
REMARK    4  A    between atoms: N_4  and  C_9
REMARK    5  A    between atoms: C_6  and  C_7
REMARK    6  A    between atoms: C_7  and  C_9
REMARK    7  A    between atoms: C_11  and  C_13
REMARK                            x       y       z     vdW  Elec       q    Type
REMARK                         _______ _______ _______ _____ _____    ______ ____
ROOT
ATOM      1  N   UNL     1     -19.625  42.053 -14.202  0.00  0.00    +0.000 NA
ATOM      2  C   UNL     1     -18.598  42.097 -13.323  0.00  0.00    +0.000 A 
ATOM      3  C   UNL     1     -17.784  43.202 -13.138  0.00  0.00    +0.000 A 
ATOM      4  C   UNL     1     -18.038  44.335 -13.903  0.00  0.00    +0.000 A 
ATOM      5  C   UNL     1     -19.084  44.327 -14.818  0.00  0.00    +0.000 A 
ATOM      6  C   UNL     1     -19.841  43.173 -14.929  0.00  0.00    +0.000 A 
ENDROOT
BRANCH   3   9
ATOM      7  O   UNL     1     -16.875  43.464 -10.980  0.00  0.00    +0.000 OA
ATOM      8  N   UNL     1     -15.408  42.935 -12.661  0.00  0.00    +0.000 N 
ATOM      9  C   UNL     1     -16.683  43.219 -12.183  0.00  0.00    +0.000 C 
ATOM     10  H   UNL     1     -15.234  42.718 -13.638  0.00  0.00    +0.000 HD
ATOM     11  H   UNL     1     -14.607  42.931 -12.040  0.00  0.00    +0.000 HD
ENDBRANCH   3   9
BRANCH   2  12
ATOM     12  N   UNL     1     -18.347  40.951 -12.557  0.00  0.00    +0.000 N 
ATOM     13  C   UNL     1     -17.314  40.003 -12.975  0.00  0.00    +0.000 C 
BRANCH  12  14
ATOM     14  C   UNL     1     -19.083  40.679 -11.344  0.00  0.00    +0.000 C 
BRANCH  14  15
ATOM     15  C   UNL     1     -18.137  40.357 -10.190  0.00  0.00    +0.000 C 
BRANCH  15  16
ATOM     16  C   UNL     1     -18.631  40.917  -8.855  0.00  0.00    +0.000 C 
BRANCH  16  17
ATOM     17  N   UNL     1     -18.039  42.227  -8.607  0.00  0.00    +0.000 NA
ATOM     18  H   UNL     1     -18.302  42.552  -7.677  0.00  0.00    +0.000 HD
ATOM     19  H   UNL     1     -18.426  42.902  -9.266  0.00  0.00    +0.000 HD
ENDBRANCH  16  17
ENDBRANCH  15  16
ENDBRANCH  14  15
ENDBRANCH  12  14
ENDBRANCH   2  12
TORSDOF 6
ENDMDL
MODEL 3
REMARK VINA RESULT:    -4.524      2.606      3.436
REMARK INTER + INTRA:          -6.281
REMARK INTER:                  -5.798
REMARK INTRA:                  -0.483
REMARK UNBOUND:                -0.302
REMARK  Name = 28387549
REMARK  7 active torsions:
REMARK  status: ('A' for Active; 'I' for Inactive)
REMARK    1  A    between atoms: N_2  and  C_6
REMARK    2  A    between atoms: N_2  and  C_8
REMARK    3  A    between atoms: N_2  and  C_10
REMARK    4  A    between atoms: N_4  and  C_9
REMARK    5  A    between atoms: C_6  and  C_7
REMARK    6  A    between atoms: C_7  and  C_9
REMARK    7  A    between atoms: C_11  and  C_13
REMARK                            x       y       z     vdW  Elec       q    Type
REMARK                         _______ _______ _______ _____ _____    ______ ____
ROOT
ATOM      1  N   UNL     1     -17.064  41.274 -10.954  0.00  0.00    +0.000 NA
ATOM      2  C   UNL     1     -17.633  42.066 -11.889  0.00  0.00    +0.000 A 
ATOM      3  C   UNL     1     -18.725  41.697 -12.657  0.00  0.00    +0.000 A 
ATOM      4  C   UNL     1     -19.269  40.434 -12.453  0.00  0.00    +0.000 A 
ATOM      5  C   UNL     1     -18.710  39.590 -11.499  0.00  0.00    +0.000 A 
ATOM      6  C   UNL     1     -17.619  40.052 -10.783  0.00  0.00    +0.000 A 
ENDROOT
BRANCH   3   9
ATOM      7  O   UNL     1     -20.097  43.486 -13.342  0.00  0.00    +0.000 OA
ATOM      8  N   UNL     1     -18.962  42.365 -14.989  0.00  0.00    +0.000 N 
ATOM      9  C   UNL     1     -19.316  42.573 -13.660  0.00  0.00    +0.000 C 
ATOM     10  H   UNL     1     -18.313  41.636 -15.267  0.00  0.00    +0.000 HD
ATOM     11  H   UNL     1     -19.342  42.948 -15.728  0.00  0.00    +0.000 HD
ENDBRANCH   3   9
BRANCH   2  12
ATOM     12  N   UNL     1     -17.078  43.338 -12.091  0.00  0.00    +0.000 N 
ATOM     13  C   UNL     1     -16.004  43.521 -13.069  0.00  0.00    +0.000 C 
BRANCH  12  14
ATOM     14  C   UNL     1     -17.549  44.490 -11.358  0.00  0.00    +0.000 C 
BRANCH  14  15
ATOM     15  C   UNL     1     -16.811  45.754 -11.793  0.00  0.00    +0.000 C 
BRANCH  15  16
ATOM     16  C   UNL     1     -17.750  46.801 -12.396  0.00  0.00    +0.000 C 
BRANCH  16  17
ATOM     17  N   UNL     1     -18.852  46.148 -13.095  0.00  0.00    +0.000 NA
ATOM     18  H   UNL     1     -19.498  46.852 -13.450  0.00  0.00    +0.000 HD
ATOM     19  H   UNL     1     -19.381  45.579 -12.435  0.00  0.00    +0.000 HD
ENDBRANCH  16  17
ENDBRANCH  15  16
ENDBRANCH  14  15
ENDBRANCH  12  14
ENDBRANCH   2  12
TORSDOF 6
ENDMDL
MODEL 4
REMARK VINA RESULT:    -4.472      5.479      7.606
REMARK INTER + INTRA:          -6.212
REMARK INTER:                  -5.690
REMARK INTRA:                  -0.522
REMARK UNBOUND:                -0.302
REMARK  Name = 28387549
REMARK  7 active torsions:
REMARK  status: ('A' for Active; 'I' for Inactive)
REMARK    1  A    between atoms: N_2  and  C_6
REMARK    2  A    between atoms: N_2  and  C_8
REMARK    3  A    between atoms: N_2  and  C_10
REMARK    4  A    between atoms: N_4  and  C_9
REMARK    5  A    between atoms: C_6  and  C_7
REMARK    6  A    between atoms: C_7  and  C_9
REMARK    7  A    between atoms: C_11  and  C_13
REMARK                            x       y       z     vdW  Elec       q    Type
REMARK                         _______ _______ _______ _____ _____    ______ ____
ROOT
ATOM      1  N   UNL     1     -21.802  46.583 -17.514  0.00  0.00    +0.000 NA
ATOM      2  C   UNL     1     -21.073  45.523 -17.097  0.00  0.00    +0.000 A 
ATOM      3  C   UNL     1     -21.613  44.290 -16.772  0.00  0.00    +0.000 A 
ATOM      4  C   UNL     1     -22.991  44.133 -16.881  0.00  0.00    +0.000 A 
ATOM      5  C   UNL     1     -23.774  45.200 -17.306  0.00  0.00    +0.000 A 
ATOM      6  C   UNL     1     -23.138  46.393 -17.608  0.00  0.00    +0.000 A 
ENDROOT
BRANCH   3   9
ATOM      7  O   UNL     1     -20.378  42.315 -17.124  0.00  0.00    +0.000 OA
ATOM      8  N   UNL     1     -20.501  43.087 -14.967  0.00  0.00    +0.000 N 
ATOM      9  C   UNL     1     -20.802  43.167 -16.323  0.00  0.00    +0.000 C 
ATOM     10  H   UNL     1     -20.824  43.782 -14.301  0.00  0.00    +0.000 HD
ATOM     11  H   UNL     1     -19.937  42.328 -14.602  0.00  0.00    +0.000 HD
ENDBRANCH   3   9
BRANCH   2  12
ATOM     12  N   UNL     1     -19.686  45.690 -16.987  0.00  0.00    +0.000 N 
ATOM     13  C   UNL     1     -18.804  45.207 -18.050  0.00  0.00    +0.000 C 
BRANCH  12  14
ATOM     14  C   UNL     1     -19.094  46.341 -15.841  0.00  0.00    +0.000 C 
BRANCH  14  15
ATOM     15  C   UNL     1     -17.851  45.591 -15.368  0.00  0.00    +0.000 C 
BRANCH  15  16
ATOM     16  C   UNL     1     -17.787  45.466 -13.844  0.00  0.00    +0.000 C 
BRANCH  16  17
ATOM     17  N   UNL     1     -19.132  45.353 -13.290  0.00  0.00    +0.000 NA
ATOM     18  H   UNL     1     -19.263  46.053 -12.561  0.00  0.00    +0.000 HD
ATOM     19  H   UNL     1     -19.235  44.445 -12.837  0.00  0.00    +0.000 HD
ENDBRANCH  16  17
ENDBRANCH  15  16
ENDBRANCH  14  15
ENDBRANCH  12  14
ENDBRANCH   2  12
TORSDOF 6
ENDMDL
MODEL 5
REMARK VINA RESULT:    -4.413      2.901      4.145
REMARK INTER + INTRA:          -6.134
REMARK INTER:                  -6.284
REMARK INTRA:                   0.150
REMARK UNBOUND:                -0.302
REMARK  Name = 28387549
REMARK  7 active torsions:
REMARK  status: ('A' for Active; 'I' for Inactive)
REMARK    1  A    between atoms: N_2  and  C_6
REMARK    2  A    between atoms: N_2  and  C_8
REMARK    3  A    between atoms: N_2  and  C_10
REMARK    4  A    between atoms: N_4  and  C_9
REMARK    5  A    between atoms: C_6  and  C_7
REMARK    6  A    between atoms: C_7  and  C_9
REMARK    7  A    between atoms: C_11  and  C_13
REMARK                            x       y       z     vdW  Elec       q    Type
REMARK                         _______ _______ _______ _____ _____    ______ ____
ROOT
ATOM      1  N   UNL     1     -19.607  40.915 -12.784  0.00  0.00    +0.000 NA
ATOM      2  C   UNL     1     -18.666  41.885 -12.782  0.00  0.00    +0.000 A 
ATOM      3  C   UNL     1     -17.450  41.785 -12.125  0.00  0.00    +0.000 A 
ATOM      4  C   UNL     1     -17.182  40.614 -11.425  0.00  0.00    +0.000 A 
ATOM      5  C   UNL     1     -18.127  39.593 -11.404  0.00  0.00    +0.000 A 
ATOM      6  C   UNL     1     -19.312  39.790 -12.092  0.00  0.00    +0.000 A 
ENDROOT
BRANCH   3   9
ATOM      7  O   UNL     1     -16.275  43.578 -11.149  0.00  0.00    +0.000 OA
ATOM      8  N   UNL     1     -15.700  43.013 -13.296  0.00  0.00    +0.000 N 
ATOM      9  C   UNL     1     -16.456  42.849 -12.140  0.00  0.00    +0.000 C 
ATOM     10  H   UNL     1     -15.822  42.417 -14.109  0.00  0.00    +0.000 HD
ATOM     11  H   UNL     1     -14.992  43.736 -13.360  0.00  0.00    +0.000 HD
ENDBRANCH   3   9
BRANCH   2  12
ATOM     12  N   UNL     1     -18.943  43.064 -13.488  0.00  0.00    +0.000 N 
ATOM     13  C   UNL     1     -19.124  44.324 -12.766  0.00  0.00    +0.000 C 
BRANCH  12  14
ATOM     14  C   UNL     1     -19.050  43.072 -14.928  0.00  0.00    +0.000 C 
BRANCH  14  15
ATOM     15  C   UNL     1     -20.511  43.124 -15.368  0.00  0.00    +0.000 C 
BRANCH  15  16
ATOM     16  C   UNL     1     -20.661  43.337 -16.876  0.00  0.00    +0.000 C 
BRANCH  16  17
ATOM     17  N   UNL     1     -20.710  42.052 -17.565  0.00  0.00    +0.000 NA
ATOM     18  H   UNL     1     -20.468  41.305 -16.915  0.00  0.00    +0.000 HD
ATOM     19  H   UNL     1     -20.003  42.035 -18.299  0.00  0.00    +0.000 HD
ENDBRANCH  16  17
ENDBRANCH  15  16
ENDBRANCH  14  15
ENDBRANCH  12  14
ENDBRANCH   2  12
TORSDOF 6
ENDMDL
