MODEL 1
REMARK VINA RESULT:    -6.065      0.000      0.000
REMARK INTER + INTRA:          -8.468
REMARK INTER:                  -7.838
REMARK INTRA:                  -0.630
REMARK UNBOUND:                -0.630
REMARK  Name = 28534862
REMARK  7 active torsions:
REMARK  status: ('A' for Active; 'I' for Inactive)
REMARK    1  A    between atoms: N_2  and  C_7
REMARK    2  A    between atoms: N_2  and  C_10
REMARK    3  A    between atoms: C_5  and  C_6
REMARK    4  A    between atoms: C_5  and  C_8
REMARK    5  A    between atoms: C_5  and  C_9
REMARK    6  A    between atoms: C_6  and  C_7
REMARK    7  A    between atoms: C_11  and  C_13
REMARK                            x       y       z     vdW  Elec       q    Type
REMARK                         _______ _______ _______ _____ _____    ______ ____
ROOT
ATOM      1  N   UNL     1     -18.482  42.198  -8.293  0.00  0.00    +0.000 NA
ATOM      2  C   UNL     1     -18.389  41.525  -9.462  0.00  0.00    +0.000 A 
ATOM      3  C   UNL     1     -19.341  40.628  -9.919  0.00  0.00    +0.000 A 
ATOM      4  C   UNL     1     -20.461  40.408  -9.126  0.00  0.00    +0.000 A 
ATOM      5  C   UNL     1     -20.593  41.082  -7.917  0.00  0.00    +0.000 A 
ATOM      6  C   UNL     1     -19.585  41.957  -7.549  0.00  0.00    +0.000 A 
ENDROOT
BRANCH   3   9
ATOM      7  O   UNL     1     -18.429  38.959 -11.307  0.00  0.00    +0.000 OA
ATOM      8  N   UNL     1     -20.008  40.333 -12.244  0.00  0.00    +0.000 N 
ATOM      9  C   UNL     1     -19.211  39.916 -11.183  0.00  0.00    +0.000 C 
ATOM     10  H   UNL     1     -20.657  41.109 -12.158  0.00  0.00    +0.000 HD
ATOM     11  H   UNL     1     -19.962  39.868 -13.145  0.00  0.00    +0.000 HD
ENDBRANCH   3   9
BRANCH   2  12
ATOM     12  N   UNL     1     -17.268  41.748 -10.246  0.00  0.00    +0.000 N 
ATOM     13  H   UNL     1     -16.494  41.103 -10.124  0.00  0.00    +0.000 HD
BRANCH  12  14
ATOM     14  C   UNL     1     -16.952  43.019 -10.851  0.00  0.00    +0.000 C 
BRANCH  14  15
ATOM     15  C   UNL     1     -18.074  43.468 -11.789  0.00  0.00    +0.000 C 
BRANCH  15  16
ATOM     16  C   UNL     1     -17.752  44.706 -12.649  0.00  0.00    +0.000 C 
ATOM     17  C   UNL     1     -18.465  44.596 -14.000  0.00  0.00    +0.000 C 
ATOM     18  C   UNL     1     -18.148  46.014 -11.962  0.00  0.00    +0.000 C 
ENDBRANCH  15  16
ENDBRANCH  14  15
ENDBRANCH  12  14
ENDBRANCH   2  12
TORSDOF 5
ENDMDL
MODEL 2
REMARK VINA RESULT:    -5.448      2.271      4.918
REMARK INTER + INTRA:          -7.671
REMARK INTER:                  -6.978
REMARK INTRA:                  -0.693
REMARK UNBOUND:                -0.630
REMARK  Name = 28534862
REMARK  7 active torsions:
REMARK  status: ('A' for Active; 'I' for Inactive)
REMARK    1  A    between atoms: N_2  and  C_7
REMARK    2  A    between atoms: N_2  and  C_10
REMARK    3  A    between atoms: C_5  and  C_6
REMARK    4  A    between atoms: C_5  and  C_8
REMARK    5  A    between atoms: C_5  and  C_9
REMARK    6  A    between atoms: C_6  and  C_7
REMARK    7  A    between atoms: C_11  and  C_13
REMARK                            x       y       z     vdW  Elec       q    Type
REMARK                         _______ _______ _______ _____ _____    ______ ____
ROOT
ATOM      1  N   UNL     1     -15.640  42.846 -12.120  0.00  0.00    +0.000 NA
ATOM      2  C   UNL     1     -16.718  42.283 -12.711  0.00  0.00    +0.000 A 
ATOM      3  C   UNL     1     -17.762  43.005 -13.266  0.00  0.00    +0.000 A 
ATOM      4  C   UNL     1     -17.697  44.392 -13.214  0.00  0.00    +0.000 A 
ATOM      5  C   UNL     1     -16.603  45.008 -12.614  0.00  0.00    +0.000 A 
ATOM      6  C   UNL     1     -15.611  44.197 -12.088  0.00  0.00    +0.000 A 
ENDROOT
BRANCH   3   9
ATOM      7  O   UNL     1     -19.627  41.566 -13.271  0.00  0.00    +0.000 OA
ATOM      8  N   UNL     1     -19.198  42.707 -15.213  0.00  0.00    +0.000 N 
ATOM      9  C   UNL     1     -18.914  42.369 -13.894  0.00  0.00    +0.000 C 
ATOM     10  H   UNL     1     -18.629  43.366 -15.735  0.00  0.00    +0.000 HD
ATOM     11  H   UNL     1     -19.991  42.299 -15.697  0.00  0.00    +0.000 HD
ENDBRANCH   3   9
BRANCH   2  12
ATOM     12  N   UNL     1     -16.778  40.900 -12.758  0.00  0.00    +0.000 N 
ATOM     13  H   UNL     1     -17.172  40.491 -13.599  0.00  0.00    +0.000 HD
BRANCH  12  14
ATOM     14  C   UNL     1     -16.755  40.055 -11.588  0.00  0.00    +0.000 C 
BRANCH  14  15
ATOM     15  C   UNL     1     -18.166  39.854 -11.035  0.00  0.00    +0.000 C 
BRANCH  15  16
ATOM     16  C   UNL     1     -18.400  40.414  -9.618  0.00  0.00    +0.000 C 
ATOM     17  C   UNL     1     -18.188  41.931  -9.620  0.00  0.00    +0.000 C 
ATOM     18  C   UNL     1     -19.796  40.089  -9.085  0.00  0.00    +0.000 C 
ENDBRANCH  15  16
ENDBRANCH  14  15
ENDBRANCH  12  14
ENDBRANCH   2  12
TORSDOF 5
ENDMDL
MODEL 3
REMARK VINA RESULT:    -5.440      2.906      4.450
REMARK INTER + INTRA:          -7.660
REMARK INTER:                  -7.174
REMARK INTRA:                  -0.487
REMARK UNBOUND:                -0.630
REMARK  Name = 28534862
REMARK  7 active torsions:
REMARK  status: ('A' for Active; 'I' for Inactive)
REMARK    1  A    between atoms: N_2  and  C_7
REMARK    2  A    between atoms: N_2  and  C_10
REMARK    3  A    between atoms: C_5  and  C_6
REMARK    4  A    between atoms: C_5  and  C_8
REMARK    5  A    between atoms: C_5  and  C_9
REMARK    6  A    between atoms: C_6  and  C_7
REMARK    7  A    between atoms: C_11  and  C_13
REMARK                            x       y       z     vdW  Elec       q    Type
REMARK                         _______ _______ _______ _____ _____    ______ ____
ROOT
ATOM      1  N   UNL     1     -18.221  43.788 -12.826  0.00  0.00    +0.000 NA
ATOM      2  C   UNL     1     -18.649  42.522 -13.035  0.00  0.00    +0.000 A 
ATOM      3  C   UNL     1     -18.538  41.503 -12.103  0.00  0.00    +0.000 A 
ATOM      4  C   UNL     1     -17.952  41.800 -10.879  0.00  0.00    +0.000 A 
ATOM      5  C   UNL     1     -17.500  43.091 -10.626  0.00  0.00    +0.000 A 
ATOM      6  C   UNL     1     -17.656  44.039 -11.624  0.00  0.00    +0.000 A 
ENDROOT
BRANCH   3   9
ATOM      7  O   UNL     1     -18.790  39.583 -13.445  0.00  0.00    +0.000 OA
ATOM      8  N   UNL     1     -19.690  39.497 -11.337  0.00  0.00    +0.000 N 
ATOM      9  C   UNL     1     -19.006  40.147 -12.359  0.00  0.00    +0.000 C 
ATOM     10  H   UNL     1     -19.870  39.940 -10.442  0.00  0.00    +0.000 HD
ATOM     11  H   UNL     1     -20.033  38.550 -11.459  0.00  0.00    +0.000 HD
ENDBRANCH   3   9
BRANCH   2  12
ATOM     12  N   UNL     1     -19.230  42.233 -14.259  0.00  0.00    +0.000 N 
ATOM     13  H   UNL     1     -18.714  41.607 -14.869  0.00  0.00    +0.000 HD
BRANCH  12  14
ATOM     14  C   UNL     1     -20.228  43.063 -14.890  0.00  0.00    +0.000 C 
BRANCH  14  15
ATOM     15  C   UNL     1     -20.010  43.120 -16.402  0.00  0.00    +0.000 C 
BRANCH  15  16
ATOM     16  C   UNL     1     -21.297  43.100 -17.251  0.00  0.00    +0.000 C 
ATOM     17  C   UNL     1     -22.449  43.721 -16.456  0.00  0.00    +0.000 C 
ATOM     18  C   UNL     1     -21.131  43.838 -18.580  0.00  0.00    +0.000 C 
ENDBRANCH  15  16
ENDBRANCH  14  15
ENDBRANCH  12  14
ENDBRANCH   2  12
TORSDOF 5
ENDMDL
MODEL 4
REMARK VINA RESULT:    -5.282      3.144      6.169
REMARK INTER + INTRA:          -7.455
REMARK INTER:                  -6.955
REMARK INTRA:                  -0.500
REMARK UNBOUND:                -0.630
REMARK  Name = 28534862
REMARK  7 active torsions:
REMARK  status: ('A' for Active; 'I' for Inactive)
REMARK    1  A    between atoms: N_2  and  C_7
REMARK    2  A    between atoms: N_2  and  C_10
REMARK    3  A    between atoms: C_5  and  C_6
REMARK    4  A    between atoms: C_5  and  C_8
REMARK    5  A    between atoms: C_5  and  C_9
REMARK    6  A    between atoms: C_6  and  C_7
REMARK    7  A    between atoms: C_11  and  C_13
REMARK                            x       y       z     vdW  Elec       q    Type
REMARK                         _______ _______ _______ _____ _____    ______ ____
ROOT
ATOM      1  N   UNL     1     -18.171  43.986 -13.693  0.00  0.00    +0.000 NA
ATOM      2  C   UNL     1     -19.137  43.354 -14.400  0.00  0.00    +0.000 A 
ATOM      3  C   UNL     1     -19.706  43.859 -15.557  0.00  0.00    +0.000 A 
ATOM      4  C   UNL     1     -19.258  45.090 -16.021  0.00  0.00    +0.000 A 
ATOM      5  C   UNL     1     -18.266  45.770 -15.321  0.00  0.00    +0.000 A 
ATOM      6  C   UNL     1     -17.761  45.180 -14.174  0.00  0.00    +0.000 A 
ENDROOT
BRANCH   3   9
ATOM      7  O   UNL     1     -20.484  42.166 -16.999  0.00  0.00    +0.000 OA
ATOM      8  N   UNL     1     -22.052  43.621 -16.172  0.00  0.00    +0.000 N 
ATOM      9  C   UNL     1     -20.747  43.156 -16.295  0.00  0.00    +0.000 C 
ATOM     10  H   UNL     1     -22.286  44.424 -15.598  0.00  0.00    +0.000 HD
ATOM     11  H   UNL     1     -22.817  43.165 -16.659  0.00  0.00    +0.000 HD
ENDBRANCH   3   9
BRANCH   2  12
ATOM     12  N   UNL     1     -19.581  42.128 -13.930  0.00  0.00    +0.000 N 
ATOM     13  H   UNL     1     -20.316  41.677 -14.465  0.00  0.00    +0.000 HD
BRANCH  12  14
ATOM     14  C   UNL     1     -19.417  41.684 -12.567  0.00  0.00    +0.000 C 
BRANCH  14  15
ATOM     15  C   UNL     1     -18.987  40.217 -12.522  0.00  0.00    +0.000 C 
BRANCH  15  16
ATOM     16  C   UNL     1     -18.503  39.719 -11.146  0.00  0.00    +0.000 C 
ATOM     17  C   UNL     1     -17.133  40.326 -10.829  0.00  0.00    +0.000 C 
ATOM     18  C   UNL     1     -19.486  40.053 -10.024  0.00  0.00    +0.000 C 
ENDBRANCH  15  16
ENDBRANCH  14  15
ENDBRANCH  12  14
ENDBRANCH   2  12
TORSDOF 5
ENDMDL
MODEL 5
REMARK VINA RESULT:    -4.959      3.523      5.237
REMARK INTER + INTRA:          -7.038
REMARK INTER:                  -6.511
REMARK INTRA:                  -0.527
REMARK UNBOUND:                -0.630
REMARK  Name = 28534862
REMARK  7 active torsions:
REMARK  status: ('A' for Active; 'I' for Inactive)
REMARK    1  A    between atoms: N_2  and  C_7
REMARK    2  A    between atoms: N_2  and  C_10
REMARK    3  A    between atoms: C_5  and  C_6
REMARK    4  A    between atoms: C_5  and  C_8
REMARK    5  A    between atoms: C_5  and  C_9
REMARK    6  A    between atoms: C_6  and  C_7
REMARK    7  A    between atoms: C_11  and  C_13
REMARK                            x       y       z     vdW  Elec       q    Type
REMARK                         _______ _______ _______ _____ _____    ______ ____
ROOT
ATOM      1  N   UNL     1     -18.902  41.046 -13.466  0.00  0.00    +0.000 NA
ATOM      2  C   UNL     1     -18.132  42.155 -13.556  0.00  0.00    +0.000 A 
ATOM      3  C   UNL     1     -17.044  42.411 -12.737  0.00  0.00    +0.000 A 
ATOM      4  C   UNL     1     -16.724  41.471 -11.765  0.00  0.00    +0.000 A 
ATOM      5  C   UNL     1     -17.492  40.318 -11.642  0.00  0.00    +0.000 A 
ATOM      6  C   UNL     1     -18.560  40.155 -12.508  0.00  0.00    +0.000 A 
ENDROOT
BRANCH   3   9
ATOM      7  O   UNL     1     -16.748  44.747 -12.809  0.00  0.00    +0.000 OA
ATOM      8  N   UNL     1     -14.860  43.459 -13.008  0.00  0.00    +0.000 N 
ATOM      9  C   UNL     1     -16.234  43.617 -12.856  0.00  0.00    +0.000 C 
ATOM     10  H   UNL     1     -14.423  42.544 -13.043  0.00  0.00    +0.000 HD
ATOM     11  H   UNL     1     -14.249  44.265 -13.089  0.00  0.00    +0.000 HD
ENDBRANCH   3   9
BRANCH   2  12
ATOM     12  N   UNL     1     -18.458  43.089 -14.526  0.00  0.00    +0.000 N 
ATOM     13  H   UNL     1     -17.726  43.738 -14.795  0.00  0.00    +0.000 HD
BRANCH  12  14
ATOM     14  C   UNL     1     -19.810  43.488 -14.833  0.00  0.00    +0.000 C 
BRANCH  14  15
ATOM     15  C   UNL     1     -20.165  43.136 -16.278  0.00  0.00    +0.000 C 
BRANCH  15  16
ATOM     16  C   UNL     1     -21.176  44.085 -16.954  0.00  0.00    +0.000 C 
ATOM     17  C   UNL     1     -21.077  43.947 -18.475  0.00  0.00    +0.000 C 
ATOM     18  C   UNL     1     -22.614  43.821 -16.504  0.00  0.00    +0.000 C 
ENDBRANCH  15  16
ENDBRANCH  14  15
ENDBRANCH  12  14
ENDBRANCH   2  12
TORSDOF 5
ENDMDL
