MODEL 1
REMARK VINA RESULT:    -6.504      0.000      0.000
REMARK INTER + INTRA:          -9.632
REMARK INTER:                  -8.785
REMARK INTRA:                  -0.846
REMARK UNBOUND:                -0.846
REMARK  Name = 28552138
REMARK  10 active torsions:
REMARK  status: ('A' for Active; 'I' for Inactive)
REMARK    1  A    between atoms: N_2  and  C_7
REMARK    2  A    between atoms: N_2  and  C_11
REMARK    3  A    between atoms: N_2  and  C_12
REMARK    4  A    between atoms: N_3  and  C_8
REMARK    5  A    between atoms: N_3  and  C_13
REMARK    6  A    between atoms: C_6  and  C_7
REMARK    7  A    between atoms: C_6  and  C_8
REMARK    8  A    between atoms: C_6  and  C_9
REMARK    9  A    between atoms: C_6  and  C_10
REMARK   10  A    between atoms: C_14  and  C_16
REMARK                            x       y       z     vdW  Elec       q    Type
REMARK                         _______ _______ _______ _____ _____    ______ ____
ROOT
ATOM      1  N   UNL     1     -18.531  42.285  -8.329  0.00  0.00    +0.000 NA
ATOM      2  C   UNL     1     -18.454  41.613  -9.500  0.00  0.00    +0.000 A 
ATOM      3  C   UNL     1     -19.355  40.637  -9.896  0.00  0.00    +0.000 A 
ATOM      4  C   UNL     1     -20.403  40.332  -9.035  0.00  0.00    +0.000 A 
ATOM      5  C   UNL     1     -19.564  41.961  -7.518  0.00  0.00    +0.000 A 
ATOM      6  C   UNL     1     -20.517  41.002  -7.822  0.00  0.00    +0.000 A 
ENDROOT
BRANCH   3   9
ATOM      7  O   UNL     1     -18.459  38.975 -11.303  0.00  0.00    +0.000 OA
ATOM      8  N   UNL     1     -20.060  40.344 -12.210  0.00  0.00    +0.000 N 
ATOM      9  C   UNL     1     -19.243  39.928 -11.162  0.00  0.00    +0.000 C 
ATOM     10  H   UNL     1     -20.710  41.117 -12.111  0.00  0.00    +0.000 HD
ATOM     11  H   UNL     1     -20.027  39.881 -13.111  0.00  0.00    +0.000 HD
ENDBRANCH   3   9
BRANCH   2  12
ATOM     12  N   UNL     1     -17.405  41.921 -10.351  0.00  0.00    +0.000 N 
ATOM     13  H   UNL     1     -16.943  41.143 -10.809  0.00  0.00    +0.000 HD
BRANCH  12  14
ATOM     14  C   UNL     1     -17.112  43.260 -10.808  0.00  0.00    +0.000 C 
BRANCH  14  15
ATOM     15  C   UNL     1     -17.144  43.368 -12.353  0.00  0.00    +0.000 C 
ATOM     16  C   UNL     1     -16.913  41.978 -12.984  0.00  0.00    +0.000 C 
ATOM     17  C   UNL     1     -15.981  44.281 -12.794  0.00  0.00    +0.000 C 
BRANCH  15  18
ATOM     18  C   UNL     1     -18.496  43.922 -12.881  0.00  0.00    +0.000 C 
BRANCH  18  19
ATOM     19  N   UNL     1     -18.663  43.804 -14.326  0.00  0.00    +0.000 NA
ATOM     20  C   UNL     1     -18.694  45.128 -14.949  0.00  0.00    +0.000 C 
ATOM     21  C   UNL     1     -19.884  43.063 -14.643  0.00  0.00    +0.000 C 
ENDBRANCH  18  19
ENDBRANCH  15  18
ENDBRANCH  14  15
ENDBRANCH  12  14
ENDBRANCH   2  12
TORSDOF 6
ENDMDL
MODEL 2
REMARK VINA RESULT:    -5.578      1.819      2.303
REMARK INTER + INTRA:          -8.381
REMARK INTER:                  -7.606
REMARK INTRA:                  -0.774
REMARK UNBOUND:                -0.846
REMARK  Name = 28552138
REMARK  10 active torsions:
REMARK  status: ('A' for Active; 'I' for Inactive)
REMARK    1  A    between atoms: N_2  and  C_7
REMARK    2  A    between atoms: N_2  and  C_11
REMARK    3  A    between atoms: N_2  and  C_12
REMARK    4  A    between atoms: N_3  and  C_8
REMARK    5  A    between atoms: N_3  and  C_13
REMARK    6  A    between atoms: C_6  and  C_7
REMARK    7  A    between atoms: C_6  and  C_8
REMARK    8  A    between atoms: C_6  and  C_9
REMARK    9  A    between atoms: C_6  and  C_10
REMARK   10  A    between atoms: C_14  and  C_16
REMARK                            x       y       z     vdW  Elec       q    Type
REMARK                         _______ _______ _______ _____ _____    ______ ____
ROOT
ATOM      1  N   UNL     1     -18.216  42.156  -8.973  0.00  0.00    +0.000 NA
ATOM      2  C   UNL     1     -18.437  41.607 -10.189  0.00  0.00    +0.000 A 
ATOM      3  C   UNL     1     -19.398  40.642 -10.442  0.00  0.00    +0.000 A 
ATOM      4  C   UNL     1     -20.184  40.212  -9.378  0.00  0.00    +0.000 A 
ATOM      5  C   UNL     1     -18.999  41.713  -7.964  0.00  0.00    +0.000 A 
ATOM      6  C   UNL     1     -19.987  40.753  -8.113  0.00  0.00    +0.000 A 
ENDROOT
BRANCH   3   9
ATOM      7  O   UNL     1     -19.720  40.785 -12.770  0.00  0.00    +0.000 OA
ATOM      8  N   UNL     1     -19.667  38.680 -11.862  0.00  0.00    +0.000 N 
ATOM      9  C   UNL     1     -19.610  40.067 -11.763  0.00  0.00    +0.000 C 
ATOM     10  H   UNL     1     -19.573  38.077 -11.051  0.00  0.00    +0.000 HD
ATOM     11  H   UNL     1     -19.806  38.227 -12.759  0.00  0.00    +0.000 HD
ENDBRANCH   3   9
BRANCH   2  12
ATOM     12  N   UNL     1     -17.649  42.039 -11.243  0.00  0.00    +0.000 N 
ATOM     13  H   UNL     1     -17.890  41.696 -12.166  0.00  0.00    +0.000 HD
BRANCH  12  14
ATOM     14  C   UNL     1     -16.696  43.120 -11.140  0.00  0.00    +0.000 C 
BRANCH  14  15
ATOM     15  C   UNL     1     -16.901  44.185 -12.247  0.00  0.00    +0.000 C 
ATOM     16  C   UNL     1     -18.034  43.745 -13.198  0.00  0.00    +0.000 C 
ATOM     17  C   UNL     1     -15.601  44.273 -13.075  0.00  0.00    +0.000 C 
BRANCH  15  18
ATOM     18  C   UNL     1     -17.267  45.579 -11.667  0.00  0.00    +0.000 C 
BRANCH  18  19
ATOM     19  N   UNL     1     -16.606  46.694 -12.338  0.00  0.00    +0.000 NA
ATOM     20  C   UNL     1     -15.916  47.543 -11.365  0.00  0.00    +0.000 C 
ATOM     21  C   UNL     1     -17.573  47.480 -13.104  0.00  0.00    +0.000 C 
ENDBRANCH  18  19
ENDBRANCH  15  18
ENDBRANCH  14  15
ENDBRANCH  12  14
ENDBRANCH   2  12
TORSDOF 6
ENDMDL
MODEL 3
REMARK VINA RESULT:    -5.276      2.545      6.397
REMARK INTER + INTRA:          -7.973
REMARK INTER:                  -7.190
REMARK INTRA:                  -0.782
REMARK UNBOUND:                -0.846
REMARK  Name = 28552138
REMARK  10 active torsions:
REMARK  status: ('A' for Active; 'I' for Inactive)
REMARK    1  A    between atoms: N_2  and  C_7
REMARK    2  A    between atoms: N_2  and  C_11
REMARK    3  A    between atoms: N_2  and  C_12
REMARK    4  A    between atoms: N_3  and  C_8
REMARK    5  A    between atoms: N_3  and  C_13
REMARK    6  A    between atoms: C_6  and  C_7
REMARK    7  A    between atoms: C_6  and  C_8
REMARK    8  A    between atoms: C_6  and  C_9
REMARK    9  A    between atoms: C_6  and  C_10
REMARK   10  A    between atoms: C_14  and  C_16
REMARK                            x       y       z     vdW  Elec       q    Type
REMARK                         _______ _______ _______ _____ _____    ______ ____
ROOT
ATOM      1  N   UNL     1     -20.347  42.694 -15.833  0.00  0.00    +0.000 NA
ATOM      2  C   UNL     1     -19.408  43.559 -15.387  0.00  0.00    +0.000 A 
ATOM      3  C   UNL     1     -19.259  44.854 -15.859  0.00  0.00    +0.000 A 
ATOM      4  C   UNL     1     -20.131  45.288 -16.852  0.00  0.00    +0.000 A 
ATOM      5  C   UNL     1     -21.175  43.152 -16.799  0.00  0.00    +0.000 A 
ATOM      6  C   UNL     1     -21.109  44.428 -17.336  0.00  0.00    +0.000 A 
ENDROOT
BRANCH   3   9
ATOM      7  O   UNL     1     -18.401  46.410 -14.314  0.00  0.00    +0.000 OA
ATOM      8  N   UNL     1     -17.054  45.865 -16.089  0.00  0.00    +0.000 N 
ATOM      9  C   UNL     1     -18.236  45.762 -15.361  0.00  0.00    +0.000 C 
ATOM     10  H   UNL     1     -16.900  45.338 -16.942  0.00  0.00    +0.000 HD
ATOM     11  H   UNL     1     -16.306  46.478 -15.783  0.00  0.00    +0.000 HD
ENDBRANCH   3   9
BRANCH   2  12
ATOM     12  N   UNL     1     -18.543  43.118 -14.400  0.00  0.00    +0.000 N 
ATOM     13  H   UNL     1     -17.554  43.111 -14.626  0.00  0.00    +0.000 HD
BRANCH  12  14
ATOM     14  C   UNL     1     -18.933  42.920 -13.023  0.00  0.00    +0.000 C 
BRANCH  14  15
ATOM     15  C   UNL     1     -17.724  42.565 -12.120  0.00  0.00    +0.000 C 
ATOM     16  C   UNL     1     -17.639  43.556 -10.940  0.00  0.00    +0.000 C 
ATOM     17  C   UNL     1     -16.438  42.723 -12.958  0.00  0.00    +0.000 C 
BRANCH  15  18
ATOM     18  C   UNL     1     -17.819  41.127 -11.542  0.00  0.00    +0.000 C 
BRANCH  18  19
ATOM     19  N   UNL     1     -19.181  40.609 -11.457  0.00  0.00    +0.000 NA
ATOM     20  C   UNL     1     -19.612  40.522 -10.060  0.00  0.00    +0.000 C 
ATOM     21  C   UNL     1     -19.275  39.299 -12.101  0.00  0.00    +0.000 C 
ENDBRANCH  18  19
ENDBRANCH  15  18
ENDBRANCH  14  15
ENDBRANCH  12  14
ENDBRANCH   2  12
TORSDOF 6
ENDMDL
MODEL 4
REMARK VINA RESULT:    -4.454     13.164     14.555
REMARK INTER + INTRA:          -6.863
REMARK INTER:                  -5.722
REMARK INTRA:                  -1.141
REMARK UNBOUND:                -0.846
REMARK  Name = 28552138
REMARK  10 active torsions:
REMARK  status: ('A' for Active; 'I' for Inactive)
REMARK    1  A    between atoms: N_2  and  C_7
REMARK    2  A    between atoms: N_2  and  C_11
REMARK    3  A    between atoms: N_2  and  C_12
REMARK    4  A    between atoms: N_3  and  C_8
REMARK    5  A    between atoms: N_3  and  C_13
REMARK    6  A    between atoms: C_6  and  C_7
REMARK    7  A    between atoms: C_6  and  C_8
REMARK    8  A    between atoms: C_6  and  C_9
REMARK    9  A    between atoms: C_6  and  C_10
REMARK   10  A    between atoms: C_14  and  C_16
REMARK                            x       y       z     vdW  Elec       q    Type
REMARK                         _______ _______ _______ _____ _____    ______ ____
ROOT
ATOM      1  N   UNL     1     -33.050  42.498 -14.732  0.00  0.00    +0.000 NA
ATOM      2  C   UNL     1     -32.121  43.300 -15.299  0.00  0.00    +0.000 A 
ATOM      3  C   UNL     1     -31.618  44.447 -14.705  0.00  0.00    +0.000 A 
ATOM      4  C   UNL     1     -32.101  44.792 -13.447  0.00  0.00    +0.000 A 
ATOM      5  C   UNL     1     -33.495  42.865 -13.510  0.00  0.00    +0.000 A 
ATOM      6  C   UNL     1     -33.057  43.991 -12.831  0.00  0.00    +0.000 A 
ENDROOT
BRANCH   3   9
ATOM      7  O   UNL     1     -30.882  45.942 -16.368  0.00  0.00    +0.000 OA
ATOM      8  N   UNL     1     -29.362  45.366 -14.750  0.00  0.00    +0.000 N 
ATOM      9  C   UNL     1     -30.620  45.293 -15.342  0.00  0.00    +0.000 C 
ATOM     10  H   UNL     1     -29.132  44.847 -13.908  0.00  0.00    +0.000 HD
ATOM     11  H   UNL     1     -28.631  45.945 -15.149  0.00  0.00    +0.000 HD
ENDBRANCH   3   9
BRANCH   2  12
ATOM     12  N   UNL     1     -31.647  42.951 -16.553  0.00  0.00    +0.000 N 
ATOM     13  H   UNL     1     -30.672  42.681 -16.616  0.00  0.00    +0.000 HD
BRANCH  12  14
ATOM     14  C   UNL     1     -32.501  42.709 -17.693  0.00  0.00    +0.000 C 
BRANCH  14  15
ATOM     15  C   UNL     1     -31.810  41.822 -18.760  0.00  0.00    +0.000 C 
ATOM     16  C   UNL     1     -32.873  41.072 -19.591  0.00  0.00    +0.000 C 
ATOM     17  C   UNL     1     -30.957  40.766 -18.027  0.00  0.00    +0.000 C 
BRANCH  15  18
ATOM     18  C   UNL     1     -30.927  42.649 -19.735  0.00  0.00    +0.000 C 
BRANCH  18  19
ATOM     19  N   UNL     1     -30.815  44.061 -19.383  0.00  0.00    +0.000 NA
ATOM     20  C   UNL     1     -31.380  44.900 -20.442  0.00  0.00    +0.000 C 
ATOM     21  C   UNL     1     -29.419  44.422 -19.138  0.00  0.00    +0.000 C 
ENDBRANCH  18  19
ENDBRANCH  15  18
ENDBRANCH  14  15
ENDBRANCH  12  14
ENDBRANCH   2  12
TORSDOF 6
ENDMDL
MODEL 5
REMARK VINA RESULT:    -4.360      6.164      8.219
REMARK INTER + INTRA:          -6.736
REMARK INTER:                  -5.889
REMARK INTRA:                  -0.847
REMARK UNBOUND:                -0.846
REMARK  Name = 28552138
REMARK  10 active torsions:
REMARK  status: ('A' for Active; 'I' for Inactive)
REMARK    1  A    between atoms: N_2  and  C_7
REMARK    2  A    between atoms: N_2  and  C_11
REMARK    3  A    between atoms: N_2  and  C_12
REMARK    4  A    between atoms: N_3  and  C_8
REMARK    5  A    between atoms: N_3  and  C_13
REMARK    6  A    between atoms: C_6  and  C_7
REMARK    7  A    between atoms: C_6  and  C_8
REMARK    8  A    between atoms: C_6  and  C_9
REMARK    9  A    between atoms: C_6  and  C_10
REMARK   10  A    between atoms: C_14  and  C_16
REMARK                            x       y       z     vdW  Elec       q    Type
REMARK                         _______ _______ _______ _____ _____    ______ ____
ROOT
ATOM      1  N   UNL     1     -21.472  46.383 -18.088  0.00  0.00    +0.000 NA
ATOM      2  C   UNL     1     -20.854  45.281 -17.607  0.00  0.00    +0.000 A 
ATOM      3  C   UNL     1     -21.508  44.246 -16.956  0.00  0.00    +0.000 A 
ATOM      4  C   UNL     1     -22.884  44.351 -16.788  0.00  0.00    +0.000 A 
ATOM      5  C   UNL     1     -22.810  46.449 -17.905  0.00  0.00    +0.000 A 
ATOM      6  C   UNL     1     -23.555  45.469 -17.268  0.00  0.00    +0.000 A 
ENDROOT
BRANCH   3   9
ATOM      7  O   UNL     1     -20.398  42.186 -17.210  0.00  0.00    +0.000 OA
ATOM      8  N   UNL     1     -20.615  42.985 -15.072  0.00  0.00    +0.000 N 
ATOM      9  C   UNL     1     -20.814  43.072 -16.447  0.00  0.00    +0.000 C 
ATOM     10  H   UNL     1     -20.943  43.703 -14.434  0.00  0.00    +0.000 HD
ATOM     11  H   UNL     1     -20.132  42.192 -14.665  0.00  0.00    +0.000 HD
ENDBRANCH   3   9
BRANCH   2  12
ATOM     12  N   UNL     1     -19.483  45.185 -17.777  0.00  0.00    +0.000 N 
ATOM     13  H   UNL     1     -18.913  45.235 -16.940  0.00  0.00    +0.000 HD
BRANCH  12  14
ATOM     14  C   UNL     1     -18.856  44.772 -19.011  0.00  0.00    +0.000 C 
BRANCH  14  15
ATOM     15  C   UNL     1     -18.057  45.924 -19.672  0.00  0.00    +0.000 C 
ATOM     16  C   UNL     1     -18.976  46.730 -20.615  0.00  0.00    +0.000 C 
ATOM     17  C   UNL     1     -16.937  45.299 -20.531  0.00  0.00    +0.000 C 
BRANCH  15  18
ATOM     18  C   UNL     1     -17.453  46.902 -18.628  0.00  0.00    +0.000 C 
BRANCH  18  19
ATOM     19  N   UNL     1     -16.043  46.665 -18.337  0.00  0.00    +0.000 NA
ATOM     20  C   UNL     1     -15.860  46.328 -16.924  0.00  0.00    +0.000 C 
ATOM     21  C   UNL     1     -15.241  47.837 -18.689  0.00  0.00    +0.000 C 
ENDBRANCH  18  19
ENDBRANCH  15  18
ENDBRANCH  14  15
ENDBRANCH  12  14
ENDBRANCH   2  12
TORSDOF 6
ENDMDL
