MODEL 1
REMARK VINA RESULT:    -6.044      0.000      0.000
REMARK INTER + INTRA:          -9.368
REMARK INTER:                  -8.518
REMARK INTRA:                  -0.850
REMARK UNBOUND:                -0.850
REMARK  Name = 28554933
REMARK  9 active torsions:
REMARK  status: ('A' for Active; 'I' for Inactive)
REMARK    1  A    between atoms: N_2  and  C_6
REMARK    2  A    between atoms: N_2  and  C_8
REMARK    3  A    between atoms: N_2  and  C_9
REMARK    4  A    between atoms: N_3  and  C_7
REMARK    5  A    between atoms: N_3  and  C_12
REMARK    6  A    between atoms: C_6  and  C_7
REMARK    7  A    between atoms: C_8  and  C_10
REMARK    8  A    between atoms: C_9  and  C_11
REMARK    9  A    between atoms: C_13  and  C_15
REMARK                            x       y       z     vdW  Elec       q    Type
REMARK                         _______ _______ _______ _____ _____    ______ ____
ROOT
ATOM      1  N   UNL     1     -18.562  42.307  -8.366  0.00  0.00    +0.000 NA
ATOM      2  C   UNL     1     -18.263  41.599  -9.478  0.00  0.00    +0.000 A 
ATOM      3  C   UNL     1     -18.980  40.496  -9.911  0.00  0.00    +0.000 A 
ATOM      4  C   UNL     1     -20.076  40.092  -9.155  0.00  0.00    +0.000 A 
ATOM      5  C   UNL     1     -20.415  40.796  -8.004  0.00  0.00    +0.000 A 
ATOM      6  C   UNL     1     -19.633  41.885  -7.656  0.00  0.00    +0.000 A 
ENDROOT
BRANCH   3   9
ATOM      7  O   UNL     1     -17.451  39.463 -11.375  0.00  0.00    +0.000 OA
ATOM      8  N   UNL     1     -19.668  39.354 -11.951  0.00  0.00    +0.000 N 
ATOM      9  C   UNL     1     -18.631  39.751 -11.113  0.00  0.00    +0.000 C 
ATOM     10  H   UNL     1     -20.639  39.574 -11.749  0.00  0.00    +0.000 HD
ATOM     11  H   UNL     1     -19.482  38.827 -12.799  0.00  0.00    +0.000 HD
ENDBRANCH   3   9
BRANCH   2  12
ATOM     12  N   UNL     1     -17.168  42.004 -10.225  0.00  0.00    +0.000 N 
ATOM     13  H   UNL     1     -16.467  41.300 -10.432  0.00  0.00    +0.000 HD
BRANCH  12  14
ATOM     14  C   UNL     1     -17.152  43.194 -11.042  0.00  0.00    +0.000 C 
BRANCH  14  15
ATOM     15  C   UNL     1     -16.920  42.812 -12.498  0.00  0.00    +0.000 C 
BRANCH  15  16
ATOM     16  N   UNL     1     -17.874  43.504 -13.364  0.00  0.00    +0.000 NA
BRANCH  16  17
ATOM     17  C   UNL     1     -18.421  44.678 -12.685  0.00  0.00    +0.000 C 
ATOM     18  C   UNL     1     -18.069  45.956 -13.428  0.00  0.00    +0.000 C 
ENDBRANCH  16  17
BRANCH  16  19
ATOM     19  C   UNL     1     -18.950  42.599 -13.767  0.00  0.00    +0.000 C 
ATOM     20  C   UNL     1     -19.612  43.070 -15.050  0.00  0.00    +0.000 C 
ENDBRANCH  16  19
ENDBRANCH  15  16
ENDBRANCH  14  15
ENDBRANCH  12  14
ENDBRANCH   2  12
TORSDOF 7
ENDMDL
MODEL 2
REMARK VINA RESULT:    -5.929      1.190      1.897
REMARK INTER + INTRA:          -9.205
REMARK INTER:                  -8.384
REMARK INTRA:                  -0.821
REMARK UNBOUND:                -0.850
REMARK  Name = 28554933
REMARK  9 active torsions:
REMARK  status: ('A' for Active; 'I' for Inactive)
REMARK    1  A    between atoms: N_2  and  C_6
REMARK    2  A    between atoms: N_2  and  C_8
REMARK    3  A    between atoms: N_2  and  C_9
REMARK    4  A    between atoms: N_3  and  C_7
REMARK    5  A    between atoms: N_3  and  C_12
REMARK    6  A    between atoms: C_6  and  C_7
REMARK    7  A    between atoms: C_8  and  C_10
REMARK    8  A    between atoms: C_9  and  C_11
REMARK    9  A    between atoms: C_13  and  C_15
REMARK                            x       y       z     vdW  Elec       q    Type
REMARK                         _______ _______ _______ _____ _____    ______ ____
ROOT
ATOM      1  N   UNL     1     -18.542  42.297  -8.292  0.00  0.00    +0.000 NA
ATOM      2  C   UNL     1     -18.437  41.634  -9.465  0.00  0.00    +0.000 A 
ATOM      3  C   UNL     1     -19.344  40.682  -9.901  0.00  0.00    +0.000 A 
ATOM      4  C   UNL     1     -20.429  40.391  -9.081  0.00  0.00    +0.000 A 
ATOM      5  C   UNL     1     -20.570  41.053  -7.866  0.00  0.00    +0.000 A 
ATOM      6  C   UNL     1     -19.609  41.988  -7.521  0.00  0.00    +0.000 A 
ENDROOT
BRANCH   3   9
ATOM      7  O   UNL     1     -18.365  39.075 -11.318  0.00  0.00    +0.000 OA
ATOM      8  N   UNL     1     -20.053  40.347 -12.208  0.00  0.00    +0.000 N 
ATOM      9  C   UNL     1     -19.203  39.981 -11.170  0.00  0.00    +0.000 C 
ATOM     10  H   UNL     1     -20.749  41.080 -12.103  0.00  0.00    +0.000 HD
ATOM     11  H   UNL     1     -20.002  39.888 -13.112  0.00  0.00    +0.000 HD
ENDBRANCH   3   9
BRANCH   2  12
ATOM     12  N   UNL     1     -17.352  41.925 -10.276  0.00  0.00    +0.000 N 
ATOM     13  H   UNL     1     -16.867  41.139 -10.695  0.00  0.00    +0.000 HD
BRANCH  12  14
ATOM     14  C   UNL     1     -17.123  43.220 -10.874  0.00  0.00    +0.000 C 
BRANCH  14  15
ATOM     15  C   UNL     1     -17.928  43.340 -12.161  0.00  0.00    +0.000 C 
BRANCH  15  16
ATOM     16  N   UNL     1     -18.023  44.740 -12.574  0.00  0.00    +0.000 NA
BRANCH  16  17
ATOM     17  C   UNL     1     -17.497  44.909 -13.928  0.00  0.00    +0.000 C 
ATOM     18  C   UNL     1     -15.995  45.139 -13.909  0.00  0.00    +0.000 C 
ENDBRANCH  16  17
BRANCH  16  19
ATOM     19  C   UNL     1     -17.303  45.600 -11.635  0.00  0.00    +0.000 C 
ATOM     20  C   UNL     1     -18.074  46.880 -11.363  0.00  0.00    +0.000 C 
ENDBRANCH  16  19
ENDBRANCH  15  16
ENDBRANCH  14  15
ENDBRANCH  12  14
ENDBRANCH   2  12
TORSDOF 7
ENDMDL
MODEL 3
REMARK VINA RESULT:    -5.689      1.907      5.212
REMARK INTER + INTRA:          -8.867
REMARK INTER:                  -8.504
REMARK INTRA:                  -0.363
REMARK UNBOUND:                -0.850
REMARK  Name = 28554933
REMARK  9 active torsions:
REMARK  status: ('A' for Active; 'I' for Inactive)
REMARK    1  A    between atoms: N_2  and  C_6
REMARK    2  A    between atoms: N_2  and  C_8
REMARK    3  A    between atoms: N_2  and  C_9
REMARK    4  A    between atoms: N_3  and  C_7
REMARK    5  A    between atoms: N_3  and  C_12
REMARK    6  A    between atoms: C_6  and  C_7
REMARK    7  A    between atoms: C_8  and  C_10
REMARK    8  A    between atoms: C_9  and  C_11
REMARK    9  A    between atoms: C_13  and  C_15
REMARK                            x       y       z     vdW  Elec       q    Type
REMARK                         _______ _______ _______ _____ _____    ______ ____
ROOT
ATOM      1  N   UNL     1     -17.526  43.128 -10.419  0.00  0.00    +0.000 NA
ATOM      2  C   UNL     1     -18.258  42.003 -10.583  0.00  0.00    +0.000 A 
ATOM      3  C   UNL     1     -18.205  41.203 -11.713  0.00  0.00    +0.000 A 
ATOM      4  C   UNL     1     -17.348  41.580 -12.741  0.00  0.00    +0.000 A 
ATOM      5  C   UNL     1     -16.579  42.732 -12.608  0.00  0.00    +0.000 A 
ATOM      6  C   UNL     1     -16.704  43.464 -11.439  0.00  0.00    +0.000 A 
ENDROOT
BRANCH   3   9
ATOM      7  O   UNL     1     -18.757  38.968 -11.212  0.00  0.00    +0.000 OA
ATOM      8  N   UNL     1     -20.083  40.042 -12.744  0.00  0.00    +0.000 N 
ATOM      9  C   UNL     1     -19.009  39.997 -11.862  0.00  0.00    +0.000 C 
ATOM     10  H   UNL     1     -20.308  40.877 -13.278  0.00  0.00    +0.000 HD
ATOM     11  H   UNL     1     -20.680  39.233 -12.882  0.00  0.00    +0.000 HD
ENDBRANCH   3   9
BRANCH   2  12
ATOM     12  N   UNL     1     -19.112  41.635  -9.557  0.00  0.00    +0.000 N 
ATOM     13  H   UNL     1     -20.102  41.587  -9.778  0.00  0.00    +0.000 HD
BRANCH  12  14
ATOM     14  C   UNL     1     -18.681  40.946  -8.363  0.00  0.00    +0.000 C 
BRANCH  14  15
ATOM     15  C   UNL     1     -19.645  41.247  -7.223  0.00  0.00    +0.000 C 
BRANCH  15  16
ATOM     16  N   UNL     1     -20.947  41.656  -7.751  0.00  0.00    +0.000 NA
BRANCH  16  17
ATOM     17  C   UNL     1     -21.593  42.599  -6.839  0.00  0.00    +0.000 C 
ATOM     18  C   UNL     1     -21.206  42.321  -5.396  0.00  0.00    +0.000 C 
ENDBRANCH  16  17
BRANCH  16  19
ATOM     19  C   UNL     1     -21.800  40.489  -7.969  0.00  0.00    +0.000 C 
ATOM     20  C   UNL     1     -23.224  40.757  -7.513  0.00  0.00    +0.000 C 
ENDBRANCH  16  19
ENDBRANCH  15  16
ENDBRANCH  14  15
ENDBRANCH  12  14
ENDBRANCH   2  12
TORSDOF 7
ENDMDL
MODEL 4
REMARK VINA RESULT:    -5.092      2.975      4.659
REMARK INTER + INTRA:          -8.026
REMARK INTER:                  -7.385
REMARK INTRA:                  -0.641
REMARK UNBOUND:                -0.850
REMARK  Name = 28554933
REMARK  9 active torsions:
REMARK  status: ('A' for Active; 'I' for Inactive)
REMARK    1  A    between atoms: N_2  and  C_6
REMARK    2  A    between atoms: N_2  and  C_8
REMARK    3  A    between atoms: N_2  and  C_9
REMARK    4  A    between atoms: N_3  and  C_7
REMARK    5  A    between atoms: N_3  and  C_12
REMARK    6  A    between atoms: C_6  and  C_7
REMARK    7  A    between atoms: C_8  and  C_10
REMARK    8  A    between atoms: C_9  and  C_11
REMARK    9  A    between atoms: C_13  and  C_15
REMARK                            x       y       z     vdW  Elec       q    Type
REMARK                         _______ _______ _______ _____ _____    ______ ____
ROOT
ATOM      1  N   UNL     1     -18.584  44.072 -13.128  0.00  0.00    +0.000 NA
ATOM      2  C   UNL     1     -18.566  42.747 -13.396  0.00  0.00    +0.000 A 
ATOM      3  C   UNL     1     -17.857  41.815 -12.655  0.00  0.00    +0.000 A 
ATOM      4  C   UNL     1     -17.119  42.271 -11.568  0.00  0.00    +0.000 A 
ATOM      5  C   UNL     1     -17.112  43.628 -11.261  0.00  0.00    +0.000 A 
ATOM      6  C   UNL     1     -17.854  44.479 -12.064  0.00  0.00    +0.000 A 
ENDROOT
BRANCH   3   9
ATOM      7  O   UNL     1     -18.916  39.760 -13.108  0.00  0.00    +0.000 OA
ATOM      8  N   UNL     1     -16.623  39.770 -13.135  0.00  0.00    +0.000 N 
ATOM      9  C   UNL     1     -17.855  40.393 -12.971  0.00  0.00    +0.000 C 
ATOM     10  H   UNL     1     -15.746  40.274 -13.034  0.00  0.00    +0.000 HD
ATOM     11  H   UNL     1     -16.563  38.783 -13.362  0.00  0.00    +0.000 HD
ENDBRANCH   3   9
BRANCH   2  12
ATOM     12  N   UNL     1     -19.301  42.299 -14.482  0.00  0.00    +0.000 N 
ATOM     13  H   UNL     1     -19.275  41.303 -14.675  0.00  0.00    +0.000 HD
BRANCH  12  14
ATOM     14  C   UNL     1     -20.380  43.047 -15.083  0.00  0.00    +0.000 C 
BRANCH  14  15
ATOM     15  C   UNL     1     -20.144  43.169 -16.583  0.00  0.00    +0.000 C 
BRANCH  15  16
ATOM     16  N   UNL     1     -20.833  44.346 -17.112  0.00  0.00    +0.000 NA
BRANCH  16  17
ATOM     17  C   UNL     1     -22.282  44.155 -17.062  0.00  0.00    +0.000 C 
ATOM     18  C   UNL     1     -23.016  45.473 -17.242  0.00  0.00    +0.000 C 
ENDBRANCH  16  17
BRANCH  16  19
ATOM     19  C   UNL     1     -20.400  44.619 -18.482  0.00  0.00    +0.000 C 
ATOM     20  C   UNL     1     -19.023  44.037 -18.749  0.00  0.00    +0.000 C 
ENDBRANCH  16  19
ENDBRANCH  15  16
ENDBRANCH  14  15
ENDBRANCH  12  14
ENDBRANCH   2  12
TORSDOF 7
ENDMDL
MODEL 5
REMARK VINA RESULT:    -5.049      2.779      4.540
REMARK INTER + INTRA:          -7.964
REMARK INTER:                  -7.303
REMARK INTRA:                  -0.662
REMARK UNBOUND:                -0.850
REMARK  Name = 28554933
REMARK  9 active torsions:
REMARK  status: ('A' for Active; 'I' for Inactive)
REMARK    1  A    between atoms: N_2  and  C_6
REMARK    2  A    between atoms: N_2  and  C_8
REMARK    3  A    between atoms: N_2  and  C_9
REMARK    4  A    between atoms: N_3  and  C_7
REMARK    5  A    between atoms: N_3  and  C_12
REMARK    6  A    between atoms: C_6  and  C_7
REMARK    7  A    between atoms: C_8  and  C_10
REMARK    8  A    between atoms: C_9  and  C_11
REMARK    9  A    between atoms: C_13  and  C_15
REMARK                            x       y       z     vdW  Elec       q    Type
REMARK                         _______ _______ _______ _____ _____    ______ ____
ROOT
ATOM      1  N   UNL     1     -19.211  40.401 -13.166  0.00  0.00    +0.000 NA
ATOM      2  C   UNL     1     -18.412  41.491 -13.141  0.00  0.00    +0.000 A 
ATOM      3  C   UNL     1     -17.504  41.764 -12.132  0.00  0.00    +0.000 A 
ATOM      4  C   UNL     1     -17.408  40.860 -11.079  0.00  0.00    +0.000 A 
ATOM      5  C   UNL     1     -18.215  39.727 -11.069  0.00  0.00    +0.000 A 
ATOM      6  C   UNL     1     -19.092  39.545 -12.126  0.00  0.00    +0.000 A 
ENDROOT
BRANCH   3   9
ATOM      7  O   UNL     1     -17.129  44.080 -11.918  0.00  0.00    +0.000 OA
ATOM      8  N   UNL     1     -15.297  42.772 -12.359  0.00  0.00    +0.000 N 
ATOM      9  C   UNL     1     -16.658  42.950 -12.131  0.00  0.00    +0.000 C 
ATOM     10  H   UNL     1     -14.894  41.855 -12.527  0.00  0.00    +0.000 HD
ATOM     11  H   UNL     1     -14.661  43.563 -12.364  0.00  0.00    +0.000 HD
ENDBRANCH   3   9
BRANCH   2  12
ATOM     12  N   UNL     1     -18.514  42.389 -14.191  0.00  0.00    +0.000 N 
ATOM     13  H   UNL     1     -17.799  42.340 -14.909  0.00  0.00    +0.000 HD
BRANCH  12  14
ATOM     14  C   UNL     1     -19.733  43.083 -14.537  0.00  0.00    +0.000 C 
BRANCH  14  15
ATOM     15  C   UNL     1     -19.924  43.060 -16.048  0.00  0.00    +0.000 C 
BRANCH  15  16
ATOM     16  N   UNL     1     -20.754  44.186 -16.474  0.00  0.00    +0.000 NA
BRANCH  16  17
ATOM     17  C   UNL     1     -22.083  43.720 -16.865  0.00  0.00    +0.000 C 
ATOM     18  C   UNL     1     -23.054  44.882 -17.001  0.00  0.00    +0.000 C 
ENDBRANCH  16  17
BRANCH  16  19
ATOM     19  C   UNL     1     -20.117  44.901 -17.579  0.00  0.00    +0.000 C 
ATOM     20  C   UNL     1     -19.283  43.962 -18.433  0.00  0.00    +0.000 C 
ENDBRANCH  16  19
ENDBRANCH  15  16
ENDBRANCH  14  15
ENDBRANCH  12  14
ENDBRANCH   2  12
TORSDOF 7
ENDMDL
