MODEL 1
REMARK VINA RESULT:    -6.143      0.000      0.000
REMARK INTER + INTRA:          -8.701
REMARK INTER:                  -7.938
REMARK INTRA:                  -0.762
REMARK UNBOUND:                -0.762
REMARK  Name = 29033621
REMARK  7 active torsions:
REMARK  status: ('A' for Active; 'I' for Inactive)
REMARK    1  A    between atoms: N_2  and  C_5
REMARK    2  A    between atoms: N_2  and  C_10
REMARK    3  A    between atoms: C_5  and  C_6
REMARK    4  A    between atoms: C_5  and  C_7
REMARK    5  A    between atoms: C_6  and  C_8
REMARK    6  A    between atoms: C_7  and  C_9
REMARK    7  A    between atoms: C_11  and  C_13
REMARK                            x       y       z     vdW  Elec       q    Type
REMARK                         _______ _______ _______ _____ _____    ______ ____
ROOT
ATOM      1  N   UNL     1     -18.441  42.246  -8.339  0.00  0.00    +0.000 NA
ATOM      2  C   UNL     1     -18.353  41.547  -9.493  0.00  0.00    +0.000 A 
ATOM      3  C   UNL     1     -19.314  40.652  -9.932  0.00  0.00    +0.000 A 
ATOM      4  C   UNL     1     -20.439  40.461  -9.137  0.00  0.00    +0.000 A 
ATOM      5  C   UNL     1     -19.547  42.035  -7.592  0.00  0.00    +0.000 A 
ATOM      6  C   UNL     1     -20.565  41.162  -7.942  0.00  0.00    +0.000 A 
ENDROOT
BRANCH   3   9
ATOM      7  O   UNL     1     -18.360  38.994 -11.307  0.00  0.00    +0.000 OA
ATOM      8  N   UNL     1     -20.047  40.250 -12.221  0.00  0.00    +0.000 N 
ATOM      9  C   UNL     1     -19.190  39.910 -11.180  0.00  0.00    +0.000 C 
ATOM     10  H   UNL     1     -20.736  40.990 -12.133  0.00  0.00    +0.000 HD
ATOM     11  H   UNL     1     -20.007  39.762 -13.109  0.00  0.00    +0.000 HD
ENDBRANCH   3   9
BRANCH   2  12
ATOM     12  N   UNL     1     -17.231  41.740 -10.278  0.00  0.00    +0.000 N 
ATOM     13  H   UNL     1     -16.813  40.914 -10.693  0.00  0.00    +0.000 HD
BRANCH  12  14
ATOM     14  C   UNL     1     -16.904  43.003 -10.909  0.00  0.00    +0.000 C 
BRANCH  14  15
ATOM     15  C   UNL     1     -17.953  43.323 -11.985  0.00  0.00    +0.000 C 
ATOM     16  C   UNL     1     -17.669  42.628 -13.310  0.00  0.00    +0.000 C 
ENDBRANCH  14  15
BRANCH  14  17
ATOM     17  C   UNL     1     -15.501  42.920 -11.530  0.00  0.00    +0.000 C 
ATOM     18  C   UNL     1     -14.908  44.291 -11.830  0.00  0.00    +0.000 C 
ENDBRANCH  14  17
ENDBRANCH  12  14
ENDBRANCH   2  12
TORSDOF 5
ENDMDL
MODEL 2
REMARK VINA RESULT:    -5.100      1.858      3.107
REMARK INTER + INTRA:          -7.353
REMARK INTER:                  -6.999
REMARK INTRA:                  -0.353
REMARK UNBOUND:                -0.762
REMARK  Name = 29033621
REMARK  7 active torsions:
REMARK  status: ('A' for Active; 'I' for Inactive)
REMARK    1  A    between atoms: N_2  and  C_5
REMARK    2  A    between atoms: N_2  and  C_10
REMARK    3  A    between atoms: C_5  and  C_6
REMARK    4  A    between atoms: C_5  and  C_7
REMARK    5  A    between atoms: C_6  and  C_8
REMARK    6  A    between atoms: C_7  and  C_9
REMARK    7  A    between atoms: C_11  and  C_13
REMARK                            x       y       z     vdW  Elec       q    Type
REMARK                         _______ _______ _______ _____ _____    ______ ____
ROOT
ATOM      1  N   UNL     1     -17.264  40.648 -12.438  0.00  0.00    +0.000 NA
ATOM      2  C   UNL     1     -17.381  41.121 -11.178  0.00  0.00    +0.000 A 
ATOM      3  C   UNL     1     -18.373  40.732 -10.292  0.00  0.00    +0.000 A 
ATOM      4  C   UNL     1     -19.305  39.797 -10.728  0.00  0.00    +0.000 A 
ATOM      5  C   UNL     1     -18.188  39.741 -12.828  0.00  0.00    +0.000 A 
ATOM      6  C   UNL     1     -19.218  39.287 -12.019  0.00  0.00    +0.000 A 
ENDROOT
BRANCH   3   9
ATOM      7  O   UNL     1     -18.268  42.464  -8.700  0.00  0.00    +0.000 OA
ATOM      8  N   UNL     1     -18.830  40.380  -7.925  0.00  0.00    +0.000 N 
ATOM      9  C   UNL     1     -18.474  41.262  -8.940  0.00  0.00    +0.000 C 
ATOM     10  H   UNL     1     -19.010  39.397  -8.103  0.00  0.00    +0.000 HD
ATOM     11  H   UNL     1     -18.922  40.697  -6.966  0.00  0.00    +0.000 HD
ENDBRANCH   3   9
BRANCH   2  12
ATOM     12  N   UNL     1     -16.452  42.052 -10.751  0.00  0.00    +0.000 N 
ATOM     13  H   UNL     1     -15.623  41.696 -10.287  0.00  0.00    +0.000 HD
BRANCH  12  14
ATOM     14  C   UNL     1     -16.345  43.388 -11.306  0.00  0.00    +0.000 C 
BRANCH  14  15
ATOM     15  C   UNL     1     -17.639  43.733 -12.059  0.00  0.00    +0.000 C 
ATOM     16  C   UNL     1     -18.020  45.202 -11.934  0.00  0.00    +0.000 C 
ENDBRANCH  14  15
BRANCH  14  17
ATOM     17  C   UNL     1     -15.136  43.458 -12.250  0.00  0.00    +0.000 C 
ATOM     18  C   UNL     1     -14.036  44.375 -11.731  0.00  0.00    +0.000 C 
ENDBRANCH  14  17
ENDBRANCH  12  14
ENDBRANCH   2  12
TORSDOF 5
ENDMDL
MODEL 3
REMARK VINA RESULT:    -5.070      1.982      4.832
REMARK INTER + INTRA:          -7.315
REMARK INTER:                  -6.545
REMARK INTRA:                  -0.769
REMARK UNBOUND:                -0.762
REMARK  Name = 29033621
REMARK  7 active torsions:
REMARK  status: ('A' for Active; 'I' for Inactive)
REMARK    1  A    between atoms: N_2  and  C_5
REMARK    2  A    between atoms: N_2  and  C_10
REMARK    3  A    between atoms: C_5  and  C_6
REMARK    4  A    between atoms: C_5  and  C_7
REMARK    5  A    between atoms: C_6  and  C_8
REMARK    6  A    between atoms: C_7  and  C_9
REMARK    7  A    between atoms: C_11  and  C_13
REMARK                            x       y       z     vdW  Elec       q    Type
REMARK                         _______ _______ _______ _____ _____    ______ ____
ROOT
ATOM      1  N   UNL     1     -15.828  42.549 -10.924  0.00  0.00    +0.000 NA
ATOM      2  C   UNL     1     -17.066  42.665 -11.454  0.00  0.00    +0.000 A 
ATOM      3  C   UNL     1     -17.351  43.368 -12.613  0.00  0.00    +0.000 A 
ATOM      4  C   UNL     1     -16.297  43.994 -13.271  0.00  0.00    +0.000 A 
ATOM      5  C   UNL     1     -14.829  43.170 -11.590  0.00  0.00    +0.000 A 
ATOM      6  C   UNL     1     -15.009  43.898 -12.756  0.00  0.00    +0.000 A 
ENDROOT
BRANCH   3   9
ATOM      7  O   UNL     1     -19.345  42.469 -13.486  0.00  0.00    +0.000 OA
ATOM      8  N   UNL     1     -19.242  44.751 -13.283  0.00  0.00    +0.000 N 
ATOM      9  C   UNL     1     -18.697  43.477 -13.159  0.00  0.00    +0.000 C 
ATOM     10  H   UNL     1     -18.730  45.585 -13.014  0.00  0.00    +0.000 HD
ATOM     11  H   UNL     1     -20.177  44.884 -13.651  0.00  0.00    +0.000 HD
ENDBRANCH   3   9
BRANCH   2  12
ATOM     12  N   UNL     1     -18.109  42.042 -10.794  0.00  0.00    +0.000 N 
ATOM     13  H   UNL     1     -19.042  42.407 -10.960  0.00  0.00    +0.000 HD
BRANCH  12  14
ATOM     14  C   UNL     1     -18.039  40.687 -10.284  0.00  0.00    +0.000 C 
BRANCH  14  15
ATOM     15  C   UNL     1     -17.872  39.709 -11.457  0.00  0.00    +0.000 C 
ATOM     16  C   UNL     1     -19.201  39.300 -12.077  0.00  0.00    +0.000 C 
ENDBRANCH  14  15
BRANCH  14  17
ATOM     17  C   UNL     1     -19.316  40.367  -9.492  0.00  0.00    +0.000 C 
ATOM     18  C   UNL     1     -19.224  40.790  -8.031  0.00  0.00    +0.000 C 
ENDBRANCH  14  17
ENDBRANCH  12  14
ENDBRANCH   2  12
TORSDOF 5
ENDMDL
MODEL 4
REMARK VINA RESULT:    -5.037      2.855      4.117
REMARK INTER + INTRA:          -7.272
REMARK INTER:                  -6.507
REMARK INTRA:                  -0.765
REMARK UNBOUND:                -0.762
REMARK  Name = 29033621
REMARK  7 active torsions:
REMARK  status: ('A' for Active; 'I' for Inactive)
REMARK    1  A    between atoms: N_2  and  C_5
REMARK    2  A    between atoms: N_2  and  C_10
REMARK    3  A    between atoms: C_5  and  C_6
REMARK    4  A    between atoms: C_5  and  C_7
REMARK    5  A    between atoms: C_6  and  C_8
REMARK    6  A    between atoms: C_7  and  C_9
REMARK    7  A    between atoms: C_11  and  C_13
REMARK                            x       y       z     vdW  Elec       q    Type
REMARK                         _______ _______ _______ _____ _____    ______ ____
ROOT
ATOM      1  N   UNL     1     -19.131  40.683 -13.244  0.00  0.00    +0.000 NA
ATOM      2  C   UNL     1     -18.110  41.490 -12.879  0.00  0.00    +0.000 A 
ATOM      3  C   UNL     1     -17.331  41.291 -11.750  0.00  0.00    +0.000 A 
ATOM      4  C   UNL     1     -17.619  40.194 -10.945  0.00  0.00    +0.000 A 
ATOM      5  C   UNL     1     -19.381  39.627 -12.438  0.00  0.00    +0.000 A 
ATOM      6  C   UNL     1     -18.662  39.341 -11.289  0.00  0.00    +0.000 A 
ENDROOT
BRANCH   3   9
ATOM      7  O   UNL     1     -16.446  43.368 -11.079  0.00  0.00    +0.000 OA
ATOM      8  N   UNL     1     -14.954  41.648 -11.355  0.00  0.00    +0.000 N 
ATOM      9  C   UNL     1     -16.239  42.180 -11.380  0.00  0.00    +0.000 C 
ATOM     10  H   UNL     1     -14.766  40.679 -11.589  0.00  0.00    +0.000 HD
ATOM     11  H   UNL     1     -14.157  42.222 -11.098  0.00  0.00    +0.000 HD
ENDBRANCH   3   9
BRANCH   2  12
ATOM     12  N   UNL     1     -17.831  42.580 -13.682  0.00  0.00    +0.000 N 
ATOM     13  H   UNL     1     -17.116  42.458 -14.391  0.00  0.00    +0.000 HD
BRANCH  12  14
ATOM     14  C   UNL     1     -18.759  43.673 -13.897  0.00  0.00    +0.000 C 
BRANCH  14  15
ATOM     15  C   UNL     1     -19.302  43.606 -15.333  0.00  0.00    +0.000 C 
ATOM     16  C   UNL     1     -20.743  43.116 -15.395  0.00  0.00    +0.000 C 
ENDBRANCH  14  15
BRANCH  14  17
ATOM     17  C   UNL     1     -18.044  45.010 -13.653  0.00  0.00    +0.000 C 
ATOM     18  C   UNL     1     -18.583  45.754 -12.438  0.00  0.00    +0.000 C 
ENDBRANCH  14  17
ENDBRANCH  12  14
ENDBRANCH   2  12
TORSDOF 5
ENDMDL
MODEL 5
REMARK VINA RESULT:    -4.986      1.650      4.824
REMARK INTER + INTRA:          -7.206
REMARK INTER:                  -6.465
REMARK INTRA:                  -0.741
REMARK UNBOUND:                -0.762
REMARK  Name = 29033621
REMARK  7 active torsions:
REMARK  status: ('A' for Active; 'I' for Inactive)
REMARK    1  A    between atoms: N_2  and  C_5
REMARK    2  A    between atoms: N_2  and  C_10
REMARK    3  A    between atoms: C_5  and  C_6
REMARK    4  A    between atoms: C_5  and  C_7
REMARK    5  A    between atoms: C_6  and  C_8
REMARK    6  A    between atoms: C_7  and  C_9
REMARK    7  A    between atoms: C_11  and  C_13
REMARK                            x       y       z     vdW  Elec       q    Type
REMARK                         _______ _______ _______ _____ _____    ______ ____
ROOT
ATOM      1  N   UNL     1     -18.448  43.385 -11.738  0.00  0.00    +0.000 NA
ATOM      2  C   UNL     1     -17.632  42.387 -11.331  0.00  0.00    +0.000 A 
ATOM      3  C   UNL     1     -16.338  42.206 -11.793  0.00  0.00    +0.000 A 
ATOM      4  C   UNL     1     -15.849  43.109 -12.732  0.00  0.00    +0.000 A 
ATOM      5  C   UNL     1     -17.939  44.243 -12.650  0.00  0.00    +0.000 A 
ATOM      6  C   UNL     1     -16.659  44.150 -13.174  0.00  0.00    +0.000 A 
ENDROOT
BRANCH   3   9
ATOM      7  O   UNL     1     -15.872  39.938 -11.365  0.00  0.00    +0.000 OA
ATOM      8  N   UNL     1     -14.207  41.443 -10.891  0.00  0.00    +0.000 N 
ATOM      9  C   UNL     1     -15.484  41.118 -11.338  0.00  0.00    +0.000 C 
ATOM     10  H   UNL     1     -13.871  42.400 -10.870  0.00  0.00    +0.000 HD
ATOM     11  H   UNL     1     -13.569  40.723 -10.569  0.00  0.00    +0.000 HD
ENDBRANCH   3   9
BRANCH   2  12
ATOM     12  N   UNL     1     -18.125  41.492 -10.400  0.00  0.00    +0.000 N 
ATOM     13  H   UNL     1     -17.759  41.562  -9.456  0.00  0.00    +0.000 HD
BRANCH  12  14
ATOM     14  C   UNL     1     -19.398  40.812 -10.539  0.00  0.00    +0.000 C 
BRANCH  14  15
ATOM     15  C   UNL     1     -20.047  40.655  -9.155  0.00  0.00    +0.000 C 
ATOM     16  C   UNL     1     -19.063  40.881  -8.014  0.00  0.00    +0.000 C 
ENDBRANCH  14  15
BRANCH  14  17
ATOM     17  C   UNL     1     -19.180  39.439 -11.192  0.00  0.00    +0.000 C 
ATOM     18  C   UNL     1     -19.122  39.512 -12.712  0.00  0.00    +0.000 C 
ENDBRANCH  14  17
ENDBRANCH  12  14
ENDBRANCH   2  12
TORSDOF 5
ENDMDL
