MODEL 1
REMARK VINA RESULT:    -6.482      0.000      0.000
REMARK INTER + INTRA:          -8.735
REMARK INTER:                  -7.997
REMARK INTRA:                  -0.738
REMARK UNBOUND:                -0.738
REMARK  Name = 29038516
REMARK  4 active torsions:
REMARK  status: ('A' for Active; 'I' for Inactive)
REMARK    1  A    between atoms: N_5  and  C_8
REMARK    2  A    between atoms: N_5  and  C_9
REMARK    3  A    between atoms: C_8  and  C_11
REMARK    4  A    between atoms: C_10  and  C_14
REMARK                            x       y       z     vdW  Elec       q    Type
REMARK                         _______ _______ _______ _____ _____    ______ ____
ROOT
ATOM      1  N   UNL     1     -18.492  42.269  -8.317  0.00  0.00    +0.000 NA
ATOM      2  C   UNL     1     -18.415  41.597  -9.487  0.00  0.00    +0.000 A 
ATOM      3  C   UNL     1     -19.356  40.673  -9.912  0.00  0.00    +0.000 A 
ATOM      4  C   UNL     1     -20.445  40.424  -9.085  0.00  0.00    +0.000 A 
ATOM      5  C   UNL     1     -20.559  41.097  -7.873  0.00  0.00    +0.000 A 
ATOM      6  C   UNL     1     -19.564  42.002  -7.539  0.00  0.00    +0.000 A 
ENDROOT
BRANCH   3   9
ATOM      7  O   UNL     1     -18.502  38.971 -11.299  0.00  0.00    +0.000 OA
ATOM      8  N   UNL     1     -20.012  40.415 -12.244  0.00  0.00    +0.000 N 
ATOM      9  C   UNL     1     -19.244  39.960 -11.178  0.00  0.00    +0.000 C 
ATOM     10  H   UNL     1     -20.630  41.217 -12.162  0.00  0.00    +0.000 HD
ATOM     11  H   UNL     1     -19.978  39.952 -13.147  0.00  0.00    +0.000 HD
ENDBRANCH   3   9
BRANCH   2  12
ATOM     12  N   UNL     1     -17.300  41.854 -10.324  0.00  0.00    +0.000 N 
ATOM     13  H   UNL     1     -16.712  41.056 -10.541  0.00  0.00    +0.000 HD
BRANCH  12  14
ATOM     14  C   UNL     1     -17.240  42.977 -11.202  0.00  0.00    +0.000 C 
BRANCH  14  18
ATOM     15  F   UNL     1     -15.866  43.198 -13.114  0.00  0.00    +0.000 F 
ATOM     16  F   UNL     1     -16.598  41.207 -12.612  0.00  0.00    +0.000 F 
ATOM     17  F   UNL     1     -17.969  42.692 -13.433  0.00  0.00    +0.000 F 
ATOM     18  C   UNL     1     -16.917  42.521 -12.603  0.00  0.00    +0.000 C 
ENDBRANCH  14  18
ENDBRANCH  12  14
ENDBRANCH   2  12
TORSDOF 4
ENDMDL
MODEL 2
REMARK VINA RESULT:    -6.274      3.413      4.874
REMARK INTER + INTRA:          -8.479
REMARK INTER:                  -7.897
REMARK INTRA:                  -0.582
REMARK UNBOUND:                -0.738
REMARK  Name = 29038516
REMARK  4 active torsions:
REMARK  status: ('A' for Active; 'I' for Inactive)
REMARK    1  A    between atoms: N_5  and  C_8
REMARK    2  A    between atoms: N_5  and  C_9
REMARK    3  A    between atoms: C_8  and  C_11
REMARK    4  A    between atoms: C_10  and  C_14
REMARK                            x       y       z     vdW  Elec       q    Type
REMARK                         _______ _______ _______ _____ _____    ______ ____
ROOT
ATOM      1  N   UNL     1     -19.013  39.677 -10.772  0.00  0.00    +0.000 NA
ATOM      2  C   UNL     1     -17.968  40.501 -10.541  0.00  0.00    +0.000 A 
ATOM      3  C   UNL     1     -17.092  40.936 -11.522  0.00  0.00    +0.000 A 
ATOM      4  C   UNL     1     -17.303  40.498 -12.825  0.00  0.00    +0.000 A 
ATOM      5  C   UNL     1     -18.369  39.649 -13.102  0.00  0.00    +0.000 A 
ATOM      6  C   UNL     1     -19.188  39.271 -12.049  0.00  0.00    +0.000 A 
ENDROOT
BRANCH   3   9
ATOM      7  O   UNL     1     -16.138  43.044 -11.074  0.00  0.00    +0.000 OA
ATOM      8  N   UNL     1     -14.706  41.255 -11.149  0.00  0.00    +0.000 N 
ATOM      9  C   UNL     1     -15.971  41.823 -11.242  0.00  0.00    +0.000 C 
ATOM     10  H   UNL     1     -14.551  40.259 -11.276  0.00  0.00    +0.000 HD
ATOM     11  H   UNL     1     -13.890  41.825 -10.949  0.00  0.00    +0.000 HD
ENDBRANCH   3   9
BRANCH   2  12
ATOM     12  N   UNL     1     -17.757  40.942  -9.210  0.00  0.00    +0.000 N 
ATOM     13  H   UNL     1     -16.839  40.757  -8.818  0.00  0.00    +0.000 HD
BRANCH  12  14
ATOM     14  C   UNL     1     -18.533  41.978  -8.611  0.00  0.00    +0.000 C 
BRANCH  14  18
ATOM     15  F   UNL     1     -19.300  40.121  -7.364  0.00  0.00    +0.000 F 
ATOM     16  F   UNL     1     -19.765  42.113  -6.611  0.00  0.00    +0.000 F 
ATOM     17  F   UNL     1     -20.800  41.350  -8.373  0.00  0.00    +0.000 F 
ATOM     18  C   UNL     1     -19.609  41.381  -7.738  0.00  0.00    +0.000 C 
ENDBRANCH  14  18
ENDBRANCH  12  14
ENDBRANCH   2  12
TORSDOF 4
ENDMDL
MODEL 3
REMARK VINA RESULT:    -6.093      2.827      4.371
REMARK INTER + INTRA:          -8.256
REMARK INTER:                  -7.564
REMARK INTRA:                  -0.692
REMARK UNBOUND:                -0.738
REMARK  Name = 29038516
REMARK  4 active torsions:
REMARK  status: ('A' for Active; 'I' for Inactive)
REMARK    1  A    between atoms: N_5  and  C_8
REMARK    2  A    between atoms: N_5  and  C_9
REMARK    3  A    between atoms: C_8  and  C_11
REMARK    4  A    between atoms: C_10  and  C_14
REMARK                            x       y       z     vdW  Elec       q    Type
REMARK                         _______ _______ _______ _____ _____    ______ ____
ROOT
ATOM      1  N   UNL     1     -17.689  43.486 -10.716  0.00  0.00    +0.000 NA
ATOM      2  C   UNL     1     -17.571  42.143 -10.630  0.00  0.00    +0.000 A 
ATOM      3  C   UNL     1     -17.264  41.322 -11.704  0.00  0.00    +0.000 A 
ATOM      4  C   UNL     1     -17.065  41.918 -12.944  0.00  0.00    +0.000 A 
ATOM      5  C   UNL     1     -17.177  43.299 -13.071  0.00  0.00    +0.000 A 
ATOM      6  C   UNL     1     -17.488  44.031 -11.936  0.00  0.00    +0.000 A 
ENDROOT
BRANCH   3   9
ATOM      7  O   UNL     1     -18.131  39.169 -11.302  0.00  0.00    +0.000 OA
ATOM      8  N   UNL     1     -15.898  39.307 -11.806  0.00  0.00    +0.000 N 
ATOM      9  C   UNL     1     -17.147  39.875 -11.581  0.00  0.00    +0.000 C 
ATOM     10  H   UNL     1     -15.085  39.868 -12.043  0.00  0.00    +0.000 HD
ATOM     11  H   UNL     1     -15.762  38.304 -11.741  0.00  0.00    +0.000 HD
ENDBRANCH   3   9
BRANCH   2  12
ATOM     12  N   UNL     1     -17.779  41.542  -9.364  0.00  0.00    +0.000 N 
ATOM     13  H   UNL     1     -16.962  41.123  -8.929  0.00  0.00    +0.000 HD
BRANCH  12  14
ATOM     14  C   UNL     1     -18.871  41.892  -8.515  0.00  0.00    +0.000 C 
BRANCH  14  18
ATOM     15  F   UNL     1     -20.334  40.826 -10.037  0.00  0.00    +0.000 F 
ATOM     16  F   UNL     1     -19.697  39.702  -8.280  0.00  0.00    +0.000 F 
ATOM     17  F   UNL     1     -21.124  41.338  -8.065  0.00  0.00    +0.000 F 
ATOM     18  C   UNL     1     -20.019  40.937  -8.728  0.00  0.00    +0.000 C 
ENDBRANCH  14  18
ENDBRANCH  12  14
ENDBRANCH   2  12
TORSDOF 4
ENDMDL
MODEL 4
REMARK VINA RESULT:    -5.931      2.736      4.654
REMARK INTER + INTRA:          -8.056
REMARK INTER:                  -7.287
REMARK INTRA:                  -0.770
REMARK UNBOUND:                -0.738
REMARK  Name = 29038516
REMARK  4 active torsions:
REMARK  status: ('A' for Active; 'I' for Inactive)
REMARK    1  A    between atoms: N_5  and  C_8
REMARK    2  A    between atoms: N_5  and  C_9
REMARK    3  A    between atoms: C_8  and  C_11
REMARK    4  A    between atoms: C_10  and  C_14
REMARK                            x       y       z     vdW  Elec       q    Type
REMARK                         _______ _______ _______ _____ _____    ______ ____
ROOT
ATOM      1  N   UNL     1     -19.801  41.476 -12.428  0.00  0.00    +0.000 NA
ATOM      2  C   UNL     1     -18.709  40.891 -11.886  0.00  0.00    +0.000 A 
ATOM      3  C   UNL     1     -17.406  41.223 -12.220  0.00  0.00    +0.000 A 
ATOM      4  C   UNL     1     -17.210  42.218 -13.171  0.00  0.00    +0.000 A 
ATOM      5  C   UNL     1     -18.309  42.843 -13.751  0.00  0.00    +0.000 A 
ATOM      6  C   UNL     1     -19.572  42.439 -13.348  0.00  0.00    +0.000 A 
ENDROOT
BRANCH   3   9
ATOM      7  O   UNL     1     -16.120  39.335 -11.641  0.00  0.00    +0.000 OA
ATOM      8  N   UNL     1     -15.281  41.383 -11.039  0.00  0.00    +0.000 N 
ATOM      9  C   UNL     1     -16.248  40.572 -11.621  0.00  0.00    +0.000 C 
ATOM     10  H   UNL     1     -15.365  42.395 -11.020  0.00  0.00    +0.000 HD
ATOM     11  H   UNL     1     -14.451  40.983 -10.613  0.00  0.00    +0.000 HD
ENDBRANCH   3   9
BRANCH   2  12
ATOM     12  N   UNL     1     -18.917  39.875 -10.920  0.00  0.00    +0.000 N 
ATOM     13  H   UNL     1     -18.209  39.149 -10.877  0.00  0.00    +0.000 HD
BRANCH  12  14
ATOM     14  C   UNL     1     -19.739  40.063  -9.770  0.00  0.00    +0.000 C 
BRANCH  14  18
ATOM     15  F   UNL     1     -17.627  40.347  -8.744  0.00  0.00    +0.000 F 
ATOM     16  F   UNL     1     -19.018  42.025  -8.692  0.00  0.00    +0.000 F 
ATOM     17  F   UNL     1     -19.381  40.275  -7.442  0.00  0.00    +0.000 F 
ATOM     18  C   UNL     1     -18.933  40.676  -8.651  0.00  0.00    +0.000 C 
ENDBRANCH  14  18
ENDBRANCH  12  14
ENDBRANCH   2  12
TORSDOF 4
ENDMDL
MODEL 5
REMARK VINA RESULT:    -5.562      2.078      3.355
REMARK INTER + INTRA:          -7.601
REMARK INTER:                  -6.975
REMARK INTRA:                  -0.625
REMARK UNBOUND:                -0.738
REMARK  Name = 29038516
REMARK  4 active torsions:
REMARK  status: ('A' for Active; 'I' for Inactive)
REMARK    1  A    between atoms: N_5  and  C_8
REMARK    2  A    between atoms: N_5  and  C_9
REMARK    3  A    between atoms: C_8  and  C_11
REMARK    4  A    between atoms: C_10  and  C_14
REMARK                            x       y       z     vdW  Elec       q    Type
REMARK                         _______ _______ _______ _____ _____    ______ ____
ROOT
ATOM      1  N   UNL     1     -17.292  40.747 -12.358  0.00  0.00    +0.000 NA
ATOM      2  C   UNL     1     -17.429  41.165 -11.080  0.00  0.00    +0.000 A 
ATOM      3  C   UNL     1     -18.428  40.727 -10.225  0.00  0.00    +0.000 A 
ATOM      4  C   UNL     1     -19.344  39.802 -10.713  0.00  0.00    +0.000 A 
ATOM      5  C   UNL     1     -19.234  39.348 -12.023  0.00  0.00    +0.000 A 
ATOM      6  C   UNL     1     -18.199  39.848 -12.797  0.00  0.00    +0.000 A 
ENDROOT
BRANCH   3   9
ATOM      7  O   UNL     1     -18.392  42.397  -8.563  0.00  0.00    +0.000 OA
ATOM      8  N   UNL     1     -18.876  40.264  -7.876  0.00  0.00    +0.000 N 
ATOM      9  C   UNL     1     -18.553  41.199  -8.852  0.00  0.00    +0.000 C 
ATOM     10  H   UNL     1     -19.019  39.282  -8.094  0.00  0.00    +0.000 HD
ATOM     11  H   UNL     1     -18.982  40.538  -6.904  0.00  0.00    +0.000 HD
ENDBRANCH   3   9
BRANCH   2  12
ATOM     12  N   UNL     1     -16.493  42.110 -10.591  0.00  0.00    +0.000 N 
ATOM     13  H   UNL     1     -16.067  41.895  -9.695  0.00  0.00    +0.000 HD
BRANCH  12  14
ATOM     14  C   UNL     1     -15.809  43.027 -11.442  0.00  0.00    +0.000 C 
BRANCH  14  18
ATOM     15  F   UNL     1     -17.347  43.983 -12.963  0.00  0.00    +0.000 F 
ATOM     16  F   UNL     1     -17.657  44.349 -10.836  0.00  0.00    +0.000 F 
ATOM     17  F   UNL     1     -16.019  45.341 -11.881  0.00  0.00    +0.000 F 
ATOM     18  C   UNL     1     -16.711  44.185 -11.789  0.00  0.00    +0.000 C 
ENDBRANCH  14  18
ENDBRANCH  12  14
ENDBRANCH   2  12
TORSDOF 4
ENDMDL
