MODEL 1
REMARK VINA RESULT:    -5.807      0.000      0.000
REMARK INTER + INTRA:          -8.349
REMARK INTER:                  -7.504
REMARK INTRA:                  -0.845
REMARK UNBOUND:                -0.845
REMARK  Name = 29031037
REMARK  6 active torsions:
REMARK  status: ('A' for Active; 'I' for Inactive)
REMARK    1  A    between atoms: N_2  and  C_6
REMARK    2  A    between atoms: N_2  and  C_8
REMARK    3  A    between atoms: C_5  and  C_6
REMARK    4  A    between atoms: C_5  and  C_7
REMARK    5  A    between atoms: C_7  and  C_9
REMARK    6  A    between atoms: C_10  and  C_13
REMARK                            x       y       z     vdW  Elec       q    Type
REMARK                         _______ _______ _______ _____ _____    ______ ____
ROOT
ATOM      1  N   UNL     1     -18.389  42.130  -8.569  0.00  0.00    +0.000 NA
ATOM      2  C   UNL     1     -18.163  41.445  -9.713  0.00  0.00    +0.000 A 
ATOM      3  C   UNL     1     -18.985  40.435 -10.187  0.00  0.00    +0.000 A 
ATOM      4  C   UNL     1     -20.111  40.106  -9.440  0.00  0.00    +0.000 A 
ATOM      5  C   UNL     1     -20.377  40.788  -8.258  0.00  0.00    +0.000 A 
ATOM      6  C   UNL     1     -19.493  41.782  -7.870  0.00  0.00    +0.000 A 
ENDROOT
BRANCH   3   9
ATOM      7  O   UNL     1     -17.566  39.335 -11.711  0.00  0.00    +0.000 OA
ATOM      8  N   UNL     1     -19.788  39.446 -12.265  0.00  0.00    +0.000 N 
ATOM      9  C   UNL     1     -18.714  39.714 -11.424  0.00  0.00    +0.000 C 
ATOM     10  H   UNL     1     -20.734  39.742 -12.042  0.00  0.00    +0.000 HD
ATOM     11  H   UNL     1     -19.657  38.941 -13.135  0.00  0.00    +0.000 HD
ENDBRANCH   3   9
BRANCH   2  12
ATOM     12  N   UNL     1     -17.039  41.777 -10.452  0.00  0.00    +0.000 N 
ATOM     13  H   UNL     1     -16.248  41.145 -10.381  0.00  0.00    +0.000 HD
BRANCH  12  14
ATOM     14  C   UNL     1     -16.753  43.112 -10.921  0.00  0.00    +0.000 C 
BRANCH  14  15
ATOM     15  C   UNL     1     -17.857  43.606 -11.853  0.00  0.00    +0.000 C 
BRANCH  15  16
ATOM     16  C   UNL     1     -17.889  42.847 -13.181  0.00  0.00    +0.000 C 
ATOM     17  C   UNL     1     -19.312  42.694 -13.698  0.00  0.00    +0.000 C 
ENDBRANCH  15  16
ENDBRANCH  14  15
ENDBRANCH  12  14
ENDBRANCH   2  12
TORSDOF 5
ENDMDL
MODEL 2
REMARK VINA RESULT:    -5.779      1.977      4.544
REMARK INTER + INTRA:          -8.313
REMARK INTER:                  -7.848
REMARK INTRA:                  -0.465
REMARK UNBOUND:                -0.845
REMARK  Name = 29031037
REMARK  6 active torsions:
REMARK  status: ('A' for Active; 'I' for Inactive)
REMARK    1  A    between atoms: N_2  and  C_6
REMARK    2  A    between atoms: N_2  and  C_8
REMARK    3  A    between atoms: C_5  and  C_6
REMARK    4  A    between atoms: C_5  and  C_7
REMARK    5  A    between atoms: C_7  and  C_9
REMARK    6  A    between atoms: C_10  and  C_13
REMARK                            x       y       z     vdW  Elec       q    Type
REMARK                         _______ _______ _______ _____ _____    ______ ____
ROOT
ATOM      1  N   UNL     1     -19.051  39.598 -10.631  0.00  0.00    +0.000 NA
ATOM      2  C   UNL     1     -18.101  40.543 -10.446  0.00  0.00    +0.000 A 
ATOM      3  C   UNL     1     -17.349  41.096 -11.470  0.00  0.00    +0.000 A 
ATOM      4  C   UNL     1     -17.587  40.653 -12.767  0.00  0.00    +0.000 A 
ATOM      5  C   UNL     1     -18.556  39.683 -12.996  0.00  0.00    +0.000 A 
ATOM      6  C   UNL     1     -19.254  39.192 -11.904  0.00  0.00    +0.000 A 
ENDROOT
BRANCH   3   9
ATOM      7  O   UNL     1     -16.636  43.301 -11.050  0.00  0.00    +0.000 OA
ATOM      8  N   UNL     1     -15.002  41.702 -11.221  0.00  0.00    +0.000 N 
ATOM      9  C   UNL     1     -16.330  42.112 -11.240  0.00  0.00    +0.000 C 
ATOM     10  H   UNL     1     -14.734  40.733 -11.368  0.00  0.00    +0.000 HD
ATOM     11  H   UNL     1     -14.252  42.367 -11.059  0.00  0.00    +0.000 HD
ENDBRANCH   3   9
BRANCH   2  12
ATOM     12  N   UNL     1     -17.868  40.979  -9.152  0.00  0.00    +0.000 N 
ATOM     13  H   UNL     1     -17.230  40.419  -8.594  0.00  0.00    +0.000 HD
BRANCH  12  14
ATOM     14  C   UNL     1     -18.762  41.848  -8.426  0.00  0.00    +0.000 C 
BRANCH  14  15
ATOM     15  C   UNL     1     -19.615  41.049  -7.443  0.00  0.00    +0.000 C 
BRANCH  15  16
ATOM     16  C   UNL     1     -20.447  41.943  -6.523  0.00  0.00    +0.000 C 
ATOM     17  C   UNL     1     -21.858  42.133  -7.062  0.00  0.00    +0.000 C 
ENDBRANCH  15  16
ENDBRANCH  14  15
ENDBRANCH  12  14
ENDBRANCH   2  12
TORSDOF 5
ENDMDL
MODEL 3
REMARK VINA RESULT:    -5.488      1.286      4.251
REMARK INTER + INTRA:          -7.937
REMARK INTER:                  -7.486
REMARK INTRA:                  -0.451
REMARK UNBOUND:                -0.845
REMARK  Name = 29031037
REMARK  6 active torsions:
REMARK  status: ('A' for Active; 'I' for Inactive)
REMARK    1  A    between atoms: N_2  and  C_6
REMARK    2  A    between atoms: N_2  and  C_8
REMARK    3  A    between atoms: C_5  and  C_6
REMARK    4  A    between atoms: C_5  and  C_7
REMARK    5  A    between atoms: C_7  and  C_9
REMARK    6  A    between atoms: C_10  and  C_13
REMARK                            x       y       z     vdW  Elec       q    Type
REMARK                         _______ _______ _______ _____ _____    ______ ____
ROOT
ATOM      1  N   UNL     1     -17.225  43.181 -10.822  0.00  0.00    +0.000 NA
ATOM      2  C   UNL     1     -17.845  41.980 -10.765  0.00  0.00    +0.000 A 
ATOM      3  C   UNL     1     -18.252  41.264 -11.879  0.00  0.00    +0.000 A 
ATOM      4  C   UNL     1     -18.006  41.814 -13.132  0.00  0.00    +0.000 A 
ATOM      5  C   UNL     1     -17.371  43.046 -13.232  0.00  0.00    +0.000 A 
ATOM      6  C   UNL     1     -17.003  43.683 -12.057  0.00  0.00    +0.000 A 
ENDROOT
BRANCH   3   9
ATOM      7  O   UNL     1     -18.511  39.089 -11.014  0.00  0.00    +0.000 OA
ATOM      8  N   UNL     1     -20.046  39.769 -12.575  0.00  0.00    +0.000 N 
ATOM      9  C   UNL     1     -18.921  39.973 -11.785  0.00  0.00    +0.000 C 
ATOM     10  H   UNL     1     -20.399  40.483 -13.206  0.00  0.00    +0.000 HD
ATOM     11  H   UNL     1     -20.554  38.891 -12.544  0.00  0.00    +0.000 HD
ENDBRANCH   3   9
BRANCH   2  12
ATOM     12  N   UNL     1     -18.088  41.439  -9.512  0.00  0.00    +0.000 N 
ATOM     13  H   UNL     1     -18.158  40.428  -9.462  0.00  0.00    +0.000 HD
BRANCH  12  14
ATOM     14  C   UNL     1     -18.676  42.178  -8.421  0.00  0.00    +0.000 C 
BRANCH  14  15
ATOM     15  C   UNL     1     -19.581  41.277  -7.584  0.00  0.00    +0.000 C 
BRANCH  15  16
ATOM     16  C   UNL     1     -20.941  41.915  -7.293  0.00  0.00    +0.000 C 
ATOM     17  C   UNL     1     -21.179  42.055  -5.796  0.00  0.00    +0.000 C 
ENDBRANCH  15  16
ENDBRANCH  14  15
ENDBRANCH  12  14
ENDBRANCH   2  12
TORSDOF 5
ENDMDL
MODEL 4
REMARK VINA RESULT:    -4.891      1.822      4.880
REMARK INTER + INTRA:          -7.165
REMARK INTER:                  -6.668
REMARK INTRA:                  -0.496
REMARK UNBOUND:                -0.845
REMARK  Name = 29031037
REMARK  6 active torsions:
REMARK  status: ('A' for Active; 'I' for Inactive)
REMARK    1  A    between atoms: N_2  and  C_6
REMARK    2  A    between atoms: N_2  and  C_8
REMARK    3  A    between atoms: C_5  and  C_6
REMARK    4  A    between atoms: C_5  and  C_7
REMARK    5  A    between atoms: C_7  and  C_9
REMARK    6  A    between atoms: C_10  and  C_13
REMARK                            x       y       z     vdW  Elec       q    Type
REMARK                         _______ _______ _______ _____ _____    ______ ____
ROOT
ATOM      1  N   UNL     1     -19.382  41.551 -13.534  0.00  0.00    +0.000 NA
ATOM      2  C   UNL     1     -18.621  41.602 -12.417  0.00  0.00    +0.000 A 
ATOM      3  C   UNL     1     -17.965  42.741 -11.979  0.00  0.00    +0.000 A 
ATOM      4  C   UNL     1     -18.098  43.902 -12.733  0.00  0.00    +0.000 A 
ATOM      5  C   UNL     1     -18.872  43.888 -13.888  0.00  0.00    +0.000 A 
ATOM      6  C   UNL     1     -19.487  42.697 -14.242  0.00  0.00    +0.000 A 
ENDROOT
BRANCH   3   9
ATOM      7  O   UNL     1     -17.667  42.843  -9.645  0.00  0.00    +0.000 OA
ATOM      8  N   UNL     1     -15.770  42.679 -10.921  0.00  0.00    +0.000 N 
ATOM      9  C   UNL     1     -17.149  42.765 -10.771  0.00  0.00    +0.000 C 
ATOM     10  H   UNL     1     -15.330  42.608 -11.834  0.00  0.00    +0.000 HD
ATOM     11  H   UNL     1     -15.156  42.686 -10.114  0.00  0.00    +0.000 HD
ENDBRANCH   3   9
BRANCH   2  12
ATOM     12  N   UNL     1     -18.491  40.442 -11.671  0.00  0.00    +0.000 N 
ATOM     13  H   UNL     1     -17.713  39.835 -11.910  0.00  0.00    +0.000 HD
BRANCH  12  14
ATOM     14  C   UNL     1     -19.576  39.836 -10.937  0.00  0.00    +0.000 C 
BRANCH  14  15
ATOM     15  C   UNL     1     -19.415  40.077  -9.437  0.00  0.00    +0.000 C 
BRANCH  15  16
ATOM     16  C   UNL     1     -20.751  40.071  -8.693  0.00  0.00    +0.000 C 
ATOM     17  C   UNL     1     -20.954  41.357  -7.906  0.00  0.00    +0.000 C 
ENDBRANCH  15  16
ENDBRANCH  14  15
ENDBRANCH  12  14
ENDBRANCH   2  12
TORSDOF 5
ENDMDL
MODEL 5
REMARK VINA RESULT:    -4.762      1.978      4.712
REMARK INTER + INTRA:          -6.998
REMARK INTER:                  -6.488
REMARK INTRA:                  -0.510
REMARK UNBOUND:                -0.845
REMARK  Name = 29031037
REMARK  6 active torsions:
REMARK  status: ('A' for Active; 'I' for Inactive)
REMARK    1  A    between atoms: N_2  and  C_6
REMARK    2  A    between atoms: N_2  and  C_8
REMARK    3  A    between atoms: C_5  and  C_6
REMARK    4  A    between atoms: C_5  and  C_7
REMARK    5  A    between atoms: C_7  and  C_9
REMARK    6  A    between atoms: C_10  and  C_13
REMARK                            x       y       z     vdW  Elec       q    Type
REMARK                         _______ _______ _______ _____ _____    ______ ____
ROOT
ATOM      1  N   UNL     1     -15.754  42.026 -11.377  0.00  0.00    +0.000 NA
ATOM      2  C   UNL     1     -16.965  41.889 -11.962  0.00  0.00    +0.000 A 
ATOM      3  C   UNL     1     -17.488  42.785 -12.880  0.00  0.00    +0.000 A 
ATOM      4  C   UNL     1     -16.719  43.893 -13.220  0.00  0.00    +0.000 A 
ATOM      5  C   UNL     1     -15.469  44.068 -12.640  0.00  0.00    +0.000 A 
ATOM      6  C   UNL     1     -15.035  43.114 -11.732  0.00  0.00    +0.000 A 
ENDROOT
BRANCH   3   9
ATOM      7  O   UNL     1     -19.181  41.500 -13.895  0.00  0.00    +0.000 OA
ATOM      8  N   UNL     1     -19.618  43.731 -13.594  0.00  0.00    +0.000 N 
ATOM      9  C   UNL     1     -18.799  42.612 -13.493  0.00  0.00    +0.000 C 
ATOM     10  H   UNL     1     -19.325  44.646 -13.264  0.00  0.00    +0.000 HD
ATOM     11  H   UNL     1     -20.543  43.665 -14.007  0.00  0.00    +0.000 HD
ENDBRANCH   3   9
BRANCH   2  12
ATOM     12  N   UNL     1     -17.727  40.783 -11.618  0.00  0.00    +0.000 N 
ATOM     13  H   UNL     1     -18.284  40.370 -12.358  0.00  0.00    +0.000 HD
BRANCH  12  14
ATOM     14  C   UNL     1     -18.126  40.476 -10.265  0.00  0.00    +0.000 C 
BRANCH  14  15
ATOM     15  C   UNL     1     -19.631  40.232 -10.187  0.00  0.00    +0.000 C 
BRANCH  15  16
ATOM     16  C   UNL     1     -20.146  40.187  -8.748  0.00  0.00    +0.000 C 
ATOM     17  C   UNL     1     -19.264  41.005  -7.816  0.00  0.00    +0.000 C 
ENDBRANCH  15  16
ENDBRANCH  14  15
ENDBRANCH  12  14
ENDBRANCH   2  12
TORSDOF 5
ENDMDL
