MODEL 1
REMARK VINA RESULT:    -6.240      0.000      0.000
REMARK INTER + INTRA:          -7.966
REMARK INTER:                  -7.334
REMARK INTRA:                  -0.632
REMARK UNBOUND:                -0.632
REMARK  Name = 29040678
REMARK  3 active torsions:
REMARK  status: ('A' for Active; 'I' for Inactive)
REMARK    1  A    between atoms: N_2  and  C_5
REMARK    2  A    between atoms: N_2  and  C_8
REMARK    3  A    between atoms: C_9  and  C_11
REMARK                            x       y       z     vdW  Elec       q    Type
REMARK                         _______ _______ _______ _____ _____    ______ ____
ROOT
ATOM      1  N   UNL     1     -18.488  42.221  -8.277  0.00  0.00    +0.000 NA
ATOM      2  C   UNL     1     -18.411  41.536  -9.440  0.00  0.00    +0.000 A 
ATOM      3  C   UNL     1     -19.384  40.658  -9.891  0.00  0.00    +0.000 A 
ATOM      4  C   UNL     1     -20.511  40.472  -9.096  0.00  0.00    +0.000 A 
ATOM      5  C   UNL     1     -19.598  42.015  -7.532  0.00  0.00    +0.000 A 
ATOM      6  C   UNL     1     -20.626  41.160  -7.894  0.00  0.00    +0.000 A 
ENDROOT
BRANCH   3   9
ATOM      7  O   UNL     1     -18.546  38.927 -11.250  0.00  0.00    +0.000 OA
ATOM      8  N   UNL     1     -20.015  40.391 -12.229  0.00  0.00    +0.000 N 
ATOM      9  C   UNL     1     -19.270  39.932 -11.148  0.00  0.00    +0.000 C 
ATOM     10  H   UNL     1     -20.617  41.205 -12.162  0.00  0.00    +0.000 HD
ATOM     11  H   UNL     1     -19.978  39.919 -13.126  0.00  0.00    +0.000 HD
ENDBRANCH   3   9
BRANCH   2  12
ATOM     12  N   UNL     1     -17.258  41.728 -10.243  0.00  0.00    +0.000 N 
ATOM     13  H   UNL     1     -16.768  40.881 -10.515  0.00  0.00    +0.000 HD
BRANCH  12  14
ATOM     14  C   UNL     1     -17.020  42.929 -10.974  0.00  0.00    +0.000 C 
ATOM     15  C   UNL     1     -16.579  42.896 -12.408  0.00  0.00    +0.000 C 
ATOM     16  C   UNL     1     -17.955  43.379 -12.058  0.00  0.00    +0.000 C 
ENDBRANCH  12  14
ENDBRANCH   2  12
TORSDOF 3
ENDMDL
MODEL 2
REMARK VINA RESULT:    -5.762      1.950      4.322
REMARK INTER + INTRA:          -7.405
REMARK INTER:                  -6.825
REMARK INTRA:                  -0.579
REMARK UNBOUND:                -0.632
REMARK  Name = 29040678
REMARK  3 active torsions:
REMARK  status: ('A' for Active; 'I' for Inactive)
REMARK    1  A    between atoms: N_2  and  C_5
REMARK    2  A    between atoms: N_2  and  C_8
REMARK    3  A    between atoms: C_9  and  C_11
REMARK                            x       y       z     vdW  Elec       q    Type
REMARK                         _______ _______ _______ _____ _____    ______ ____
ROOT
ATOM      1  N   UNL     1     -19.093  39.326 -10.619  0.00  0.00    +0.000 NA
ATOM      2  C   UNL     1     -18.415  40.414 -10.187  0.00  0.00    +0.000 A 
ATOM      3  C   UNL     1     -17.891  41.385 -11.025  0.00  0.00    +0.000 A 
ATOM      4  C   UNL     1     -18.075  41.230 -12.396  0.00  0.00    +0.000 A 
ATOM      5  C   UNL     1     -19.253  39.211 -11.956  0.00  0.00    +0.000 A 
ATOM      6  C   UNL     1     -18.768  40.126 -12.877  0.00  0.00    +0.000 A 
ENDROOT
BRANCH   3   9
ATOM      7  O   UNL     1     -17.695  43.364  -9.763  0.00  0.00    +0.000 OA
ATOM      8  N   UNL     1     -15.839  42.694 -10.931  0.00  0.00    +0.000 N 
ATOM      9  C   UNL     1     -17.162  42.544 -10.530  0.00  0.00    +0.000 C 
ATOM     10  H   UNL     1     -15.384  42.030 -11.550  0.00  0.00    +0.000 HD
ATOM     11  H   UNL     1     -15.282  43.479 -10.610  0.00  0.00    +0.000 HD
ENDBRANCH   3   9
BRANCH   2  12
ATOM     12  N   UNL     1     -18.228  40.562  -8.789  0.00  0.00    +0.000 N 
ATOM     13  H   UNL     1     -17.335  40.953  -8.506  0.00  0.00    +0.000 HD
BRANCH  12  14
ATOM     14  C   UNL     1     -19.314  40.580  -7.866  0.00  0.00    +0.000 C 
ATOM     15  C   UNL     1     -19.735  41.847  -7.179  0.00  0.00    +0.000 C 
ATOM     16  C   UNL     1     -20.624  41.223  -8.214  0.00  0.00    +0.000 C 
ENDBRANCH  12  14
ENDBRANCH   2  12
TORSDOF 3
ENDMDL
MODEL 3
REMARK VINA RESULT:    -5.454      1.198      3.846
REMARK INTER + INTRA:          -7.042
REMARK INTER:                  -6.551
REMARK INTRA:                  -0.491
REMARK UNBOUND:                -0.632
REMARK  Name = 29040678
REMARK  3 active torsions:
REMARK  status: ('A' for Active; 'I' for Inactive)
REMARK    1  A    between atoms: N_2  and  C_5
REMARK    2  A    between atoms: N_2  and  C_8
REMARK    3  A    between atoms: C_9  and  C_11
REMARK                            x       y       z     vdW  Elec       q    Type
REMARK                         _______ _______ _______ _____ _____    ______ ____
ROOT
ATOM      1  N   UNL     1     -17.236  43.139 -10.763  0.00  0.00    +0.000 NA
ATOM      2  C   UNL     1     -17.821  41.921 -10.779  0.00  0.00    +0.000 A 
ATOM      3  C   UNL     1     -18.186  41.249 -11.935  0.00  0.00    +0.000 A 
ATOM      4  C   UNL     1     -17.933  41.870 -13.154  0.00  0.00    +0.000 A 
ATOM      5  C   UNL     1     -17.006  43.711 -11.967  0.00  0.00    +0.000 A 
ATOM      6  C   UNL     1     -17.333  43.123 -13.178  0.00  0.00    +0.000 A 
ENDROOT
BRANCH   3   9
ATOM      7  O   UNL     1     -18.345  39.000 -11.254  0.00  0.00    +0.000 OA
ATOM      8  N   UNL     1     -19.982  39.774 -12.661  0.00  0.00    +0.000 N 
ATOM      9  C   UNL     1     -18.818  39.938 -11.919  0.00  0.00    +0.000 C 
ATOM     10  H   UNL     1     -20.387  40.530 -13.204  0.00  0.00    +0.000 HD
ATOM     11  H   UNL     1     -20.467  38.883 -12.681  0.00  0.00    +0.000 HD
ENDBRANCH   3   9
BRANCH   2  12
ATOM     12  N   UNL     1     -18.077  41.296  -9.532  0.00  0.00    +0.000 N 
ATOM     13  H   UNL     1     -17.266  40.908  -9.062  0.00  0.00    +0.000 HD
BRANCH  12  14
ATOM     14  C   UNL     1     -19.260  41.545  -8.776  0.00  0.00    +0.000 C 
ATOM     15  C   UNL     1     -20.325  40.498  -8.625  0.00  0.00    +0.000 C 
ATOM     16  C   UNL     1     -19.487  40.891  -7.445  0.00  0.00    +0.000 C 
ENDBRANCH  12  14
ENDBRANCH   2  12
TORSDOF 3
ENDMDL
MODEL 4
REMARK VINA RESULT:    -5.078      3.220      4.770
REMARK INTER + INTRA:          -6.600
REMARK INTER:                  -6.126
REMARK INTRA:                  -0.473
REMARK UNBOUND:                -0.632
REMARK  Name = 29040678
REMARK  3 active torsions:
REMARK  status: ('A' for Active; 'I' for Inactive)
REMARK    1  A    between atoms: N_2  and  C_5
REMARK    2  A    between atoms: N_2  and  C_8
REMARK    3  A    between atoms: C_9  and  C_11
REMARK                            x       y       z     vdW  Elec       q    Type
REMARK                         _______ _______ _______ _____ _____    ______ ____
ROOT
ATOM      1  N   UNL     1     -18.481  44.358 -13.818  0.00  0.00    +0.000 NA
ATOM      2  C   UNL     1     -18.877  43.068 -13.733  0.00  0.00    +0.000 A 
ATOM      3  C   UNL     1     -18.622  42.247 -12.645  0.00  0.00    +0.000 A 
ATOM      4  C   UNL     1     -17.914  42.786 -11.576  0.00  0.00    +0.000 A 
ATOM      5  C   UNL     1     -17.796  44.846 -12.759  0.00  0.00    +0.000 A 
ATOM      6  C   UNL     1     -17.491  44.109 -11.626  0.00  0.00    +0.000 A 
ENDROOT
BRANCH   3   9
ATOM      7  O   UNL     1     -18.714  40.035 -13.448  0.00  0.00    +0.000 OA
ATOM      8  N   UNL     1     -19.864  40.483 -11.516  0.00  0.00    +0.000 N 
ATOM      9  C   UNL     1     -19.059  40.860 -12.585  0.00  0.00    +0.000 C 
ATOM     10  H   UNL     1     -20.150  41.141 -10.797  0.00  0.00    +0.000 HD
ATOM     11  H   UNL     1     -20.192  39.528 -11.420  0.00  0.00    +0.000 HD
ENDBRANCH   3   9
BRANCH   2  12
ATOM     12  N   UNL     1     -19.594  42.525 -14.829  0.00  0.00    +0.000 N 
ATOM     13  H   UNL     1     -20.023  41.619 -14.665  0.00  0.00    +0.000 HD
BRANCH  12  14
ATOM     14  C   UNL     1     -20.056  43.322 -15.917  0.00  0.00    +0.000 C 
ATOM     15  C   UNL     1     -20.592  42.695 -17.171  0.00  0.00    +0.000 C 
ATOM     16  C   UNL     1     -21.517  43.425 -16.243  0.00  0.00    +0.000 C 
ENDBRANCH  12  14
ENDBRANCH   2  12
TORSDOF 3
ENDMDL
MODEL 5
REMARK VINA RESULT:    -4.821      2.819      3.446
REMARK INTER + INTRA:          -6.298
REMARK INTER:                  -5.681
REMARK INTRA:                  -0.616
REMARK UNBOUND:                -0.632
REMARK  Name = 29040678
REMARK  3 active torsions:
REMARK  status: ('A' for Active; 'I' for Inactive)
REMARK    1  A    between atoms: N_2  and  C_5
REMARK    2  A    between atoms: N_2  and  C_8
REMARK    3  A    between atoms: C_9  and  C_11
REMARK                            x       y       z     vdW  Elec       q    Type
REMARK                         _______ _______ _______ _____ _____    ______ ____
ROOT
ATOM      1  N   UNL     1     -16.854  40.783 -11.574  0.00  0.00    +0.000 NA
ATOM      2  C   UNL     1     -17.377  41.617 -12.501  0.00  0.00    +0.000 A 
ATOM      3  C   UNL     1     -18.736  41.786 -12.716  0.00  0.00    +0.000 A 
ATOM      4  C   UNL     1     -19.615  41.050 -11.928  0.00  0.00    +0.000 A 
ATOM      5  C   UNL     1     -17.740  40.086 -10.827  0.00  0.00    +0.000 A 
ATOM      6  C   UNL     1     -19.115  40.183 -10.964  0.00  0.00    +0.000 A 
ENDROOT
BRANCH   3   9
ATOM      7  O   UNL     1     -19.384  42.338 -14.912  0.00  0.00    +0.000 OA
ATOM      8  N   UNL     1     -19.660  43.959 -13.313  0.00  0.00    +0.000 N 
ATOM      9  C   UNL     1     -19.268  42.690 -13.725  0.00  0.00    +0.000 C 
ATOM     10  H   UNL     1     -19.579  44.261 -12.347  0.00  0.00    +0.000 HD
ATOM     11  H   UNL     1     -20.043  44.627 -13.973  0.00  0.00    +0.000 HD
ENDBRANCH   3   9
BRANCH   2  12
ATOM     12  N   UNL     1     -16.474  42.361 -13.302  0.00  0.00    +0.000 N 
ATOM     13  H   UNL     1     -16.608  42.277 -14.305  0.00  0.00    +0.000 HD
BRANCH  12  14
ATOM     14  C   UNL     1     -15.721  43.460 -12.796  0.00  0.00    +0.000 C 
ATOM     15  C   UNL     1     -15.847  44.833 -13.388  0.00  0.00    +0.000 C 
ATOM     16  C   UNL     1     -16.376  44.559 -12.012  0.00  0.00    +0.000 C 
ENDBRANCH  12  14
ENDBRANCH   2  12
TORSDOF 3
ENDMDL
