MODEL 1
REMARK VINA RESULT:    -7.258      0.000      0.000
REMARK INTER + INTRA:          -9.565
REMARK INTER:                  -8.955
REMARK INTRA:                  -0.610
REMARK UNBOUND:                -0.610
REMARK  Name = 29048197
REMARK  4 active torsions:
REMARK  status: ('A' for Active; 'I' for Inactive)
REMARK    1  A    between atoms: N_2  and  C_6
REMARK    2  A    between atoms: N_2  and  C_8
REMARK    3  A    between atoms: C_6  and  C_7
REMARK    4  A    between atoms: C_9  and  C_14
REMARK                            x       y       z     vdW  Elec       q    Type
REMARK                         _______ _______ _______ _____ _____    ______ ____
ROOT
ATOM      1  N   UNL     1     -19.597  41.540 -11.988  0.00  0.00    +0.000 NA
ATOM      2  C   UNL     1     -18.470  40.940 -11.544  0.00  0.00    +0.000 A 
ATOM      3  C   UNL     1     -17.220  41.120 -12.113  0.00  0.00    +0.000 A 
ATOM      4  C   UNL     1     -17.120  41.971 -13.208  0.00  0.00    +0.000 A 
ATOM      5  C   UNL     1     -18.256  42.607 -13.694  0.00  0.00    +0.000 A 
ATOM      6  C   UNL     1     -19.461  42.360 -13.053  0.00  0.00    +0.000 A 
ENDROOT
BRANCH   3   9
ATOM      7  O   UNL     1     -15.889  39.223 -11.689  0.00  0.00    +0.000 OA
ATOM      8  N   UNL     1     -15.023  41.254 -11.067  0.00  0.00    +0.000 N 
ATOM      9  C   UNL     1     -16.022  40.456 -11.614  0.00  0.00    +0.000 C 
ATOM     10  H   UNL     1     -15.112  42.263 -11.004  0.00  0.00    +0.000 HD
ATOM     11  H   UNL     1     -14.166  40.844 -10.710  0.00  0.00    +0.000 HD
ENDBRANCH   3   9
BRANCH   2  12
ATOM     12  N   UNL     1     -18.580  40.072 -10.429  0.00  0.00    +0.000 N 
ATOM     13  H   UNL     1     -18.498  39.080 -10.629  0.00  0.00    +0.000 HD
BRANCH  12  14
ATOM     14  C   UNL     1     -18.332  40.501  -9.092  0.00  0.00    +0.000 C 
BRANCH  14  16
ATOM     15  N   UNL     1     -21.993  40.558  -8.139  0.00  0.00    +0.000 NA
ATOM     16  C   UNL     1     -19.616  40.897  -8.416  0.00  0.00    +0.000 A 
ATOM     17  C   UNL     1     -19.645  41.924  -7.479  0.00  0.00    +0.000 A 
ATOM     18  C   UNL     1     -20.807  40.252  -8.708  0.00  0.00    +0.000 A 
ATOM     19  C   UNL     1     -20.847  42.268  -6.871  0.00  0.00    +0.000 A 
ATOM     20  C   UNL     1     -21.982  41.562  -7.232  0.00  0.00    +0.000 A 
ENDBRANCH  14  16
ENDBRANCH  12  14
ENDBRANCH   2  12
TORSDOF 4
ENDMDL
MODEL 2
REMARK VINA RESULT:    -7.083      1.891      2.282
REMARK INTER + INTRA:          -9.350
REMARK INTER:                  -8.705
REMARK INTRA:                  -0.645
REMARK UNBOUND:                -0.610
REMARK  Name = 29048197
REMARK  4 active torsions:
REMARK  status: ('A' for Active; 'I' for Inactive)
REMARK    1  A    between atoms: N_2  and  C_6
REMARK    2  A    between atoms: N_2  and  C_8
REMARK    3  A    between atoms: C_6  and  C_7
REMARK    4  A    between atoms: C_9  and  C_14
REMARK                            x       y       z     vdW  Elec       q    Type
REMARK                         _______ _______ _______ _____ _____    ______ ____
ROOT
ATOM      1  N   UNL     1     -18.926  39.701 -10.726  0.00  0.00    +0.000 NA
ATOM      2  C   UNL     1     -18.517  40.987 -10.644  0.00  0.00    +0.000 A 
ATOM      3  C   UNL     1     -18.088  41.735 -11.728  0.00  0.00    +0.000 A 
ATOM      4  C   UNL     1     -18.079  41.124 -12.977  0.00  0.00    +0.000 A 
ATOM      5  C   UNL     1     -18.492  39.803 -13.102  0.00  0.00    +0.000 A 
ATOM      6  C   UNL     1     -18.904  39.141 -11.955  0.00  0.00    +0.000 A 
ENDROOT
BRANCH   3   9
ATOM      7  O   UNL     1     -16.684  43.430 -10.889  0.00  0.00    +0.000 OA
ATOM      8  N   UNL     1     -18.336  44.079 -12.341  0.00  0.00    +0.000 N 
ATOM      9  C   UNL     1     -17.649  43.119 -11.608  0.00  0.00    +0.000 C 
ATOM     10  H   UNL     1     -19.122  43.842 -12.938  0.00  0.00    +0.000 HD
ATOM     11  H   UNL     1     -18.069  45.058 -12.300  0.00  0.00    +0.000 HD
ENDBRANCH   3   9
BRANCH   2  12
ATOM     12  N   UNL     1     -18.527  41.602  -9.366  0.00  0.00    +0.000 N 
ATOM     13  H   UNL     1     -18.678  42.606  -9.359  0.00  0.00    +0.000 HD
BRANCH  12  14
ATOM     14  C   UNL     1     -18.800  40.881  -8.167  0.00  0.00    +0.000 C 
BRANCH  14  16
ATOM     15  N   UNL     1     -22.565  40.783  -7.803  0.00  0.00    +0.000 NA
ATOM     16  C   UNL     1     -20.185  41.188  -7.670  0.00  0.00    +0.000 A 
ATOM     17  C   UNL     1     -20.394  42.121  -6.660  0.00  0.00    +0.000 A 
ATOM     18  C   UNL     1     -21.295  40.553  -8.204  0.00  0.00    +0.000 A 
ATOM     19  C   UNL     1     -21.686  42.386  -6.221  0.00  0.00    +0.000 A 
ATOM     20  C   UNL     1     -22.728  41.696  -6.819  0.00  0.00    +0.000 A 
ENDBRANCH  14  16
ENDBRANCH  12  14
ENDBRANCH   2  12
TORSDOF 4
ENDMDL
MODEL 3
REMARK VINA RESULT:    -6.757      2.156      5.297
REMARK INTER + INTRA:          -8.947
REMARK INTER:                  -8.145
REMARK INTRA:                  -0.802
REMARK UNBOUND:                -0.610
REMARK  Name = 29048197
REMARK  4 active torsions:
REMARK  status: ('A' for Active; 'I' for Inactive)
REMARK    1  A    between atoms: N_2  and  C_6
REMARK    2  A    between atoms: N_2  and  C_8
REMARK    3  A    between atoms: C_6  and  C_7
REMARK    4  A    between atoms: C_9  and  C_14
REMARK                            x       y       z     vdW  Elec       q    Type
REMARK                         _______ _______ _______ _____ _____    ______ ____
ROOT
ATOM      1  N   UNL     1     -18.556  42.217  -8.312  0.00  0.00    +0.000 NA
ATOM      2  C   UNL     1     -18.453  41.545  -9.480  0.00  0.00    +0.000 A 
ATOM      3  C   UNL     1     -19.375  40.610  -9.920  0.00  0.00    +0.000 A 
ATOM      4  C   UNL     1     -20.473  40.347  -9.109  0.00  0.00    +0.000 A 
ATOM      5  C   UNL     1     -20.614  41.018  -7.900  0.00  0.00    +0.000 A 
ATOM      6  C   UNL     1     -19.636  41.936  -7.551  0.00  0.00    +0.000 A 
ENDROOT
BRANCH   3   9
ATOM      7  O   UNL     1     -18.425  38.966 -11.314  0.00  0.00    +0.000 OA
ATOM      8  N   UNL     1     -20.056  40.288 -12.238  0.00  0.00    +0.000 N 
ATOM      9  C   UNL     1     -19.236  39.898 -11.184  0.00  0.00    +0.000 C 
ATOM     10  H   UNL     1     -20.728  41.043 -12.147  0.00  0.00    +0.000 HD
ATOM     11  H   UNL     1     -20.005  39.823 -13.138  0.00  0.00    +0.000 HD
ENDBRANCH   3   9
BRANCH   2  12
ATOM     12  N   UNL     1     -17.330  41.817 -10.301  0.00  0.00    +0.000 N 
ATOM     13  H   UNL     1     -17.107  41.110 -10.996  0.00  0.00    +0.000 HD
BRANCH  12  14
ATOM     14  C   UNL     1     -16.832  43.136 -10.514  0.00  0.00    +0.000 C 
BRANCH  14  16
ATOM     15  N   UNL     1     -18.369  45.740 -12.789  0.00  0.00    +0.000 NA
ATOM     16  C   UNL     1     -17.489  43.762 -11.713  0.00  0.00    +0.000 A 
ATOM     17  C   UNL     1     -17.827  42.998 -12.825  0.00  0.00    +0.000 A 
ATOM     18  C   UNL     1     -17.779  45.117 -11.745  0.00  0.00    +0.000 A 
ATOM     19  C   UNL     1     -18.435  43.603 -13.919  0.00  0.00    +0.000 A 
ATOM     20  C   UNL     1     -18.682  44.964 -13.852  0.00  0.00    +0.000 A 
ENDBRANCH  14  16
ENDBRANCH  12  14
ENDBRANCH   2  12
TORSDOF 4
ENDMDL
MODEL 4
REMARK VINA RESULT:    -6.713      1.787      2.411
REMARK INTER + INTRA:          -8.893
REMARK INTER:                  -8.338
REMARK INTRA:                  -0.555
REMARK UNBOUND:                -0.610
REMARK  Name = 29048197
REMARK  4 active torsions:
REMARK  status: ('A' for Active; 'I' for Inactive)
REMARK    1  A    between atoms: N_2  and  C_6
REMARK    2  A    between atoms: N_2  and  C_8
REMARK    3  A    between atoms: C_6  and  C_7
REMARK    4  A    between atoms: C_9  and  C_14
REMARK                            x       y       z     vdW  Elec       q    Type
REMARK                         _______ _______ _______ _____ _____    ______ ____
ROOT
ATOM      1  N   UNL     1     -17.688  43.023 -10.434  0.00  0.00    +0.000 NA
ATOM      2  C   UNL     1     -18.218  41.818 -10.738  0.00  0.00    +0.000 A 
ATOM      3  C   UNL     1     -17.871  41.078 -11.857  0.00  0.00    +0.000 A 
ATOM      4  C   UNL     1     -16.919  41.610 -12.718  0.00  0.00    +0.000 A 
ATOM      5  C   UNL     1     -16.351  42.847 -12.440  0.00  0.00    +0.000 A 
ATOM      6  C   UNL     1     -16.765  43.508 -11.294  0.00  0.00    +0.000 A 
ENDROOT
BRANCH   3   9
ATOM      7  O   UNL     1     -18.678  38.945 -11.267  0.00  0.00    +0.000 OA
ATOM      8  N   UNL     1     -18.797  39.519 -13.484  0.00  0.00    +0.000 N 
ATOM      9  C   UNL     1     -18.463  39.782 -12.160  0.00  0.00    +0.000 C 
ATOM     10  H   UNL     1     -18.634  40.193 -14.225  0.00  0.00    +0.000 HD
ATOM     11  H   UNL     1     -19.218  38.634 -13.751  0.00  0.00    +0.000 HD
ENDBRANCH   3   9
BRANCH   2  12
ATOM     12  N   UNL     1     -19.190  41.283  -9.855  0.00  0.00    +0.000 N 
ATOM     13  H   UNL     1     -19.915  40.716 -10.285  0.00  0.00    +0.000 HD
BRANCH  12  14
ATOM     14  C   UNL     1     -18.950  41.108  -8.461  0.00  0.00    +0.000 C 
BRANCH  14  16
ATOM     15  N   UNL     1     -21.205  42.404  -5.713  0.00  0.00    +0.000 NA
ATOM     16  C   UNL     1     -20.193  41.408  -7.669  0.00  0.00    +0.000 A 
ATOM     17  C   UNL     1     -21.444  40.996  -8.115  0.00  0.00    +0.000 A 
ATOM     18  C   UNL     1     -20.128  42.103  -6.472  0.00  0.00    +0.000 A 
ATOM     19  C   UNL     1     -22.575  41.287  -7.362  0.00  0.00    +0.000 A 
ATOM     20  C   UNL     1     -22.404  41.987  -6.179  0.00  0.00    +0.000 A 
ENDBRANCH  14  16
ENDBRANCH  12  14
ENDBRANCH   2  12
TORSDOF 4
ENDMDL
MODEL 5
REMARK VINA RESULT:    -6.389      2.616      5.824
REMARK INTER + INTRA:          -8.493
REMARK INTER:                  -8.034
REMARK INTRA:                  -0.458
REMARK UNBOUND:                -0.610
REMARK  Name = 29048197
REMARK  4 active torsions:
REMARK  status: ('A' for Active; 'I' for Inactive)
REMARK    1  A    between atoms: N_2  and  C_6
REMARK    2  A    between atoms: N_2  and  C_8
REMARK    3  A    between atoms: C_6  and  C_7
REMARK    4  A    between atoms: C_9  and  C_14
REMARK                            x       y       z     vdW  Elec       q    Type
REMARK                         _______ _______ _______ _____ _____    ______ ____
ROOT
ATOM      1  N   UNL     1     -18.540  42.279  -8.334  0.00  0.00    +0.000 NA
ATOM      2  C   UNL     1     -18.402  41.607  -9.498  0.00  0.00    +0.000 A 
ATOM      3  C   UNL     1     -19.283  40.635  -9.942  0.00  0.00    +0.000 A 
ATOM      4  C   UNL     1     -20.378  40.335  -9.140  0.00  0.00    +0.000 A 
ATOM      5  C   UNL     1     -20.555  41.005  -7.935  0.00  0.00    +0.000 A 
ATOM      6  C   UNL     1     -19.616  41.961  -7.581  0.00  0.00    +0.000 A 
ENDROOT
BRANCH   3   9
ATOM      7  O   UNL     1     -18.217  39.066 -11.339  0.00  0.00    +0.000 OA
ATOM      8  N   UNL     1     -19.978  40.226 -12.241  0.00  0.00    +0.000 N 
ATOM      9  C   UNL     1     -19.105  39.924 -11.201  0.00  0.00    +0.000 C 
ATOM     10  H   UNL     1     -20.713  40.919 -12.145  0.00  0.00    +0.000 HD
ATOM     11  H   UNL     1     -19.903  39.756 -13.138  0.00  0.00    +0.000 HD
ENDBRANCH   3   9
BRANCH   2  12
ATOM     12  N   UNL     1     -17.281  41.917 -10.310  0.00  0.00    +0.000 N 
ATOM     13  H   UNL     1     -16.513  41.254 -10.278  0.00  0.00    +0.000 HD
BRANCH  12  14
ATOM     14  C   UNL     1     -17.367  42.779 -11.443  0.00  0.00    +0.000 C 
BRANCH  14  16
ATOM     15  N   UNL     1     -15.060  45.699 -12.126  0.00  0.00    +0.000 NA
ATOM     16  C   UNL     1     -16.108  43.589 -11.587  0.00  0.00    +0.000 A 
ATOM     17  C   UNL     1     -14.861  43.027 -11.333  0.00  0.00    +0.000 A 
ATOM     18  C   UNL     1     -16.152  44.917 -11.978  0.00  0.00    +0.000 A 
ATOM     19  C   UNL     1     -13.715  43.799 -11.475  0.00  0.00    +0.000 A 
ATOM     20  C   UNL     1     -13.866  45.118 -11.871  0.00  0.00    +0.000 A 
ENDBRANCH  14  16
ENDBRANCH  12  14
ENDBRANCH   2  12
TORSDOF 4
ENDMDL
