MODEL 1
REMARK VINA RESULT:    -6.234      0.000      0.000
REMARK INTER + INTRA:          -8.955
REMARK INTER:                  -8.421
REMARK INTRA:                  -0.534
REMARK UNBOUND:                -0.534
REMARK  Name = 29051520
REMARK  7 active torsions:
REMARK  status: ('A' for Active; 'I' for Inactive)
REMARK    1  A    between atoms: N_2  and  C_7
REMARK    2  A    between atoms: N_2  and  C_10
REMARK    3  A    between atoms: C_5  and  C_6
REMARK    4  A    between atoms: C_5  and  C_7
REMARK    5  A    between atoms: C_6  and  C_8
REMARK    6  A    between atoms: C_8  and  C_9
REMARK    7  A    between atoms: C_11  and  C_14
REMARK                            x       y       z     vdW  Elec       q    Type
REMARK                         _______ _______ _______ _____ _____    ______ ____
ROOT
ATOM      1  N   UNL     1     -18.995  39.477 -10.678  0.00  0.00    +0.000 NA
ATOM      2  C   UNL     1     -18.259  40.576 -10.397  0.00  0.00    +0.000 A 
ATOM      3  C   UNL     1     -17.672  41.383 -11.358  0.00  0.00    +0.000 A 
ATOM      4  C   UNL     1     -17.851  41.040 -12.693  0.00  0.00    +0.000 A 
ATOM      5  C   UNL     1     -18.601  39.917 -13.022  0.00  0.00    +0.000 A 
ATOM      6  C   UNL     1     -19.147  39.176 -11.988  0.00  0.00    +0.000 A 
ENDROOT
BRANCH   3   9
ATOM      7  O   UNL     1     -17.433  43.637 -10.719  0.00  0.00    +0.000 OA
ATOM      8  N   UNL     1     -15.502  42.443 -11.038  0.00  0.00    +0.000 N 
ATOM      9  C   UNL     1     -16.887  42.563 -11.023  0.00  0.00    +0.000 C 
ATOM     10  H   UNL     1     -15.039  41.571 -11.276  0.00  0.00    +0.000 HD
ATOM     11  H   UNL     1     -14.906  43.231 -10.807  0.00  0.00    +0.000 HD
ENDBRANCH   3   9
BRANCH   2  12
ATOM     12  N   UNL     1     -18.085  40.911  -9.063  0.00  0.00    +0.000 N 
ATOM     13  H   UNL     1     -17.508  41.724  -8.873  0.00  0.00    +0.000 HD
BRANCH  12  14
ATOM     14  C   UNL     1     -18.984  40.502  -8.010  0.00  0.00    +0.000 C 
BRANCH  14  15
ATOM     15  C   UNL     1     -20.180  41.448  -7.923  0.00  0.00    +0.000 C 
BRANCH  15  16
ATOM     16  C   UNL     1     -20.216  42.235  -6.609  0.00  0.00    +0.000 C 
BRANCH  16  17
ATOM     17  C   UNL     1     -21.610  42.203  -5.983  0.00  0.00    +0.000 C 
ATOM     18  C   UNL     1     -22.658  41.735  -6.980  0.00  0.00    +0.000 C 
ENDBRANCH  16  17
ENDBRANCH  15  16
ENDBRANCH  14  15
ENDBRANCH  12  14
ENDBRANCH   2  12
TORSDOF 6
ENDMDL
MODEL 2
REMARK VINA RESULT:    -6.175      2.024      5.230
REMARK INTER + INTRA:          -8.875
REMARK INTER:                  -8.128
REMARK INTRA:                  -0.747
REMARK UNBOUND:                -0.534
REMARK  Name = 29051520
REMARK  7 active torsions:
REMARK  status: ('A' for Active; 'I' for Inactive)
REMARK    1  A    between atoms: N_2  and  C_7
REMARK    2  A    between atoms: N_2  and  C_10
REMARK    3  A    between atoms: C_5  and  C_6
REMARK    4  A    between atoms: C_5  and  C_7
REMARK    5  A    between atoms: C_6  and  C_8
REMARK    6  A    between atoms: C_8  and  C_9
REMARK    7  A    between atoms: C_11  and  C_14
REMARK                            x       y       z     vdW  Elec       q    Type
REMARK                         _______ _______ _______ _____ _____    ______ ____
ROOT
ATOM      1  N   UNL     1     -18.743  42.226  -8.075  0.00  0.00    +0.000 NA
ATOM      2  C   UNL     1     -18.572  41.593  -9.258  0.00  0.00    +0.000 A 
ATOM      3  C   UNL     1     -19.462  40.668  -9.779  0.00  0.00    +0.000 A 
ATOM      4  C   UNL     1     -20.601  40.373  -9.038  0.00  0.00    +0.000 A 
ATOM      5  C   UNL     1     -20.813  41.003  -7.817  0.00  0.00    +0.000 A 
ATOM      6  C   UNL     1     -19.863  41.913  -7.384  0.00  0.00    +0.000 A 
ENDROOT
BRANCH   3   9
ATOM      7  O   UNL     1     -18.399  39.108 -11.188  0.00  0.00    +0.000 OA
ATOM      8  N   UNL     1     -20.045  40.397 -12.129  0.00  0.00    +0.000 N 
ATOM      9  C   UNL     1     -19.250  40.005 -11.058  0.00  0.00    +0.000 C 
ATOM     10  H   UNL     1     -20.751  41.122 -12.039  0.00  0.00    +0.000 HD
ATOM     11  H   UNL     1     -19.944  39.964 -13.041  0.00  0.00    +0.000 HD
ENDBRANCH   3   9
BRANCH   2  12
ATOM     12  N   UNL     1     -17.433  41.893  -9.990  0.00  0.00    +0.000 N 
ATOM     13  H   UNL     1     -16.847  41.107 -10.254  0.00  0.00    +0.000 HD
BRANCH  12  14
ATOM     14  C   UNL     1     -17.270  43.103 -10.759  0.00  0.00    +0.000 C 
BRANCH  14  15
ATOM     15  C   UNL     1     -16.396  42.850 -11.985  0.00  0.00    +0.000 C 
BRANCH  15  16
ATOM     16  C   UNL     1     -17.211  42.449 -13.219  0.00  0.00    +0.000 C 
BRANCH  16  17
ATOM     17  C   UNL     1     -18.245  43.518 -13.570  0.00  0.00    +0.000 C 
ATOM     18  C   UNL     1     -19.357  42.954 -14.442  0.00  0.00    +0.000 C 
ENDBRANCH  16  17
ENDBRANCH  15  16
ENDBRANCH  14  15
ENDBRANCH  12  14
ENDBRANCH   2  12
TORSDOF 6
ENDMDL
MODEL 3
REMARK VINA RESULT:    -6.059      1.873      2.357
REMARK INTER + INTRA:          -8.718
REMARK INTER:                  -8.062
REMARK INTRA:                  -0.656
REMARK UNBOUND:                -0.534
REMARK  Name = 29051520
REMARK  7 active torsions:
REMARK  status: ('A' for Active; 'I' for Inactive)
REMARK    1  A    between atoms: N_2  and  C_7
REMARK    2  A    between atoms: N_2  and  C_10
REMARK    3  A    between atoms: C_5  and  C_6
REMARK    4  A    between atoms: C_5  and  C_7
REMARK    5  A    between atoms: C_6  and  C_8
REMARK    6  A    between atoms: C_8  and  C_9
REMARK    7  A    between atoms: C_11  and  C_14
REMARK                            x       y       z     vdW  Elec       q    Type
REMARK                         _______ _______ _______ _____ _____    ______ ____
ROOT
ATOM      1  N   UNL     1     -19.774  41.440 -12.456  0.00  0.00    +0.000 NA
ATOM      2  C   UNL     1     -18.676  40.847 -11.932  0.00  0.00    +0.000 A 
ATOM      3  C   UNL     1     -17.376  41.211 -12.244  0.00  0.00    +0.000 A 
ATOM      4  C   UNL     1     -17.189  42.247 -13.151  0.00  0.00    +0.000 A 
ATOM      5  C   UNL     1     -18.293  42.882 -13.710  0.00  0.00    +0.000 A 
ATOM      6  C   UNL     1     -19.552  42.445 -13.333  0.00  0.00    +0.000 A 
ENDROOT
BRANCH   3   9
ATOM      7  O   UNL     1     -16.078  39.319 -11.708  0.00  0.00    +0.000 OA
ATOM      8  N   UNL     1     -15.251  41.357 -11.062  0.00  0.00    +0.000 N 
ATOM      9  C   UNL     1     -16.214  40.554 -11.660  0.00  0.00    +0.000 C 
ATOM     10  H   UNL     1     -15.341  42.368 -11.021  0.00  0.00    +0.000 HD
ATOM     11  H   UNL     1     -14.418  40.953 -10.645  0.00  0.00    +0.000 HD
ENDBRANCH   3   9
BRANCH   2  12
ATOM     12  N   UNL     1     -18.872  39.814 -11.029  0.00  0.00    +0.000 N 
ATOM     13  H   UNL     1     -18.228  39.032 -11.092  0.00  0.00    +0.000 HD
BRANCH  12  14
ATOM     14  C   UNL     1     -19.579  39.964  -9.780  0.00  0.00    +0.000 C 
BRANCH  14  15
ATOM     15  C   UNL     1     -18.816  40.888  -8.834  0.00  0.00    +0.000 C 
BRANCH  15  16
ATOM     16  C   UNL     1     -19.580  41.166  -7.536  0.00  0.00    +0.000 C 
BRANCH  16  17
ATOM     17  C   UNL     1     -21.068  41.392  -7.807  0.00  0.00    +0.000 C 
ATOM     18  C   UNL     1     -21.685  42.331  -6.782  0.00  0.00    +0.000 C 
ENDBRANCH  16  17
ENDBRANCH  15  16
ENDBRANCH  14  15
ENDBRANCH  12  14
ENDBRANCH   2  12
TORSDOF 6
ENDMDL
MODEL 4
REMARK VINA RESULT:    -5.916      2.027      2.947
REMARK INTER + INTRA:          -8.525
REMARK INTER:                  -8.009
REMARK INTRA:                  -0.516
REMARK UNBOUND:                -0.534
REMARK  Name = 29051520
REMARK  7 active torsions:
REMARK  status: ('A' for Active; 'I' for Inactive)
REMARK    1  A    between atoms: N_2  and  C_7
REMARK    2  A    between atoms: N_2  and  C_10
REMARK    3  A    between atoms: C_5  and  C_6
REMARK    4  A    between atoms: C_5  and  C_7
REMARK    5  A    between atoms: C_6  and  C_8
REMARK    6  A    between atoms: C_8  and  C_9
REMARK    7  A    between atoms: C_11  and  C_14
REMARK                            x       y       z     vdW  Elec       q    Type
REMARK                         _______ _______ _______ _____ _____    ______ ____
ROOT
ATOM      1  N   UNL     1     -17.731  43.224 -10.446  0.00  0.00    +0.000 NA
ATOM      2  C   UNL     1     -17.839  41.998 -11.007  0.00  0.00    +0.000 A 
ATOM      3  C   UNL     1     -17.590  41.732 -12.344  0.00  0.00    +0.000 A 
ATOM      4  C   UNL     1     -17.207  42.792 -13.157  0.00  0.00    +0.000 A 
ATOM      5  C   UNL     1     -17.085  44.068 -12.617  0.00  0.00    +0.000 A 
ATOM      6  C   UNL     1     -17.355  44.229 -11.269  0.00  0.00    +0.000 A 
ENDROOT
BRANCH   3   9
ATOM      7  O   UNL     1     -18.824  39.907 -13.177  0.00  0.00    +0.000 OA
ATOM      8  N   UNL     1     -16.541  39.700 -13.183  0.00  0.00    +0.000 N 
ATOM      9  C   UNL     1     -17.713  40.399 -12.918  0.00  0.00    +0.000 C 
ATOM     10  H   UNL     1     -15.624  40.089 -12.985  0.00  0.00    +0.000 HD
ATOM     11  H   UNL     1     -16.568  38.770 -13.588  0.00  0.00    +0.000 HD
ENDBRANCH   3   9
BRANCH   2  12
ATOM     12  N   UNL     1     -18.222  40.946 -10.188  0.00  0.00    +0.000 N 
ATOM     13  H   UNL     1     -17.718  40.074 -10.309  0.00  0.00    +0.000 HD
BRANCH  12  14
ATOM     14  C   UNL     1     -18.917  41.118  -8.936  0.00  0.00    +0.000 C 
BRANCH  14  15
ATOM     15  C   UNL     1     -20.092  40.147  -8.832  0.00  0.00    +0.000 C 
BRANCH  15  16
ATOM     16  C   UNL     1     -21.300  40.756  -8.113  0.00  0.00    +0.000 C 
BRANCH  16  17
ATOM     17  C   UNL     1     -20.890  41.963  -7.268  0.00  0.00    +0.000 C 
ATOM     18  C   UNL     1     -22.100  42.653  -6.658  0.00  0.00    +0.000 C 
ENDBRANCH  16  17
ENDBRANCH  15  16
ENDBRANCH  14  15
ENDBRANCH  12  14
ENDBRANCH   2  12
TORSDOF 6
ENDMDL
MODEL 5
REMARK VINA RESULT:    -5.419      2.304      4.676
REMARK INTER + INTRA:          -7.854
REMARK INTER:                  -6.985
REMARK INTRA:                  -0.869
REMARK UNBOUND:                -0.534
REMARK  Name = 29051520
REMARK  7 active torsions:
REMARK  status: ('A' for Active; 'I' for Inactive)
REMARK    1  A    between atoms: N_2  and  C_7
REMARK    2  A    between atoms: N_2  and  C_10
REMARK    3  A    between atoms: C_5  and  C_6
REMARK    4  A    between atoms: C_5  and  C_7
REMARK    5  A    between atoms: C_6  and  C_8
REMARK    6  A    between atoms: C_8  and  C_9
REMARK    7  A    between atoms: C_11  and  C_14
REMARK                            x       y       z     vdW  Elec       q    Type
REMARK                         _______ _______ _______ _____ _____    ______ ____
ROOT
ATOM      1  N   UNL     1     -17.131  40.528 -12.469  0.00  0.00    +0.000 NA
ATOM      2  C   UNL     1     -17.258  40.987 -11.203  0.00  0.00    +0.000 A 
ATOM      3  C   UNL     1     -18.326  40.686 -10.373  0.00  0.00    +0.000 A 
ATOM      4  C   UNL     1     -19.327  39.862 -10.874  0.00  0.00    +0.000 A 
ATOM      5  C   UNL     1     -19.232  39.371 -12.171  0.00  0.00    +0.000 A 
ATOM      6  C   UNL     1     -18.124  39.729 -12.920  0.00  0.00    +0.000 A 
ENDROOT
BRANCH   3   9
ATOM      7  O   UNL     1     -18.188  42.383  -8.746  0.00  0.00    +0.000 OA
ATOM      8  N   UNL     1     -18.836  40.307  -8.021  0.00  0.00    +0.000 N 
ATOM      9  C   UNL     1     -18.433  41.194  -9.012  0.00  0.00    +0.000 C 
ATOM     10  H   UNL     1     -19.048  39.334  -8.222  0.00  0.00    +0.000 HD
ATOM     11  H   UNL     1     -18.933  40.608  -7.057  0.00  0.00    +0.000 HD
ENDBRANCH   3   9
BRANCH   2  12
ATOM     12  N   UNL     1     -16.255  41.808 -10.712  0.00  0.00    +0.000 N 
ATOM     13  H   UNL     1     -15.603  41.384 -10.059  0.00  0.00    +0.000 HD
BRANCH  12  14
ATOM     14  C   UNL     1     -15.810  43.013 -11.371  0.00  0.00    +0.000 C 
BRANCH  14  15
ATOM     15  C   UNL     1     -16.991  43.938 -11.660  0.00  0.00    +0.000 C 
BRANCH  15  16
ATOM     16  C   UNL     1     -17.278  44.078 -13.159  0.00  0.00    +0.000 C 
BRANCH  16  17
ATOM     17  C   UNL     1     -18.685  43.584 -13.500  0.00  0.00    +0.000 C 
ATOM     18  C   UNL     1     -19.136  44.086 -14.862  0.00  0.00    +0.000 C 
ENDBRANCH  16  17
ENDBRANCH  15  16
ENDBRANCH  14  15
ENDBRANCH  12  14
ENDBRANCH   2  12
TORSDOF 6
ENDMDL
