MODEL 1
REMARK VINA RESULT:    -6.473      0.000      0.000
REMARK INTER + INTRA:          -8.717
REMARK INTER:                  -7.987
REMARK INTRA:                  -0.730
REMARK UNBOUND:                -0.730
REMARK  Name = 29296277
REMARK  4 active torsions:
REMARK  status: ('A' for Active; 'I' for Inactive)
REMARK    1  A    between atoms: N_3  and  C_7
REMARK    2  A    between atoms: N_3  and  C_9
REMARK    3  A    between atoms: C_8  and  C_12
REMARK    4  A    between atoms: C_9  and  C_14
REMARK                            x       y       z     vdW  Elec       q    Type
REMARK                         _______ _______ _______ _____ _____    ______ ____
ROOT
ATOM      1  N   UNL     1     -18.488  42.245  -8.278  0.00  0.00    +0.000 NA
ATOM      2  C   UNL     1     -18.392  41.578  -9.450  0.00  0.00    +0.000 A 
ATOM      3  C   UNL     1     -19.342  40.681  -9.912  0.00  0.00    +0.000 A 
ATOM      4  C   UNL     1     -20.462  40.455  -9.120  0.00  0.00    +0.000 A 
ATOM      5  C   UNL     1     -20.595  41.121  -7.907  0.00  0.00    +0.000 A 
ATOM      6  C   UNL     1     -19.590  41.999  -7.536  0.00  0.00    +0.000 A 
ENDROOT
BRANCH   3   9
ATOM      7  O   UNL     1     -18.484  38.978 -11.295  0.00  0.00    +0.000 OA
ATOM      8  N   UNL     1     -19.948  40.456 -12.261  0.00  0.00    +0.000 N 
ATOM      9  C   UNL     1     -19.212  39.979 -11.181  0.00  0.00    +0.000 C 
ATOM     10  H   UNL     1     -20.554  41.266 -12.185  0.00  0.00    +0.000 HD
ATOM     11  H   UNL     1     -19.900  40.000 -13.166  0.00  0.00    +0.000 HD
ENDBRANCH   3   9
BRANCH   2  12
ATOM     12  N   UNL     1     -17.248  41.817 -10.253  0.00  0.00    +0.000 N 
ATOM     13  H   UNL     1     -16.398  41.341  -9.970  0.00  0.00    +0.000 HD
BRANCH  12  14
ATOM     14  C   UNL     1     -17.115  42.973 -11.078  0.00  0.00    +0.000 C 
BRANCH  14  17
ATOM     15  O   UNL     1     -17.293  41.873 -13.230  0.00  0.00    +0.000 OA
ATOM     16  N   UNL     1     -15.392  43.071 -12.745  0.00  0.00    +0.000 N 
ATOM     17  C   UNL     1     -16.643  42.569 -12.454  0.00  0.00    +0.000 C 
ATOM     18  H   UNL     1     -14.872  43.644 -12.088  0.00  0.00    +0.000 HD
ATOM     19  H   UNL     1     -14.947  42.880 -13.636  0.00  0.00    +0.000 HD
ENDBRANCH  14  17
ENDBRANCH  12  14
ENDBRANCH   2  12
TORSDOF 4
ENDMDL
MODEL 2
REMARK VINA RESULT:    -5.796      1.960      4.225
REMARK INTER + INTRA:          -7.881
REMARK INTER:                  -7.199
REMARK INTRA:                  -0.682
REMARK UNBOUND:                -0.730
REMARK  Name = 29296277
REMARK  4 active torsions:
REMARK  status: ('A' for Active; 'I' for Inactive)
REMARK    1  A    between atoms: N_3  and  C_7
REMARK    2  A    between atoms: N_3  and  C_9
REMARK    3  A    between atoms: C_8  and  C_12
REMARK    4  A    between atoms: C_9  and  C_14
REMARK                            x       y       z     vdW  Elec       q    Type
REMARK                         _______ _______ _______ _____ _____    ______ ____
ROOT
ATOM      1  N   UNL     1     -17.488  42.943 -10.117  0.00  0.00    +0.000 NA
ATOM      2  C   UNL     1     -18.123  41.770 -10.338  0.00  0.00    +0.000 A 
ATOM      3  C   UNL     1     -18.408  41.268 -11.598  0.00  0.00    +0.000 A 
ATOM      4  C   UNL     1     -18.016  42.017 -12.701  0.00  0.00    +0.000 A 
ATOM      5  C   UNL     1     -17.361  43.229 -12.514  0.00  0.00    +0.000 A 
ATOM      6  C   UNL     1     -17.123  43.644 -11.214  0.00  0.00    +0.000 A 
ENDROOT
BRANCH   3   9
ATOM      7  O   UNL     1     -18.769  38.979 -11.172  0.00  0.00    +0.000 OA
ATOM      8  N   UNL     1     -20.138  39.972 -12.721  0.00  0.00    +0.000 N 
ATOM      9  C   UNL     1     -19.093  39.999 -11.803  0.00  0.00    +0.000 C 
ATOM     10  H   UNL     1     -20.422  40.796 -13.240  0.00  0.00    +0.000 HD
ATOM     11  H   UNL     1     -20.654  39.116 -12.899  0.00  0.00    +0.000 HD
ENDBRANCH   3   9
BRANCH   2  12
ATOM     12  N   UNL     1     -18.516  41.011  -9.207  0.00  0.00    +0.000 N 
ATOM     13  H   UNL     1     -18.533  40.004  -9.331  0.00  0.00    +0.000 HD
BRANCH  12  14
ATOM     14  C   UNL     1     -19.294  41.559  -8.145  0.00  0.00    +0.000 C 
BRANCH  14  17
ATOM     15  O   UNL     1     -21.682  41.604  -7.739  0.00  0.00    +0.000 OA
ATOM     16  N   UNL     1     -20.781  39.831  -8.892  0.00  0.00    +0.000 N 
ATOM     17  C   UNL     1     -20.707  41.032  -8.220  0.00  0.00    +0.000 C 
ATOM     18  H   UNL     1     -19.962  39.376  -9.282  0.00  0.00    +0.000 HD
ATOM     19  H   UNL     1     -21.670  39.359  -9.020  0.00  0.00    +0.000 HD
ENDBRANCH  14  17
ENDBRANCH  12  14
ENDBRANCH   2  12
TORSDOF 4
ENDMDL
MODEL 3
REMARK VINA RESULT:    -5.665      2.124      4.797
REMARK INTER + INTRA:          -7.719
REMARK INTER:                  -7.234
REMARK INTRA:                  -0.486
REMARK UNBOUND:                -0.730
REMARK  Name = 29296277
REMARK  4 active torsions:
REMARK  status: ('A' for Active; 'I' for Inactive)
REMARK    1  A    between atoms: N_3  and  C_7
REMARK    2  A    between atoms: N_3  and  C_9
REMARK    3  A    between atoms: C_8  and  C_12
REMARK    4  A    between atoms: C_9  and  C_14
REMARK                            x       y       z     vdW  Elec       q    Type
REMARK                         _______ _______ _______ _____ _____    ______ ____
ROOT
ATOM      1  N   UNL     1     -19.081  39.690 -10.506  0.00  0.00    +0.000 NA
ATOM      2  C   UNL     1     -18.370  40.818 -10.286  0.00  0.00    +0.000 A 
ATOM      3  C   UNL     1     -17.666  41.495 -11.270  0.00  0.00    +0.000 A 
ATOM      4  C   UNL     1     -17.694  40.980 -12.561  0.00  0.00    +0.000 A 
ATOM      5  C   UNL     1     -18.414  39.821 -12.825  0.00  0.00    +0.000 A 
ATOM      6  C   UNL     1     -19.085  39.219 -11.773  0.00  0.00    +0.000 A 
ENDROOT
BRANCH   3   9
ATOM      7  O   UNL     1     -17.479  43.799 -10.818  0.00  0.00    +0.000 OA
ATOM      8  N   UNL     1     -15.523  42.608 -10.944  0.00  0.00    +0.000 N 
ATOM      9  C   UNL     1     -16.910  42.711 -11.003  0.00  0.00    +0.000 C 
ATOM     10  H   UNL     1     -15.041  41.726 -11.084  0.00  0.00    +0.000 HD
ATOM     11  H   UNL     1     -14.948  43.422 -10.754  0.00  0.00    +0.000 HD
ENDBRANCH   3   9
BRANCH   2  12
ATOM     12  N   UNL     1     -18.349  41.338  -8.968  0.00  0.00    +0.000 N 
ATOM     13  H   UNL     1     -17.571  41.950  -8.743  0.00  0.00    +0.000 HD
BRANCH  12  14
ATOM     14  C   UNL     1     -19.034  40.715  -7.884  0.00  0.00    +0.000 C 
BRANCH  14  17
ATOM     15  O   UNL     1     -21.375  41.335  -7.946  0.00  0.00    +0.000 OA
ATOM     16  N   UNL     1     -19.941  42.530  -6.603  0.00  0.00    +0.000 N 
ATOM     17  C   UNL     1     -20.246  41.532  -7.505  0.00  0.00    +0.000 C 
ATOM     18  H   UNL     1     -19.000  42.674  -6.252  0.00  0.00    +0.000 HD
ATOM     19  H   UNL     1     -20.658  43.159  -6.259  0.00  0.00    +0.000 HD
ENDBRANCH  14  17
ENDBRANCH  12  14
ENDBRANCH   2  12
TORSDOF 4
ENDMDL
MODEL 4
REMARK VINA RESULT:    -5.589      3.227      4.380
REMARK INTER + INTRA:          -7.627
REMARK INTER:                  -7.010
REMARK INTRA:                  -0.617
REMARK UNBOUND:                -0.730
REMARK  Name = 29296277
REMARK  4 active torsions:
REMARK  status: ('A' for Active; 'I' for Inactive)
REMARK    1  A    between atoms: N_3  and  C_7
REMARK    2  A    between atoms: N_3  and  C_9
REMARK    3  A    between atoms: C_8  and  C_12
REMARK    4  A    between atoms: C_9  and  C_14
REMARK                            x       y       z     vdW  Elec       q    Type
REMARK                         _______ _______ _______ _____ _____    ______ ____
ROOT
ATOM      1  N   UNL     1     -18.346  43.890 -13.392  0.00  0.00    +0.000 NA
ATOM      2  C   UNL     1     -18.893  42.664 -13.235  0.00  0.00    +0.000 A 
ATOM      3  C   UNL     1     -18.677  41.853 -12.132  0.00  0.00    +0.000 A 
ATOM      4  C   UNL     1     -17.847  42.334 -11.124  0.00  0.00    +0.000 A 
ATOM      5  C   UNL     1     -17.267  43.590 -11.250  0.00  0.00    +0.000 A 
ATOM      6  C   UNL     1     -17.546  44.323 -12.392  0.00  0.00    +0.000 A 
ENDROOT
BRANCH   3   9
ATOM      7  O   UNL     1     -19.212  39.692 -12.900  0.00  0.00    +0.000 OA
ATOM      8  N   UNL     1     -19.924  40.247 -10.791  0.00  0.00    +0.000 N 
ATOM      9  C   UNL     1     -19.281  40.536 -11.991  0.00  0.00    +0.000 C 
ATOM     10  H   UNL     1     -19.983  40.920 -10.034  0.00  0.00    +0.000 HD
ATOM     11  H   UNL     1     -20.356  39.341 -10.637  0.00  0.00    +0.000 HD
ENDBRANCH   3   9
BRANCH   2  12
ATOM     12  N   UNL     1     -19.739  42.183 -14.265  0.00  0.00    +0.000 N 
ATOM     13  H   UNL     1     -19.521  41.259 -14.626  0.00  0.00    +0.000 HD
BRANCH  12  14
ATOM     14  C   UNL     1     -20.514  43.049 -15.092  0.00  0.00    +0.000 C 
BRANCH  14  17
ATOM     15  O   UNL     1     -20.320  42.195 -17.351  0.00  0.00    +0.000 OA
ATOM     16  N   UNL     1     -19.071  44.027 -16.742  0.00  0.00    +0.000 N 
ATOM     17  C   UNL     1     -19.983  43.019 -16.505  0.00  0.00    +0.000 C 
ATOM     18  H   UNL     1     -18.807  44.697 -16.027  0.00  0.00    +0.000 HD
ATOM     19  H   UNL     1     -18.632  44.130 -17.650  0.00  0.00    +0.000 HD
ENDBRANCH  14  17
ENDBRANCH  12  14
ENDBRANCH   2  12
TORSDOF 4
ENDMDL
MODEL 5
REMARK VINA RESULT:    -5.345      2.248      3.410
REMARK INTER + INTRA:          -7.325
REMARK INTER:                  -6.880
REMARK INTRA:                  -0.445
REMARK UNBOUND:                -0.730
REMARK  Name = 29296277
REMARK  4 active torsions:
REMARK  status: ('A' for Active; 'I' for Inactive)
REMARK    1  A    between atoms: N_3  and  C_7
REMARK    2  A    between atoms: N_3  and  C_9
REMARK    3  A    between atoms: C_8  and  C_12
REMARK    4  A    between atoms: C_9  and  C_14
REMARK                            x       y       z     vdW  Elec       q    Type
REMARK                         _______ _______ _______ _____ _____    ______ ____
ROOT
ATOM      1  N   UNL     1     -17.250  40.705 -12.410  0.00  0.00    +0.000 NA
ATOM      2  C   UNL     1     -17.381  41.139 -11.136  0.00  0.00    +0.000 A 
ATOM      3  C   UNL     1     -18.387  40.728 -10.276  0.00  0.00    +0.000 A 
ATOM      4  C   UNL     1     -19.317  39.811 -10.755  0.00  0.00    +0.000 A 
ATOM      5  C   UNL     1     -19.215  39.342 -12.059  0.00  0.00    +0.000 A 
ATOM      6  C   UNL     1     -18.172  39.816 -12.839  0.00  0.00    +0.000 A 
ENDROOT
BRANCH   3   9
ATOM      7  O   UNL     1     -18.301  42.405  -8.625  0.00  0.00    +0.000 OA
ATOM      8  N   UNL     1     -18.864  40.294  -7.927  0.00  0.00    +0.000 N 
ATOM      9  C   UNL     1     -18.502  41.212  -8.908  0.00  0.00    +0.000 C 
ATOM     10  H   UNL     1     -19.040  39.318  -8.140  0.00  0.00    +0.000 HD
ATOM     11  H   UNL     1     -18.965  40.579  -6.958  0.00  0.00    +0.000 HD
ENDBRANCH   3   9
BRANCH   2  12
ATOM     12  N   UNL     1     -16.427  42.072 -10.656  0.00  0.00    +0.000 N 
ATOM     13  H   UNL     1     -16.345  42.144  -9.647  0.00  0.00    +0.000 HD
BRANCH  12  14
ATOM     14  C   UNL     1     -15.964  43.170 -11.437  0.00  0.00    +0.000 C 
BRANCH  14  17
ATOM     15  O   UNL     1     -13.715  42.470 -10.870  0.00  0.00    +0.000 OA
ATOM     16  N   UNL     1     -14.047  43.717 -12.773  0.00  0.00    +0.000 N 
ATOM     17  C   UNL     1     -14.470  43.066 -11.634  0.00  0.00    +0.000 C 
ATOM     18  H   UNL     1     -14.690  44.203 -13.390  0.00  0.00    +0.000 HD
ATOM     19  H   UNL     1     -13.067  43.730 -13.032  0.00  0.00    +0.000 HD
ENDBRANCH  14  17
ENDBRANCH  12  14
ENDBRANCH   2  12
TORSDOF 4
ENDMDL
