MODEL 1
REMARK VINA RESULT:    -5.893      0.000      0.000
REMARK INTER + INTRA:          -7.387
REMARK INTER:                  -6.927
REMARK INTRA:                  -0.460
REMARK UNBOUND:                -0.460
REMARK  Name = 29541399
REMARK  4 active torsions:
REMARK  status: ('A' for Active; 'I' for Inactive)
REMARK    1  A    between atoms: N_2  and  C_5
REMARK    2  A    between atoms: N_2  and  C_6
REMARK    3  A    between atoms: C_6  and  C_9
REMARK    4  A    between atoms: C_7  and  C_11
REMARK                            x       y       z     vdW  Elec       q    Type
REMARK                         _______ _______ _______ _____ _____    ______ ____
ROOT
ATOM      1  N   UNL     1     -18.531  42.243  -8.284  0.00  0.00    +0.000 NA
ATOM      2  C   UNL     1     -18.424  41.584  -9.460  0.00  0.00    +0.000 A 
ATOM      3  C   UNL     1     -19.343  40.650  -9.912  0.00  0.00    +0.000 A 
ATOM      4  C   UNL     1     -20.442  40.376  -9.106  0.00  0.00    +0.000 A 
ATOM      5  C   UNL     1     -20.587  41.034  -7.889  0.00  0.00    +0.000 A 
ATOM      6  C   UNL     1     -19.613  41.950  -7.528  0.00  0.00    +0.000 A 
ENDROOT
BRANCH   3   9
ATOM      7  O   UNL     1     -18.453  38.974 -11.306  0.00  0.00    +0.000 OA
ATOM      8  N   UNL     1     -19.951  40.424 -12.261  0.00  0.00    +0.000 N 
ATOM      9  C   UNL     1     -19.202  39.958 -11.185  0.00  0.00    +0.000 C 
ATOM     10  H   UNL     1     -20.573  41.222 -12.178  0.00  0.00    +0.000 HD
ATOM     11  H   UNL     1     -19.896  39.976 -13.169  0.00  0.00    +0.000 HD
ENDBRANCH   3   9
BRANCH   2  12
ATOM     12  N   UNL     1     -17.300  41.868 -10.276  0.00  0.00    +0.000 N 
ATOM     13  H   UNL     1     -16.745  41.071 -10.568  0.00  0.00    +0.000 HD
BRANCH  12  14
ATOM     14  C   UNL     1     -17.191  43.065 -11.044  0.00  0.00    +0.000 C 
ATOM     15  C   UNL     1     -17.093  42.758 -12.529  0.00  0.00    +0.000 C 
ENDBRANCH  12  14
ENDBRANCH   2  12
TORSDOF 3
ENDMDL
MODEL 2
REMARK VINA RESULT:    -5.181      1.097      3.657
REMARK INTER + INTRA:          -6.550
REMARK INTER:                  -6.081
REMARK INTRA:                  -0.469
REMARK UNBOUND:                -0.460
REMARK  Name = 29541399
REMARK  4 active torsions:
REMARK  status: ('A' for Active; 'I' for Inactive)
REMARK    1  A    between atoms: N_2  and  C_5
REMARK    2  A    between atoms: N_2  and  C_6
REMARK    3  A    between atoms: C_6  and  C_9
REMARK    4  A    between atoms: C_7  and  C_11
REMARK                            x       y       z     vdW  Elec       q    Type
REMARK                         _______ _______ _______ _____ _____    ______ ____
ROOT
ATOM      1  N   UNL     1     -16.718  42.783 -10.690  0.00  0.00    +0.000 NA
ATOM      2  C   UNL     1     -17.531  41.704 -10.727  0.00  0.00    +0.000 A 
ATOM      3  C   UNL     1     -18.077  41.182 -11.890  0.00  0.00    +0.000 A 
ATOM      4  C   UNL     1     -17.768  41.811 -13.092  0.00  0.00    +0.000 A 
ATOM      5  C   UNL     1     -16.936  42.925 -13.094  0.00  0.00    +0.000 A 
ATOM      6  C   UNL     1     -16.441  43.367 -11.878  0.00  0.00    +0.000 A 
ENDROOT
BRANCH   3   9
ATOM      7  O   UNL     1     -18.671  38.999 -11.240  0.00  0.00    +0.000 OA
ATOM      8  N   UNL     1     -20.111  40.083 -12.658  0.00  0.00    +0.000 N 
ATOM      9  C   UNL     1     -18.947  40.016 -11.899  0.00  0.00    +0.000 C 
ATOM     10  H   UNL     1     -20.355  40.908 -13.197  0.00  0.00    +0.000 HD
ATOM     11  H   UNL     1     -20.756  39.302 -12.695  0.00  0.00    +0.000 HD
ENDBRANCH   3   9
BRANCH   2  12
ATOM     12  N   UNL     1     -17.842  41.069  -9.498  0.00  0.00    +0.000 N 
ATOM     13  H   UNL     1     -17.152  40.413  -9.146  0.00  0.00    +0.000 HD
BRANCH  12  14
ATOM     14  C   UNL     1     -18.771  41.614  -8.564  0.00  0.00    +0.000 C 
ATOM     15  C   UNL     1     -19.973  40.702  -8.389  0.00  0.00    +0.000 C 
ENDBRANCH  12  14
ENDBRANCH   2  12
TORSDOF 3
ENDMDL
MODEL 3
REMARK VINA RESULT:    -5.130      2.109      4.268
REMARK INTER + INTRA:          -6.490
REMARK INTER:                  -6.096
REMARK INTRA:                  -0.394
REMARK UNBOUND:                -0.460
REMARK  Name = 29541399
REMARK  4 active torsions:
REMARK  status: ('A' for Active; 'I' for Inactive)
REMARK    1  A    between atoms: N_2  and  C_5
REMARK    2  A    between atoms: N_2  and  C_6
REMARK    3  A    between atoms: C_6  and  C_9
REMARK    4  A    between atoms: C_7  and  C_11
REMARK                            x       y       z     vdW  Elec       q    Type
REMARK                         _______ _______ _______ _____ _____    ______ ____
ROOT
ATOM      1  N   UNL     1     -19.140  39.793 -10.733  0.00  0.00    +0.000 NA
ATOM      2  C   UNL     1     -18.190  40.733 -10.523  0.00  0.00    +0.000 A 
ATOM      3  C   UNL     1     -17.336  41.205 -11.507  0.00  0.00    +0.000 A 
ATOM      4  C   UNL     1     -17.464  40.678 -12.788  0.00  0.00    +0.000 A 
ATOM      5  C   UNL     1     -18.428  39.708 -13.042  0.00  0.00    +0.000 A 
ATOM      6  C   UNL     1     -19.234  39.304 -11.990  0.00  0.00    +0.000 A 
ENDROOT
BRANCH   3   9
ATOM      7  O   UNL     1     -16.639  43.400 -11.018  0.00  0.00    +0.000 OA
ATOM      8  N   UNL     1     -14.992  41.823 -11.263  0.00  0.00    +0.000 N 
ATOM      9  C   UNL     1     -16.325  42.220 -11.253  0.00  0.00    +0.000 C 
ATOM     10  H   UNL     1     -14.718  40.863 -11.447  0.00  0.00    +0.000 HD
ATOM     11  H   UNL     1     -14.247  42.488 -11.086  0.00  0.00    +0.000 HD
ENDBRANCH   3   9
BRANCH   2  12
ATOM     12  N   UNL     1     -18.066  41.265  -9.216  0.00  0.00    +0.000 N 
ATOM     13  H   UNL     1     -17.662  42.193  -9.146  0.00  0.00    +0.000 HD
BRANCH  12  14
ATOM     14  C   UNL     1     -18.854  40.805  -8.120  0.00  0.00    +0.000 C 
ATOM     15  C   UNL     1     -19.664  41.936  -7.512  0.00  0.00    +0.000 C 
ENDBRANCH  12  14
ENDBRANCH   2  12
TORSDOF 3
ENDMDL
MODEL 4
REMARK VINA RESULT:    -5.028      1.927      4.361
REMARK INTER + INTRA:          -6.370
REMARK INTER:                  -5.851
REMARK INTRA:                  -0.519
REMARK UNBOUND:                -0.460
REMARK  Name = 29541399
REMARK  4 active torsions:
REMARK  status: ('A' for Active; 'I' for Inactive)
REMARK    1  A    between atoms: N_2  and  C_5
REMARK    2  A    between atoms: N_2  and  C_6
REMARK    3  A    between atoms: C_6  and  C_9
REMARK    4  A    between atoms: C_7  and  C_11
REMARK                            x       y       z     vdW  Elec       q    Type
REMARK                         _______ _______ _______ _____ _____    ______ ____
ROOT
ATOM      1  N   UNL     1     -19.754  41.410 -12.449  0.00  0.00    +0.000 NA
ATOM      2  C   UNL     1     -18.650  40.843 -11.912  0.00  0.00    +0.000 A 
ATOM      3  C   UNL     1     -17.354  41.208 -12.239  0.00  0.00    +0.000 A 
ATOM      4  C   UNL     1     -17.180  42.221 -13.176  0.00  0.00    +0.000 A 
ATOM      5  C   UNL     1     -18.291  42.828 -13.751  0.00  0.00    +0.000 A 
ATOM      6  C   UNL     1     -19.545  42.390 -13.356  0.00  0.00    +0.000 A 
ENDROOT
BRANCH   3   9
ATOM      7  O   UNL     1     -16.025  39.349 -11.671  0.00  0.00    +0.000 OA
ATOM      8  N   UNL     1     -15.236  41.411 -11.052  0.00  0.00    +0.000 N 
ATOM      9  C   UNL     1     -16.183  40.581 -11.642  0.00  0.00    +0.000 C 
ATOM     10  H   UNL     1     -15.346  42.420 -11.025  0.00  0.00    +0.000 HD
ATOM     11  H   UNL     1     -14.399  41.028 -10.626  0.00  0.00    +0.000 HD
ENDBRANCH   3   9
BRANCH   2  12
ATOM     12  N   UNL     1     -18.836  39.811 -10.958  0.00  0.00    +0.000 N 
ATOM     13  H   UNL     1     -18.201  39.022 -11.022  0.00  0.00    +0.000 HD
BRANCH  12  14
ATOM     14  C   UNL     1     -19.499  40.025  -9.714  0.00  0.00    +0.000 C 
ATOM     15  C   UNL     1     -18.590  40.728  -8.720  0.00  0.00    +0.000 C 
ENDBRANCH  12  14
ENDBRANCH   2  12
TORSDOF 3
ENDMDL
MODEL 5
REMARK VINA RESULT:    -4.939      1.530      2.006
REMARK INTER + INTRA:          -6.265
REMARK INTER:                  -5.783
REMARK INTRA:                  -0.482
REMARK UNBOUND:                -0.460
REMARK  Name = 29541399
REMARK  4 active torsions:
REMARK  status: ('A' for Active; 'I' for Inactive)
REMARK    1  A    between atoms: N_2  and  C_5
REMARK    2  A    between atoms: N_2  and  C_6
REMARK    3  A    between atoms: C_6  and  C_9
REMARK    4  A    between atoms: C_7  and  C_11
REMARK                            x       y       z     vdW  Elec       q    Type
REMARK                         _______ _______ _______ _____ _____    ______ ____
ROOT
ATOM      1  N   UNL     1     -17.749  42.720 -10.221  0.00  0.00    +0.000 NA
ATOM      2  C   UNL     1     -17.923  41.900 -11.282  0.00  0.00    +0.000 A 
ATOM      3  C   UNL     1     -18.515  40.649 -11.207  0.00  0.00    +0.000 A 
ATOM      4  C   UNL     1     -18.958  40.213  -9.963  0.00  0.00    +0.000 A 
ATOM      5  C   UNL     1     -18.796  41.028  -8.848  0.00  0.00    +0.000 A 
ATOM      6  C   UNL     1     -18.192  42.261  -9.029  0.00  0.00    +0.000 A 
ENDROOT
BRANCH   3   9
ATOM      7  O   UNL     1     -17.784  39.638 -13.204  0.00  0.00    +0.000 OA
ATOM      8  N   UNL     1     -19.906  39.125 -12.501  0.00  0.00    +0.000 N 
ATOM      9  C   UNL     1     -18.691  39.789 -12.368  0.00  0.00    +0.000 C 
ATOM     10  H   UNL     1     -20.655  39.231 -11.825  0.00  0.00    +0.000 HD
ATOM     11  H   UNL     1     -20.081  38.508 -13.288  0.00  0.00    +0.000 HD
ENDBRANCH   3   9
BRANCH   2  12
ATOM     12  N   UNL     1     -17.469  42.351 -12.547  0.00  0.00    +0.000 N 
ATOM     13  H   UNL     1     -16.935  41.685 -13.096  0.00  0.00    +0.000 HD
BRANCH  12  14
ATOM     14  C   UNL     1     -18.078  43.439 -13.239  0.00  0.00    +0.000 C 
ATOM     15  C   UNL     1     -19.251  42.966 -14.081  0.00  0.00    +0.000 C 
ENDBRANCH  12  14
ENDBRANCH   2  12
TORSDOF 3
ENDMDL
