MODEL 1
REMARK VINA RESULT:    -5.640      0.000      0.000
REMARK INTER + INTRA:          -7.366
REMARK INTER:                  -6.795
REMARK INTRA:                  -0.571
REMARK UNBOUND:                -0.571
REMARK  Name = 29922303
REMARK  5 active torsions:
REMARK  status: ('A' for Active; 'I' for Inactive)
REMARK    1  A    between atoms: N_3  and  C_9
REMARK    2  A    between atoms: C_4  and  C_5
REMARK    3  A    between atoms: C_4  and  C_6
REMARK    4  A    between atoms: C_5  and  C_8
REMARK    5  A    between atoms: C_6  and  C_7
REMARK                            x       y       z     vdW  Elec       q    Type
REMARK                         _______ _______ _______ _____ _____    ______ ____
ROOT
ATOM      1  N   UNL     1     -18.805  42.351  -7.909  0.00  0.00    +0.000 NA
ATOM      2  C   UNL     1     -19.274  40.834  -9.732  0.00  0.00    +0.000 A 
ATOM      3  C   UNL     1     -18.491  41.783  -9.095  0.00  0.00    +0.000 A 
ATOM      4  C   UNL     1     -20.455  40.442  -9.113  0.00  0.00    +0.000 A 
ATOM      5  C   UNL     1     -20.813  41.003  -7.892  0.00  0.00    +0.000 A 
ATOM      6  C   UNL     1     -19.961  41.945  -7.337  0.00  0.00    +0.000 A 
ENDROOT
BRANCH   3   7
ATOM      7  N   UNL     1     -17.283  42.185  -9.720  0.00  0.00    +0.000 N 
ATOM      8  H   UNL     1     -16.487  41.561  -9.679  0.00  0.00    +0.000 HD
ATOM      9  H   UNL     1     -17.098  43.181  -9.743  0.00  0.00    +0.000 HD
ENDBRANCH   3   7
BRANCH   2  11
ATOM     10  O   UNL     1     -17.996  39.386 -11.075  0.00  0.00    +0.000 OA
ATOM     11  C   UNL     1     -18.897  40.222 -11.041  0.00  0.00    +0.000 C 
BRANCH  11  12
ATOM     12  C   UNL     1     -19.645  40.655 -12.293  0.00  0.00    +0.000 C 
BRANCH  12  13
ATOM     13  C   UNL     1     -19.248  42.059 -12.745  0.00  0.00    +0.000 C 
ATOM     14  C   UNL     1     -17.846  42.081 -13.331  0.00  0.00    +0.000 C 
ENDBRANCH  12  13
ENDBRANCH  11  12
ENDBRANCH   2  11
TORSDOF 4
ENDMDL
MODEL 2
REMARK VINA RESULT:    -5.481      2.100      4.338
REMARK INTER + INTRA:          -7.174
REMARK INTER:                  -6.833
REMARK INTRA:                  -0.342
REMARK UNBOUND:                -0.571
REMARK  Name = 29922303
REMARK  5 active torsions:
REMARK  status: ('A' for Active; 'I' for Inactive)
REMARK    1  A    between atoms: N_3  and  C_9
REMARK    2  A    between atoms: C_4  and  C_5
REMARK    3  A    between atoms: C_4  and  C_6
REMARK    4  A    between atoms: C_5  and  C_8
REMARK    5  A    between atoms: C_6  and  C_7
REMARK                            x       y       z     vdW  Elec       q    Type
REMARK                         _______ _______ _______ _____ _____    ______ ____
ROOT
ATOM      1  N   UNL     1     -17.054  40.667 -12.495  0.00  0.00    +0.000 NA
ATOM      2  C   UNL     1     -18.287  40.954 -10.435  0.00  0.00    +0.000 A 
ATOM      3  C   UNL     1     -17.211  41.215 -11.269  0.00  0.00    +0.000 A 
ATOM      4  C   UNL     1     -19.264  40.076 -10.888  0.00  0.00    +0.000 A 
ATOM      5  C   UNL     1     -19.139  39.492 -12.144  0.00  0.00    +0.000 A 
ATOM      6  C   UNL     1     -18.025  39.818 -12.902  0.00  0.00    +0.000 A 
ENDROOT
BRANCH   3   7
ATOM      7  N   UNL     1     -16.212  42.112 -10.814  0.00  0.00    +0.000 N 
ATOM      8  H   UNL     1     -15.655  42.604 -11.502  0.00  0.00    +0.000 HD
ATOM      9  H   UNL     1     -15.773  41.886  -9.929  0.00  0.00    +0.000 HD
ENDBRANCH   3   7
BRANCH   2  11
ATOM     10  O   UNL     1     -18.030  42.726  -8.910  0.00  0.00    +0.000 OA
ATOM     11  C   UNL     1     -18.434  41.578  -9.087  0.00  0.00    +0.000 C 
BRANCH  11  12
ATOM     12  C   UNL     1     -19.080  40.769  -7.972  0.00  0.00    +0.000 C 
BRANCH  12  13
ATOM     13  C   UNL     1     -19.977  41.627  -7.081  0.00  0.00    +0.000 C 
ATOM     14  C   UNL     1     -21.441  41.488  -7.466  0.00  0.00    +0.000 C 
ENDBRANCH  12  13
ENDBRANCH  11  12
ENDBRANCH   2  11
TORSDOF 4
ENDMDL
MODEL 3
REMARK VINA RESULT:    -5.455      2.134      4.340
REMARK INTER + INTRA:          -7.143
REMARK INTER:                  -6.687
REMARK INTRA:                  -0.456
REMARK UNBOUND:                -0.571
REMARK  Name = 29922303
REMARK  5 active torsions:
REMARK  status: ('A' for Active; 'I' for Inactive)
REMARK    1  A    between atoms: N_3  and  C_9
REMARK    2  A    between atoms: C_4  and  C_5
REMARK    3  A    between atoms: C_4  and  C_6
REMARK    4  A    between atoms: C_5  and  C_8
REMARK    5  A    between atoms: C_6  and  C_7
REMARK                            x       y       z     vdW  Elec       q    Type
REMARK                         _______ _______ _______ _____ _____    ______ ____
ROOT
ATOM      1  N   UNL     1     -19.177  42.684 -13.255  0.00  0.00    +0.000 NA
ATOM      2  C   UNL     1     -18.492  41.592 -11.209  0.00  0.00    +0.000 A 
ATOM      3  C   UNL     1     -19.193  41.633 -12.404  0.00  0.00    +0.000 A 
ATOM      4  C   UNL     1     -17.725  42.699 -10.866  0.00  0.00    +0.000 A 
ATOM      5  C   UNL     1     -17.682  43.799 -11.715  0.00  0.00    +0.000 A 
ATOM      6  C   UNL     1     -18.420  43.742 -12.887  0.00  0.00    +0.000 A 
ENDROOT
BRANCH   3   7
ATOM      7  N   UNL     1     -19.975  40.507 -12.762  0.00  0.00    +0.000 N 
ATOM      8  H   UNL     1     -19.961  40.195 -13.725  0.00  0.00    +0.000 HD
ATOM      9  H   UNL     1     -20.829  40.366 -12.236  0.00  0.00    +0.000 HD
ENDBRANCH   3   7
BRANCH   2  11
ATOM     10  O   UNL     1     -18.451  39.282 -10.767  0.00  0.00    +0.000 OA
ATOM     11  C   UNL     1     -18.527  40.414 -10.293  0.00  0.00    +0.000 C 
BRANCH  11  12
ATOM     12  C   UNL     1     -18.656  40.656  -8.796  0.00  0.00    +0.000 C 
BRANCH  12  13
ATOM     13  C   UNL     1     -20.106  40.884  -8.371  0.00  0.00    +0.000 C 
ATOM     14  C   UNL     1     -20.197  41.840  -7.193  0.00  0.00    +0.000 C 
ENDBRANCH  12  13
ENDBRANCH  11  12
ENDBRANCH   2  11
TORSDOF 4
ENDMDL
MODEL 4
REMARK VINA RESULT:    -5.262      1.802      2.206
REMARK INTER + INTRA:          -6.910
REMARK INTER:                  -6.259
REMARK INTRA:                  -0.650
REMARK UNBOUND:                -0.571
REMARK  Name = 29922303
REMARK  5 active torsions:
REMARK  status: ('A' for Active; 'I' for Inactive)
REMARK    1  A    between atoms: N_3  and  C_9
REMARK    2  A    between atoms: C_4  and  C_5
REMARK    3  A    between atoms: C_4  and  C_6
REMARK    4  A    between atoms: C_5  and  C_8
REMARK    5  A    between atoms: C_6  and  C_7
REMARK                            x       y       z     vdW  Elec       q    Type
REMARK                         _______ _______ _______ _____ _____    ______ ____
ROOT
ATOM      1  N   UNL     1     -20.703  40.198  -9.016  0.00  0.00    +0.000 NA
ATOM      2  C   UNL     1     -18.538  41.087  -9.628  0.00  0.00    +0.000 A 
ATOM      3  C   UNL     1     -19.628  40.255  -9.834  0.00  0.00    +0.000 A 
ATOM      4  C   UNL     1     -18.554  41.915  -8.512  0.00  0.00    +0.000 A 
ATOM      5  C   UNL     1     -19.642  41.886  -7.646  0.00  0.00    +0.000 A 
ATOM      6  C   UNL     1     -20.682  41.018  -7.941  0.00  0.00    +0.000 A 
ENDROOT
BRANCH   3   7
ATOM      7  N   UNL     1     -19.620  39.409 -10.972  0.00  0.00    +0.000 N 
ATOM      8  H   UNL     1     -20.035  39.750 -11.831  0.00  0.00    +0.000 HD
ATOM      9  H   UNL     1     -19.664  38.413 -10.794  0.00  0.00    +0.000 HD
ENDBRANCH   3   7
BRANCH   2  11
ATOM     10  O   UNL     1     -16.707  40.106 -10.731  0.00  0.00    +0.000 OA
ATOM     11  C   UNL     1     -17.367  41.128 -10.552  0.00  0.00    +0.000 C 
BRANCH  11  12
ATOM     12  C   UNL     1     -17.028  42.440 -11.245  0.00  0.00    +0.000 C 
BRANCH  12  13
ATOM     13  C   UNL     1     -18.131  42.888 -12.203  0.00  0.00    +0.000 C 
ATOM     14  C   UNL     1     -18.315  41.899 -13.343  0.00  0.00    +0.000 C 
ENDBRANCH  12  13
ENDBRANCH  11  12
ENDBRANCH   2  11
TORSDOF 4
ENDMDL
MODEL 5
REMARK VINA RESULT:    -5.058      1.340      3.973
REMARK INTER + INTRA:          -6.664
REMARK INTER:                  -6.234
REMARK INTRA:                  -0.430
REMARK UNBOUND:                -0.571
REMARK  Name = 29922303
REMARK  5 active torsions:
REMARK  status: ('A' for Active; 'I' for Inactive)
REMARK    1  A    between atoms: N_3  and  C_9
REMARK    2  A    between atoms: C_4  and  C_5
REMARK    3  A    between atoms: C_4  and  C_6
REMARK    4  A    between atoms: C_5  and  C_8
REMARK    5  A    between atoms: C_6  and  C_7
REMARK                            x       y       z     vdW  Elec       q    Type
REMARK                         _______ _______ _______ _____ _____    ______ ____
ROOT
ATOM      1  N   UNL     1     -17.694  43.609 -12.085  0.00  0.00    +0.000 NA
ATOM      2  C   UNL     1     -18.789  41.516 -11.568  0.00  0.00    +0.000 A 
ATOM      3  C   UNL     1     -17.860  42.512 -11.313  0.00  0.00    +0.000 A 
ATOM      4  C   UNL     1     -19.602  41.655 -12.687  0.00  0.00    +0.000 A 
ATOM      5  C   UNL     1     -19.462  42.770 -13.506  0.00  0.00    +0.000 A 
ATOM      6  C   UNL     1     -18.503  43.710 -13.165  0.00  0.00    +0.000 A 
ENDROOT
BRANCH   3   7
ATOM      7  N   UNL     1     -17.029  42.378 -10.172  0.00  0.00    +0.000 N 
ATOM      8  H   UNL     1     -16.078  42.723 -10.223  0.00  0.00    +0.000 HD
ATOM      9  H   UNL     1     -17.206  41.577  -9.577  0.00  0.00    +0.000 HD
ENDBRANCH   3   7
BRANCH   2  11
ATOM     10  O   UNL     1     -18.242  39.331 -10.890  0.00  0.00    +0.000 OA
ATOM     11  C   UNL     1     -18.949  40.317 -10.693  0.00  0.00    +0.000 C 
BRANCH  11  12
ATOM     12  C   UNL     1     -19.987  40.357  -9.582  0.00  0.00    +0.000 C 
BRANCH  12  13
ATOM     13  C   UNL     1     -19.349  40.485  -8.199  0.00  0.00    +0.000 C 
ATOM     14  C   UNL     1     -19.736  41.793  -7.527  0.00  0.00    +0.000 C 
ENDBRANCH  12  13
ENDBRANCH  11  12
ENDBRANCH   2  11
TORSDOF 4
ENDMDL
