MODEL 1
REMARK VINA RESULT:    -5.589      0.000      0.000
REMARK INTER + INTRA:          -6.750
REMARK INTER:                  -6.406
REMARK INTRA:                  -0.344
REMARK UNBOUND:                -0.344
REMARK  Name = 29922305
REMARK  4 active torsions:
REMARK  status: ('A' for Active; 'I' for Inactive)
REMARK    1  A    between atoms: N_3  and  C_7
REMARK    2  A    between atoms: C_4  and  C_6
REMARK    3  A    between atoms: C_5  and  C_6
REMARK    4  A    between atoms: C_5  and  C_9
REMARK                            x       y       z     vdW  Elec       q    Type
REMARK                         _______ _______ _______ _____ _____    ______ ____
ROOT
ATOM      1  N   UNL     1     -18.762  42.338  -7.886  0.00  0.00    +0.000 NA
ATOM      2  C   UNL     1     -19.325  40.839  -9.697  0.00  0.00    +0.000 A 
ATOM      3  C   UNL     1     -18.498  41.763  -9.080  0.00  0.00    +0.000 A 
ATOM      4  C   UNL     1     -20.500  40.481  -9.045  0.00  0.00    +0.000 A 
ATOM      5  C   UNL     1     -20.807  41.050  -7.815  0.00  0.00    +0.000 A 
ATOM      6  C   UNL     1     -19.913  41.966  -7.283  0.00  0.00    +0.000 A 
ENDROOT
BRANCH   3   7
ATOM      7  N   UNL     1     -17.297  42.131  -9.737  0.00  0.00    +0.000 N 
ATOM      8  H   UNL     1     -16.435  42.139  -9.204  0.00  0.00    +0.000 HD
ATOM      9  H   UNL     1     -17.384  42.796 -10.496  0.00  0.00    +0.000 HD
ENDBRANCH   3   7
BRANCH   2  11
ATOM     10  O   UNL     1     -18.245  39.254 -11.057  0.00  0.00    +0.000 OA
ATOM     11  C   UNL     1     -19.011  40.235 -10.984  0.00  0.00    +0.000 C 
BRANCH  11  12
ATOM     12  C   UNL     1     -19.629  40.807 -12.271  0.00  0.00    +0.000 C 
ATOM     13  C   UNL     1     -18.641  41.595 -13.119  0.00  0.00    +0.000 C 
ENDBRANCH  11  12
ENDBRANCH   2  11
TORSDOF 3
ENDMDL
MODEL 2
REMARK VINA RESULT:    -5.195      2.255      4.042
REMARK INTER + INTRA:          -6.298
REMARK INTER:                  -5.922
REMARK INTRA:                  -0.377
REMARK UNBOUND:                -0.344
REMARK  Name = 29922305
REMARK  4 active torsions:
REMARK  status: ('A' for Active; 'I' for Inactive)
REMARK    1  A    between atoms: N_3  and  C_7
REMARK    2  A    between atoms: C_4  and  C_6
REMARK    3  A    between atoms: C_5  and  C_6
REMARK    4  A    between atoms: C_5  and  C_9
REMARK                            x       y       z     vdW  Elec       q    Type
REMARK                         _______ _______ _______ _____ _____    ______ ____
ROOT
ATOM      1  N   UNL     1     -19.000  42.783 -13.148  0.00  0.00    +0.000 NA
ATOM      2  C   UNL     1     -18.576  41.537 -11.120  0.00  0.00    +0.000 A 
ATOM      3  C   UNL     1     -19.161  41.692 -12.366  0.00  0.00    +0.000 A 
ATOM      4  C   UNL     1     -17.772  42.568 -10.645  0.00  0.00    +0.000 A 
ATOM      5  C   UNL     1     -17.582  43.706 -11.421  0.00  0.00    +0.000 A 
ATOM      6  C   UNL     1     -18.213  43.764 -12.653  0.00  0.00    +0.000 A 
ENDROOT
BRANCH   3   7
ATOM      7  N   UNL     1     -19.978  40.644 -12.858  0.00  0.00    +0.000 N 
ATOM      8  H   UNL     1     -20.983  40.774 -12.864  0.00  0.00    +0.000 HD
ATOM      9  H   UNL     1     -19.630  39.702 -12.729  0.00  0.00    +0.000 HD
ENDBRANCH   3   7
BRANCH   2  11
ATOM     10  O   UNL     1     -18.601  39.210 -10.785  0.00  0.00    +0.000 OA
ATOM     11  C   UNL     1     -18.766  40.347 -10.302  0.00  0.00    +0.000 C 
BRANCH  11  12
ATOM     12  C   UNL     1     -19.175  40.489  -8.826  0.00  0.00    +0.000 C 
ATOM     13  C   UNL     1     -20.681  40.513  -8.614  0.00  0.00    +0.000 C 
ENDBRANCH  11  12
ENDBRANCH   2  11
TORSDOF 3
ENDMDL
MODEL 3
REMARK VINA RESULT:    -5.188      2.042      2.747
REMARK INTER + INTRA:          -6.291
REMARK INTER:                  -5.844
REMARK INTRA:                  -0.447
REMARK UNBOUND:                -0.344
REMARK  Name = 29922305
REMARK  4 active torsions:
REMARK  status: ('A' for Active; 'I' for Inactive)
REMARK    1  A    between atoms: N_3  and  C_7
REMARK    2  A    between atoms: C_4  and  C_6
REMARK    3  A    between atoms: C_5  and  C_6
REMARK    4  A    between atoms: C_5  and  C_9
REMARK                            x       y       z     vdW  Elec       q    Type
REMARK                         _______ _______ _______ _____ _____    ______ ____
ROOT
ATOM      1  N   UNL     1     -19.706  39.680  -9.677  0.00  0.00    +0.000 NA
ATOM      2  C   UNL     1     -18.251  40.784 -11.261  0.00  0.00    +0.000 A 
ATOM      3  C   UNL     1     -19.153  39.795 -10.906  0.00  0.00    +0.000 A 
ATOM      4  C   UNL     1     -17.893  41.717 -10.294  0.00  0.00    +0.000 A 
ATOM      5  C   UNL     1     -18.440  41.632  -9.019  0.00  0.00    +0.000 A 
ATOM      6  C   UNL     1     -19.333  40.604  -8.764  0.00  0.00    +0.000 A 
ENDROOT
BRANCH   3   7
ATOM      7  N   UNL     1     -19.526  38.843 -11.887  0.00  0.00    +0.000 N 
ATOM      8  H   UNL     1     -20.219  39.104 -12.577  0.00  0.00    +0.000 HD
ATOM      9  H   UNL     1     -19.485  37.870 -11.609  0.00  0.00    +0.000 HD
ENDBRANCH   3   7
BRANCH   2  11
ATOM     10  O   UNL     1     -16.965  39.966 -13.052  0.00  0.00    +0.000 OA
ATOM     11  C   UNL     1     -17.675  40.884 -12.595  0.00  0.00    +0.000 C 
BRANCH  11  12
ATOM     12  C   UNL     1     -17.941  42.131 -13.454  0.00  0.00    +0.000 C 
ATOM     13  C   UNL     1     -19.415  42.490 -13.561  0.00  0.00    +0.000 C 
ENDBRANCH  11  12
ENDBRANCH   2  11
TORSDOF 3
ENDMDL
MODEL 4
REMARK VINA RESULT:    -5.187      1.946      2.317
REMARK INTER + INTRA:          -6.290
REMARK INTER:                  -5.875
REMARK INTRA:                  -0.415
REMARK UNBOUND:                -0.344
REMARK  Name = 29922305
REMARK  4 active torsions:
REMARK  status: ('A' for Active; 'I' for Inactive)
REMARK    1  A    between atoms: N_3  and  C_7
REMARK    2  A    between atoms: C_4  and  C_6
REMARK    3  A    between atoms: C_5  and  C_6
REMARK    4  A    between atoms: C_5  and  C_9
REMARK                            x       y       z     vdW  Elec       q    Type
REMARK                         _______ _______ _______ _____ _____    ______ ____
ROOT
ATOM      1  N   UNL     1     -21.045  40.379  -8.658  0.00  0.00    +0.000 NA
ATOM      2  C   UNL     1     -18.863  41.257  -9.218  0.00  0.00    +0.000 A 
ATOM      3  C   UNL     1     -19.952  40.433  -9.451  0.00  0.00    +0.000 A 
ATOM      4  C   UNL     1     -18.899  42.081  -8.098  0.00  0.00    +0.000 A 
ATOM      5  C   UNL     1     -20.006  42.054  -7.258  0.00  0.00    +0.000 A 
ATOM      6  C   UNL     1     -21.044  41.193  -7.579  0.00  0.00    +0.000 A 
ENDROOT
BRANCH   3   7
ATOM      7  N   UNL     1     -19.924  39.593 -10.593  0.00  0.00    +0.000 N 
ATOM      8  H   UNL     1     -20.110  38.605 -10.472  0.00  0.00    +0.000 HD
ATOM      9  H   UNL     1     -19.290  39.863 -11.335  0.00  0.00    +0.000 HD
ENDBRANCH   3   7
BRANCH   2  11
ATOM     10  O   UNL     1     -17.024  40.267 -10.298  0.00  0.00    +0.000 OA
ATOM     11  C   UNL     1     -17.700  41.295 -10.093  0.00  0.00    +0.000 C 
BRANCH  11  12
ATOM     12  C   UNL     1     -17.296  42.612 -10.775  0.00  0.00    +0.000 C 
ATOM     13  C   UNL     1     -18.034  42.870 -12.081  0.00  0.00    +0.000 C 
ENDBRANCH  11  12
ENDBRANCH   2  11
TORSDOF 3
ENDMDL
MODEL 5
REMARK VINA RESULT:    -4.968      2.094      4.208
REMARK INTER + INTRA:          -6.039
REMARK INTER:                  -5.705
REMARK INTRA:                  -0.333
REMARK UNBOUND:                -0.344
REMARK  Name = 29922305
REMARK  4 active torsions:
REMARK  status: ('A' for Active; 'I' for Inactive)
REMARK    1  A    between atoms: N_3  and  C_7
REMARK    2  A    between atoms: C_4  and  C_6
REMARK    3  A    between atoms: C_5  and  C_6
REMARK    4  A    between atoms: C_5  and  C_9
REMARK                            x       y       z     vdW  Elec       q    Type
REMARK                         _______ _______ _______ _____ _____    ______ ____
ROOT
ATOM      1  N   UNL     1     -18.724  41.100 -11.691  0.00  0.00    +0.000 NA
ATOM      2  C   UNL     1     -18.820  41.511  -9.310  0.00  0.00    +0.000 A 
ATOM      3  C   UNL     1     -19.180  40.812 -10.451  0.00  0.00    +0.000 A 
ATOM      4  C   UNL     1     -17.934  42.573  -9.450  0.00  0.00    +0.000 A 
ATOM      5  C   UNL     1     -17.443  42.900 -10.709  0.00  0.00    +0.000 A 
ATOM      6  C   UNL     1     -17.866  42.139 -11.788  0.00  0.00    +0.000 A 
ENDROOT
BRANCH   3   7
ATOM      7  N   UNL     1     -20.080  39.725 -10.316  0.00  0.00    +0.000 N 
ATOM      8  H   UNL     1     -19.729  38.785 -10.456  0.00  0.00    +0.000 HD
ATOM      9  H   UNL     1     -21.045  39.907 -10.563  0.00  0.00    +0.000 HD
ENDBRANCH   3   7
BRANCH   2  11
ATOM     10  O   UNL     1     -19.304  39.996  -7.578  0.00  0.00    +0.000 OA
ATOM     11  C   UNL     1     -19.326  41.174  -7.987  0.00  0.00    +0.000 C 
BRANCH  11  12
ATOM     12  C   UNL     1     -19.894  42.278  -7.079  0.00  0.00    +0.000 C 
ATOM     13  C   UNL     1     -21.339  42.042  -6.670  0.00  0.00    +0.000 C 
ENDBRANCH  11  12
ENDBRANCH   2  11
TORSDOF 3
ENDMDL
