MODEL 1
REMARK VINA RESULT:    -7.810      0.000      0.000
REMARK INTER + INTRA:          -9.599
REMARK INTER:                  -9.180
REMARK INTRA:                  -0.419
REMARK UNBOUND:                -0.419
REMARK  Name = 3031427
REMARK  3 active torsions:
REMARK  status: ('A' for Active; 'I' for Inactive)
REMARK    1  A    between atoms: N_2  and  C_5
REMARK    2  A    between atoms: C_5  and  C_6
REMARK    3  A    between atoms: C_11  and  C_17
REMARK                            x       y       z     vdW  Elec       q    Type
REMARK                         _______ _______ _______ _____ _____    ______ ____
ROOT
ATOM      1  N   UNL     1     -19.984  40.337 -10.185  0.00  0.00    +0.000 N 
ATOM      2  N   UNL     1     -19.453  41.384 -12.259  0.00  0.00    +0.000 NA
ATOM      3  C   UNL     1     -19.178  41.164 -10.931  0.00  0.00    +0.000 A 
ATOM      4  C   UNL     1     -18.075  41.774 -10.310  0.00  0.00    +0.000 A 
ATOM      5  C   UNL     1     -17.526  42.838 -12.397  0.00  0.00    +0.000 A 
ATOM      6  C   UNL     1     -17.250  42.613 -11.053  0.00  0.00    +0.000 A 
ATOM      7  C   UNL     1     -18.630  42.206 -12.948  0.00  0.00    +0.000 A 
ATOM      8  H   UNL     1     -20.775  39.909 -10.649  0.00  0.00    +0.000 HD
ENDROOT
BRANCH   5  11
ATOM      9  O   UNL     1     -15.448  43.728 -13.058  0.00  0.00    +0.000 OA
ATOM     10  N   UNL     1     -17.304  44.510 -14.155  0.00  0.00    +0.000 N 
ATOM     11  C   UNL     1     -16.684  43.708 -13.200  0.00  0.00    +0.000 C 
ATOM     12  H   UNL     1     -18.298  44.548 -14.336  0.00  0.00    +0.000 HD
ATOM     13  H   UNL     1     -16.738  45.122 -14.735  0.00  0.00    +0.000 HD
ENDBRANCH   5  11
BRANCH   1  14
ATOM     14  C   UNL     1     -19.746  40.060  -8.767  0.00  0.00    +0.000 C 
BRANCH  14  15
ATOM     15  C   UNL     1     -20.602  40.893  -7.874  0.00  0.00    +0.000 A 
ATOM     16  C   UNL     1     -21.991  40.779  -7.934  0.00  0.00    +0.000 A 
ATOM     17  C   UNL     1     -20.013  41.786  -6.980  0.00  0.00    +0.000 A 
ATOM     18  C   UNL     1     -22.791  41.558  -7.098  0.00  0.00    +0.000 A 
ATOM     19  C   UNL     1     -20.814  42.565  -6.144  0.00  0.00    +0.000 A 
ATOM     20  C   UNL     1     -22.203  42.451  -6.203  0.00  0.00    +0.000 A 
ENDBRANCH  14  15
ENDBRANCH   1  14
TORSDOF 3
ENDMDL
MODEL 2
REMARK VINA RESULT:    -7.585      1.974      2.320
REMARK INTER + INTRA:          -9.334
REMARK INTER:                  -8.980
REMARK INTRA:                  -0.354
REMARK UNBOUND:                -0.419
REMARK  Name = 3031427
REMARK  3 active torsions:
REMARK  status: ('A' for Active; 'I' for Inactive)
REMARK    1  A    between atoms: N_2  and  C_5
REMARK    2  A    between atoms: C_5  and  C_6
REMARK    3  A    between atoms: C_11  and  C_17
REMARK                            x       y       z     vdW  Elec       q    Type
REMARK                         _______ _______ _______ _____ _____    ______ ____
ROOT
ATOM      1  N   UNL     1     -17.784  41.921  -9.790  0.00  0.00    +0.000 N 
ATOM      2  N   UNL     1     -17.646  43.371 -11.676  0.00  0.00    +0.000 NA
ATOM      3  C   UNL     1     -18.178  42.264 -11.062  0.00  0.00    +0.000 A 
ATOM      4  C   UNL     1     -19.130  41.462 -11.715  0.00  0.00    +0.000 A 
ATOM      5  C   UNL     1     -19.002  42.916 -13.626  0.00  0.00    +0.000 A 
ATOM      6  C   UNL     1     -19.539  41.796 -13.002  0.00  0.00    +0.000 A 
ATOM      7  C   UNL     1     -18.067  43.664 -12.928  0.00  0.00    +0.000 A 
ATOM      8  H   UNL     1     -17.095  42.510  -9.338  0.00  0.00    +0.000 HD
ENDROOT
BRANCH   5  11
ATOM      9  O   UNL     1     -20.004  42.495 -15.716  0.00  0.00    +0.000 OA
ATOM     10  N   UNL     1     -19.125  44.589 -15.394  0.00  0.00    +0.000 N 
ATOM     11  C   UNL     1     -19.408  43.293 -14.969  0.00  0.00    +0.000 C 
ATOM     12  H   UNL     1     -18.651  45.297 -14.848  0.00  0.00    +0.000 HD
ATOM     13  H   UNL     1     -19.405  44.880 -16.325  0.00  0.00    +0.000 HD
ENDBRANCH   5  11
BRANCH   1  14
ATOM     14  C   UNL     1     -18.312  40.756  -9.079  0.00  0.00    +0.000 C 
BRANCH  14  15
ATOM     15  C   UNL     1     -19.564  41.068  -8.331  0.00  0.00    +0.000 A 
ATOM     16  C   UNL     1     -20.754  40.419  -8.661  0.00  0.00    +0.000 A 
ATOM     17  C   UNL     1     -19.546  42.007  -7.300  0.00  0.00    +0.000 A 
ATOM     18  C   UNL     1     -21.925  40.709  -7.961  0.00  0.00    +0.000 A 
ATOM     19  C   UNL     1     -20.717  42.298  -6.600  0.00  0.00    +0.000 A 
ATOM     20  C   UNL     1     -21.907  41.649  -6.931  0.00  0.00    +0.000 A 
ENDBRANCH  14  15
ENDBRANCH   1  14
TORSDOF 3
ENDMDL
MODEL 3
REMARK VINA RESULT:    -7.513      3.082      6.288
REMARK INTER + INTRA:          -9.250
REMARK INTER:                  -8.917
REMARK INTRA:                  -0.333
REMARK UNBOUND:                -0.419
REMARK  Name = 3031427
REMARK  3 active torsions:
REMARK  status: ('A' for Active; 'I' for Inactive)
REMARK    1  A    between atoms: N_2  and  C_5
REMARK    2  A    between atoms: C_5  and  C_6
REMARK    3  A    between atoms: C_11  and  C_17
REMARK                            x       y       z     vdW  Elec       q    Type
REMARK                         _______ _______ _______ _____ _____    ______ ____
ROOT
ATOM      1  N   UNL     1     -18.916  39.815 -10.439  0.00  0.00    +0.000 N 
ATOM      2  N   UNL     1     -20.820  40.165  -9.051  0.00  0.00    +0.000 NA
ATOM      3  C   UNL     1     -19.523  40.462  -9.389  0.00  0.00    +0.000 A 
ATOM      4  C   UNL     1     -18.791  41.426  -8.674  0.00  0.00    +0.000 A 
ATOM      5  C   UNL     1     -20.706  41.790  -7.264  0.00  0.00    +0.000 A 
ATOM      6  C   UNL     1     -19.392  42.089  -7.609  0.00  0.00    +0.000 A 
ATOM      7  C   UNL     1     -21.370  40.829  -8.009  0.00  0.00    +0.000 A 
ATOM      8  H   UNL     1     -19.459  39.122 -10.941  0.00  0.00    +0.000 HD
ENDROOT
BRANCH   5  11
ATOM      9  O   UNL     1     -21.105  42.175  -4.975  0.00  0.00    +0.000 OA
ATOM     10  N   UNL     1     -22.281  43.467  -6.461  0.00  0.00    +0.000 N 
ATOM     11  C   UNL     1     -21.362  42.465  -6.157  0.00  0.00    +0.000 C 
ATOM     12  H   UNL     1     -22.540  43.765  -7.392  0.00  0.00    +0.000 HD
ATOM     13  H   UNL     1     -22.748  43.959  -5.707  0.00  0.00    +0.000 HD
ENDBRANCH   5  11
BRANCH   1  14
ATOM     14  C   UNL     1     -17.538  40.085 -10.852  0.00  0.00    +0.000 C 
BRANCH  14  15
ATOM     15  C   UNL     1     -17.432  41.288 -11.726  0.00  0.00    +0.000 A 
ATOM     16  C   UNL     1     -18.305  41.447 -12.803  0.00  0.00    +0.000 A 
ATOM     17  C   UNL     1     -16.460  42.255 -11.468  0.00  0.00    +0.000 A 
ATOM     18  C   UNL     1     -18.206  42.573 -13.620  0.00  0.00    +0.000 A 
ATOM     19  C   UNL     1     -16.362  43.381 -12.285  0.00  0.00    +0.000 A 
ATOM     20  C   UNL     1     -17.235  43.540 -13.362  0.00  0.00    +0.000 A 
ENDBRANCH  14  15
ENDBRANCH   1  14
TORSDOF 3
ENDMDL
MODEL 4
REMARK VINA RESULT:    -7.384      1.462      1.966
REMARK INTER + INTRA:          -9.099
REMARK INTER:                  -8.705
REMARK INTRA:                  -0.394
REMARK UNBOUND:                -0.419
REMARK  Name = 3031427
REMARK  3 active torsions:
REMARK  status: ('A' for Active; 'I' for Inactive)
REMARK    1  A    between atoms: N_2  and  C_5
REMARK    2  A    between atoms: C_5  and  C_6
REMARK    3  A    between atoms: C_11  and  C_17
REMARK                            x       y       z     vdW  Elec       q    Type
REMARK                         _______ _______ _______ _____ _____    ______ ____
ROOT
ATOM      1  N   UNL     1     -19.595  40.303 -11.166  0.00  0.00    +0.000 N 
ATOM      2  N   UNL     1     -19.758  41.567 -13.179  0.00  0.00    +0.000 NA
ATOM      3  C   UNL     1     -19.203  41.371 -11.938  0.00  0.00    +0.000 A 
ATOM      4  C   UNL     1     -18.230  42.250 -11.434  0.00  0.00    +0.000 A 
ATOM      5  C   UNL     1     -18.383  43.536 -13.460  0.00  0.00    +0.000 A 
ATOM      6  C   UNL     1     -17.823  43.335 -12.204  0.00  0.00    +0.000 A 
ATOM      7  C   UNL     1     -19.339  42.633 -13.898  0.00  0.00    +0.000 A 
ATOM      8  H   UNL     1     -20.300  39.683 -11.546  0.00  0.00    +0.000 HD
ENDROOT
BRANCH   5  11
ATOM      9  O   UNL     1     -18.800  45.274 -14.995  0.00  0.00    +0.000 OA
ATOM     10  N   UNL     1     -16.641  45.042 -14.257  0.00  0.00    +0.000 N 
ATOM     11  C   UNL     1     -17.980  44.659 -14.290  0.00  0.00    +0.000 C 
ATOM     12  H   UNL     1     -15.915  44.600 -13.708  0.00  0.00    +0.000 HD
ATOM     13  H   UNL     1     -16.334  45.828 -14.821  0.00  0.00    +0.000 HD
ENDBRANCH   5  11
BRANCH   1  14
ATOM     14  C   UNL     1     -19.044  40.036  -9.837  0.00  0.00    +0.000 C 
BRANCH  14  15
ATOM     15  C   UNL     1     -19.827  40.698  -8.753  0.00  0.00    +0.000 A 
ATOM     16  C   UNL     1     -19.197  41.583  -7.879  0.00  0.00    +0.000 A 
ATOM     17  C   UNL     1     -21.188  40.430  -8.614  0.00  0.00    +0.000 A 
ATOM     18  C   UNL     1     -19.929  42.202  -6.865  0.00  0.00    +0.000 A 
ATOM     19  C   UNL     1     -21.921  41.049  -7.601  0.00  0.00    +0.000 A 
ATOM     20  C   UNL     1     -21.291  41.935  -6.726  0.00  0.00    +0.000 A 
ENDBRANCH  14  15
ENDBRANCH   1  14
TORSDOF 3
ENDMDL
MODEL 5
REMARK VINA RESULT:    -6.320      2.109      3.041
REMARK INTER + INTRA:          -7.847
REMARK INTER:                  -7.468
REMARK INTRA:                  -0.380
REMARK UNBOUND:                -0.419
REMARK  Name = 3031427
REMARK  3 active torsions:
REMARK  status: ('A' for Active; 'I' for Inactive)
REMARK    1  A    between atoms: N_2  and  C_5
REMARK    2  A    between atoms: C_5  and  C_6
REMARK    3  A    between atoms: C_11  and  C_17
REMARK                            x       y       z     vdW  Elec       q    Type
REMARK                         _______ _______ _______ _____ _____    ______ ____
ROOT
ATOM      1  N   UNL     1     -19.201  40.763 -12.721  0.00  0.00    +0.000 N 
ATOM      2  N   UNL     1     -19.813  42.372 -14.369  0.00  0.00    +0.000 NA
ATOM      3  C   UNL     1     -18.982  41.964 -13.355  0.00  0.00    +0.000 A 
ATOM      4  C   UNL     1     -17.897  42.757 -12.945  0.00  0.00    +0.000 A 
ATOM      5  C   UNL     1     -18.502  44.390 -14.604  0.00  0.00    +0.000 A 
ATOM      6  C   UNL     1     -17.662  43.974 -13.578  0.00  0.00    +0.000 A 
ATOM      7  C   UNL     1     -19.554  43.561 -14.959  0.00  0.00    +0.000 A 
ATOM      8  H   UNL     1     -19.989  40.207 -13.029  0.00  0.00    +0.000 HD
ENDROOT
BRANCH   5  11
ATOM      9  O   UNL     1     -19.211  46.468 -15.459  0.00  0.00    +0.000 OA
ATOM     10  N   UNL     1     -16.994  45.942 -15.723  0.00  0.00    +0.000 N 
ATOM     11  C   UNL     1     -18.285  45.655 -15.285  0.00  0.00    +0.000 C 
ATOM     12  H   UNL     1     -16.188  45.340 -15.617  0.00  0.00    +0.000 HD
ATOM     13  H   UNL     1     -16.813  46.823 -16.196  0.00  0.00    +0.000 HD
ENDBRANCH   5  11
BRANCH   1  14
ATOM     14  C   UNL     1     -18.353  40.269 -11.635  0.00  0.00    +0.000 C 
BRANCH  14  15
ATOM     15  C   UNL     1     -18.898  40.610 -10.290  0.00  0.00    +0.000 A 
ATOM     16  C   UNL     1     -19.975  39.891  -9.770  0.00  0.00    +0.000 A 
ATOM     17  C   UNL     1     -18.331  41.648  -9.550  0.00  0.00    +0.000 A 
ATOM     18  C   UNL     1     -20.484  40.210  -8.511  0.00  0.00    +0.000 A 
ATOM     19  C   UNL     1     -18.840  41.967  -8.291  0.00  0.00    +0.000 A 
ATOM     20  C   UNL     1     -19.917  41.248  -7.772  0.00  0.00    +0.000 A 
ENDBRANCH  14  15
ENDBRANCH   1  14
TORSDOF 3
ENDMDL
