MODEL 1
REMARK VINA RESULT:    -7.802      0.000      0.000
REMARK INTER + INTRA:          -8.305
REMARK INTER:                  -8.258
REMARK INTRA:                  -0.047
REMARK UNBOUND:                -0.047
REMARK  Name = 3031429
REMARK  1 active torsions:
REMARK  status: ('A' for Active; 'I' for Inactive)
REMARK    1  A    between atoms: C_13  and  C_15
REMARK                            x       y       z     vdW  Elec       q    Type
REMARK                         _______ _______ _______ _____ _____    ______ ____
ROOT
ATOM      1  N   UNL     1     -18.485  40.619 -10.633  0.00  0.00    +0.000 N 
ATOM      2  N   UNL     1     -18.618  42.000  -8.679  0.00  0.00    +0.000 NA
ATOM      3  C   UNL     1     -16.994  39.862 -12.985  0.00  0.00    +0.000 C 
ATOM      4  C   UNL     1     -18.516  39.798 -12.955  0.00  0.00    +0.000 C 
ATOM      5  C   UNL     1     -16.431  39.647 -11.586  0.00  0.00    +0.000 C 
ATOM      6  C   UNL     1     -19.102  40.792 -11.953  0.00  0.00    +0.000 C 
ATOM      7  C   UNL     1     -17.016  40.647 -10.591  0.00  0.00    +0.000 C 
ATOM      8  C   UNL     1     -19.172  41.049  -9.491  0.00  0.00    +0.000 A 
ATOM      9  C   UNL     1     -20.423  40.483  -9.212  0.00  0.00    +0.000 A 
ATOM     10  C   UNL     1     -21.117  40.899  -8.082  0.00  0.00    +0.000 A 
ATOM     11  C   UNL     1     -20.564  41.866  -7.250  0.00  0.00    +0.000 A 
ATOM     12  C   UNL     1     -19.323  42.380  -7.589  0.00  0.00    +0.000 A 
ENDROOT
BRANCH  11  15
ATOM     13  O   UNL     1     -21.049  41.811  -4.946  0.00  0.00    +0.000 OA
ATOM     14  N   UNL     1     -22.176  43.363  -6.203  0.00  0.00    +0.000 N 
ATOM     15  C   UNL     1     -21.263  42.320  -6.061  0.00  0.00    +0.000 C 
ATOM     16  H   UNL     1     -22.404  43.832  -7.070  0.00  0.00    +0.000 HD
ATOM     17  H   UNL     1     -22.674  43.704  -5.387  0.00  0.00    +0.000 HD
ENDBRANCH  11  15
TORSDOF 1
ENDMDL
MODEL 2
REMARK VINA RESULT:    -7.166      2.832      6.053
REMARK INTER + INTRA:          -7.633
REMARK INTER:                  -7.573
REMARK INTRA:                  -0.060
REMARK UNBOUND:                -0.047
REMARK  Name = 3031429
REMARK  1 active torsions:
REMARK  status: ('A' for Active; 'I' for Inactive)
REMARK    1  A    between atoms: C_13  and  C_15
REMARK                            x       y       z     vdW  Elec       q    Type
REMARK                         _______ _______ _______ _____ _____    ______ ____
ROOT
ATOM      1  N   UNL     1     -20.528  41.260  -8.293  0.00  0.00    +0.000 N 
ATOM      2  N   UNL     1     -18.259  40.758  -8.882  0.00  0.00    +0.000 NA
ATOM      3  C   UNL     1     -22.418  41.912  -6.212  0.00  0.00    +0.000 C 
ATOM      4  C   UNL     1     -22.837  41.122  -7.445  0.00  0.00    +0.000 C 
ATOM      5  C   UNL     1     -21.259  42.841  -6.551  0.00  0.00    +0.000 C 
ATOM      6  C   UNL     1     -21.660  40.358  -8.052  0.00  0.00    +0.000 C 
ATOM      7  C   UNL     1     -20.085  42.070  -7.150  0.00  0.00    +0.000 C 
ATOM      8  C   UNL     1     -19.567  40.916  -9.252  0.00  0.00    +0.000 A 
ATOM      9  C   UNL     1     -19.981  40.741 -10.579  0.00  0.00    +0.000 A 
ATOM     10  C   UNL     1     -19.039  40.400 -11.542  0.00  0.00    +0.000 A 
ATOM     11  C   UNL     1     -17.707  40.238 -11.178  0.00  0.00    +0.000 A 
ATOM     12  C   UNL     1     -17.372  40.427  -9.847  0.00  0.00    +0.000 A 
ENDROOT
BRANCH  11  15
ATOM     13  O   UNL     1     -16.981  39.768 -13.368  0.00  0.00    +0.000 OA
ATOM     14  N   UNL     1     -15.394  39.692 -11.714  0.00  0.00    +0.000 N 
ATOM     15  C   UNL     1     -16.699  39.883 -12.161  0.00  0.00    +0.000 C 
ATOM     16  H   UNL     1     -15.083  39.770 -10.755  0.00  0.00    +0.000 HD
ATOM     17  H   UNL     1     -14.669  39.449 -12.382  0.00  0.00    +0.000 HD
ENDBRANCH  11  15
TORSDOF 1
ENDMDL
MODEL 3
REMARK VINA RESULT:    -5.560      4.511      5.728
REMARK INTER + INTRA:          -5.932
REMARK INTER:                  -5.872
REMARK INTRA:                  -0.060
REMARK UNBOUND:                -0.047
REMARK  Name = 3031429
REMARK  1 active torsions:
REMARK  status: ('A' for Active; 'I' for Inactive)
REMARK    1  A    between atoms: C_13  and  C_15
REMARK                            x       y       z     vdW  Elec       q    Type
REMARK                         _______ _______ _______ _____ _____    ______ ____
ROOT
ATOM      1  N   UNL     1     -17.527  44.734 -13.541  0.00  0.00    +0.000 N 
ATOM      2  N   UNL     1     -18.454  42.561 -13.133  0.00  0.00    +0.000 NA
ATOM      3  C   UNL     1     -17.035  46.857 -15.433  0.00  0.00    +0.000 C 
ATOM      4  C   UNL     1     -16.082  46.588 -14.276  0.00  0.00    +0.000 C 
ATOM      5  C   UNL     1     -18.452  46.445 -15.054  0.00  0.00    +0.000 C 
ATOM      6  C   UNL     1     -16.143  45.130 -13.822  0.00  0.00    +0.000 C 
ATOM      7  C   UNL     1     -18.507  44.985 -14.608  0.00  0.00    +0.000 C 
ATOM      8  C   UNL     1     -17.774  43.658 -12.679  0.00  0.00    +0.000 A 
ATOM      9  C   UNL     1     -17.308  43.740 -11.360  0.00  0.00    +0.000 A 
ATOM     10  C   UNL     1     -17.546  42.680 -10.492  0.00  0.00    +0.000 A 
ATOM     11  C   UNL     1     -18.236  41.561 -10.943  0.00  0.00    +0.000 A 
ATOM     12  C   UNL     1     -18.666  41.551 -12.260  0.00  0.00    +0.000 A 
ENDROOT
BRANCH  11  15
ATOM     13  O   UNL     1     -19.122  39.434 -10.453  0.00  0.00    +0.000 OA
ATOM     14  N   UNL     1     -18.019  40.511  -8.755  0.00  0.00    +0.000 N 
ATOM     15  C   UNL     1     -18.501  40.438 -10.060  0.00  0.00    +0.000 C 
ATOM     16  H   UNL     1     -17.504  41.286  -8.360  0.00  0.00    +0.000 HD
ATOM     17  H   UNL     1     -18.185  39.737  -8.119  0.00  0.00    +0.000 HD
ENDBRANCH  11  15
TORSDOF 1
ENDMDL
MODEL 4
REMARK VINA RESULT:    -5.516      4.923      6.573
REMARK INTER + INTRA:          -5.886
REMARK INTER:                  -5.829
REMARK INTRA:                  -0.057
REMARK UNBOUND:                -0.047
REMARK  Name = 3031429
REMARK  1 active torsions:
REMARK  status: ('A' for Active; 'I' for Inactive)
REMARK    1  A    between atoms: C_13  and  C_15
REMARK                            x       y       z     vdW  Elec       q    Type
REMARK                         _______ _______ _______ _____ _____    ______ ____
ROOT
ATOM      1  N   UNL     1     -19.966  43.887 -15.408  0.00  0.00    +0.000 N 
ATOM      2  N   UNL     1     -19.203  41.955 -14.213  0.00  0.00    +0.000 NA
ATOM      3  C   UNL     1     -21.307  44.941 -17.736  0.00  0.00    +0.000 C 
ATOM      4  C   UNL     1     -20.201  45.721 -17.036  0.00  0.00    +0.000 C 
ATOM      5  C   UNL     1     -22.033  44.049 -16.738  0.00  0.00    +0.000 C 
ATOM      6  C   UNL     1     -19.234  44.792 -16.302  0.00  0.00    +0.000 C 
ATOM      7  C   UNL     1     -21.063  43.119 -16.012  0.00  0.00    +0.000 C 
ATOM      8  C   UNL     1     -19.303  43.315 -14.315  0.00  0.00    +0.000 A 
ATOM      9  C   UNL     1     -18.754  44.167 -13.347  0.00  0.00    +0.000 A 
ATOM     10  C   UNL     1     -18.093  43.614 -12.256  0.00  0.00    +0.000 A 
ATOM     11  C   UNL     1     -17.986  42.232 -12.142  0.00  0.00    +0.000 A 
ATOM     12  C   UNL     1     -18.553  41.454 -13.138  0.00  0.00    +0.000 A 
ENDROOT
BRANCH  11  15
ATOM     13  O   UNL     1     -16.673  40.557 -11.134  0.00  0.00    +0.000 OA
ATOM     14  N   UNL     1     -17.359  42.284  -9.789  0.00  0.00    +0.000 N 
ATOM     15  C   UNL     1     -17.303  41.624 -11.014  0.00  0.00    +0.000 C 
ATOM     16  H   UNL     1     -17.844  43.152  -9.610  0.00  0.00    +0.000 HD
ATOM     17  H   UNL     1     -16.884  41.883  -8.986  0.00  0.00    +0.000 HD
ENDBRANCH  11  15
TORSDOF 1
ENDMDL
MODEL 5
REMARK VINA RESULT:    -5.425      6.227      8.180
REMARK INTER + INTRA:          -5.790
REMARK INTER:                  -5.743
REMARK INTRA:                  -0.047
REMARK UNBOUND:                -0.047
REMARK  Name = 3031429
REMARK  1 active torsions:
REMARK  status: ('A' for Active; 'I' for Inactive)
REMARK    1  A    between atoms: C_13  and  C_15
REMARK                            x       y       z     vdW  Elec       q    Type
REMARK                         _______ _______ _______ _____ _____    ______ ____
ROOT
ATOM      1  N   UNL     1     -18.493  43.339 -13.750  0.00  0.00    +0.000 N 
ATOM      2  N   UNL     1     -20.364  42.790 -15.144  0.00  0.00    +0.000 NA
ATOM      3  C   UNL     1     -16.893  42.672 -11.443  0.00  0.00    +0.000 C 
ATOM      4  C   UNL     1     -17.076  44.116 -11.891  0.00  0.00    +0.000 C 
ATOM      5  C   UNL     1     -16.989  41.734 -12.640  0.00  0.00    +0.000 C 
ATOM      6  C   UNL     1     -18.387  44.308 -12.653  0.00  0.00    +0.000 C 
ATOM      7  C   UNL     1     -18.303  41.926 -13.394  0.00  0.00    +0.000 C 
ATOM      8  C   UNL     1     -19.323  43.624 -14.841  0.00  0.00    +0.000 A 
ATOM      9  C   UNL     1     -19.057  44.772 -15.601  0.00  0.00    +0.000 A 
ATOM     10  C   UNL     1     -19.872  45.067 -16.687  0.00  0.00    +0.000 A 
ATOM     11  C   UNL     1     -20.933  44.226 -17.003  0.00  0.00    +0.000 A 
ATOM     12  C   UNL     1     -21.135  43.110 -16.207  0.00  0.00    +0.000 A 
ENDROOT
BRANCH  11  15
ATOM     13  O   UNL     1     -22.773  45.278 -18.029  0.00  0.00    +0.000 OA
ATOM     14  N   UNL     1     -21.503  43.899 -19.349  0.00  0.00    +0.000 N 
ATOM     15  C   UNL     1     -21.802  44.508 -18.133  0.00  0.00    +0.000 C 
ATOM     16  H   UNL     1     -20.733  43.265 -19.517  0.00  0.00    +0.000 HD
ATOM     17  H   UNL     1     -22.090  44.084 -20.156  0.00  0.00    +0.000 HD
ENDBRANCH  11  15
TORSDOF 1
ENDMDL
