MODEL 1
REMARK VINA RESULT:    -7.973      0.000      0.000
REMARK INTER + INTRA:          -8.738
REMARK INTER:                  -8.905
REMARK INTRA:                   0.167
REMARK UNBOUND:                 0.167
REMARK  Name = 3031415
REMARK  2 active torsions:
REMARK  status: ('A' for Active; 'I' for Inactive)
REMARK    1  A    between atoms: N_2  and  C_5
REMARK    2  A    between atoms: C_14  and  C_16
REMARK                            x       y       z     vdW  Elec       q    Type
REMARK                         _______ _______ _______ _____ _____    ______ ____
ROOT
ATOM      1  N   UNL     1     -18.581  40.124 -10.191  0.00  0.00    +0.000 N 
ATOM      2  N   UNL     1     -18.897  41.689  -8.423  0.00  0.00    +0.000 NA
ATOM      3  C   UNL     1     -19.378  40.673  -9.203  0.00  0.00    +0.000 A 
ATOM      4  C   UNL     1     -20.672  40.164  -9.028  0.00  0.00    +0.000 A 
ATOM      5  C   UNL     1     -21.484  40.705  -8.039  0.00  0.00    +0.000 A 
ATOM      6  C   UNL     1     -21.005  41.737  -7.240  0.00  0.00    +0.000 A 
ATOM      7  C   UNL     1     -19.715  42.190  -7.470  0.00  0.00    +0.000 A 
ATOM      8  H   UNL     1     -19.058  39.596 -10.914  0.00  0.00    +0.000 HD
ENDROOT
BRANCH   1   9
ATOM      9  C   UNL     1     -17.228  40.569 -10.469  0.00  0.00    +0.000 C 
ATOM     10  C   UNL     1     -16.634  39.757 -11.623  0.00  0.00    +0.000 C 
ATOM     11  C   UNL     1     -17.218  42.070 -10.772  0.00  0.00    +0.000 C 
ATOM     12  C   UNL     1     -17.267  40.099 -12.973  0.00  0.00    +0.000 C 
ATOM     13  C   UNL     1     -17.848  42.404 -12.125  0.00  0.00    +0.000 C 
ATOM     14  C   UNL     1     -17.217  41.597 -13.255  0.00  0.00    +0.000 C 
ENDBRANCH   1   9
BRANCH   6  17
ATOM     15  O   UNL     1     -23.045  42.523  -6.365  0.00  0.00    +0.000 OA
ATOM     16  N   UNL     1     -21.216  42.642  -4.987  0.00  0.00    +0.000 N 
ATOM     17  C   UNL     1     -21.828  42.323  -6.198  0.00  0.00    +0.000 C 
ATOM     18  H   UNL     1     -20.237  42.508  -4.770  0.00  0.00    +0.000 HD
ATOM     19  H   UNL     1     -21.770  43.048  -4.239  0.00  0.00    +0.000 HD
ENDBRANCH   6  17
TORSDOF 2
ENDMDL
MODEL 2
REMARK VINA RESULT:    -6.663      4.842      6.664
REMARK INTER + INTRA:          -7.275
REMARK INTER:                  -6.990
REMARK INTRA:                  -0.285
REMARK UNBOUND:                 0.167
REMARK  Name = 3031415
REMARK  2 active torsions:
REMARK  status: ('A' for Active; 'I' for Inactive)
REMARK    1  A    between atoms: N_2  and  C_5
REMARK    2  A    between atoms: C_14  and  C_16
REMARK                            x       y       z     vdW  Elec       q    Type
REMARK                         _______ _______ _______ _____ _____    ______ ____
ROOT
ATOM      1  N   UNL     1     -19.975  43.856 -15.288  0.00  0.00    +0.000 N 
ATOM      2  N   UNL     1     -19.572  41.977 -13.880  0.00  0.00    +0.000 NA
ATOM      3  C   UNL     1     -19.402  43.306 -14.156  0.00  0.00    +0.000 A 
ATOM      4  C   UNL     1     -18.653  44.139 -13.313  0.00  0.00    +0.000 A 
ATOM      5  C   UNL     1     -18.070  43.601 -12.172  0.00  0.00    +0.000 A 
ATOM      6  C   UNL     1     -18.239  42.251 -11.882  0.00  0.00    +0.000 A 
ATOM      7  C   UNL     1     -18.992  41.488 -12.761  0.00  0.00    +0.000 A 
ATOM      8  H   UNL     1     -19.594  44.743 -15.600  0.00  0.00    +0.000 HD
ENDROOT
BRANCH   1   9
ATOM      9  C   UNL     1     -20.768  43.096 -16.235  0.00  0.00    +0.000 C 
ATOM     10  C   UNL     1     -22.130  43.765 -16.438  0.00  0.00    +0.000 C 
ATOM     11  C   UNL     1     -20.010  42.949 -17.558  0.00  0.00    +0.000 C 
ATOM     12  C   UNL     1     -22.034  45.075 -17.222  0.00  0.00    +0.000 C 
ATOM     13  C   UNL     1     -19.922  44.261 -18.338  0.00  0.00    +0.000 C 
ATOM     14  C   UNL     1     -21.297  44.887 -18.544  0.00  0.00    +0.000 C 
ENDBRANCH   1   9
BRANCH   6  17
ATOM     15  O   UNL     1     -17.135  40.523 -10.724  0.00  0.00    +0.000 OA
ATOM     16  N   UNL     1     -17.642  42.411  -9.525  0.00  0.00    +0.000 N 
ATOM     17  C   UNL     1     -17.644  41.658 -10.698  0.00  0.00    +0.000 C 
ATOM     18  H   UNL     1     -18.029  43.339  -9.422  0.00  0.00    +0.000 HD
ATOM     19  H   UNL     1     -17.227  42.023  -8.684  0.00  0.00    +0.000 HD
ENDBRANCH   6  17
TORSDOF 2
ENDMDL
MODEL 3
REMARK VINA RESULT:    -6.030      5.200      7.422
REMARK INTER + INTRA:          -6.568
REMARK INTER:                  -6.290
REMARK INTRA:                  -0.278
REMARK UNBOUND:                 0.167
REMARK  Name = 3031415
REMARK  2 active torsions:
REMARK  status: ('A' for Active; 'I' for Inactive)
REMARK    1  A    between atoms: N_2  and  C_5
REMARK    2  A    between atoms: C_14  and  C_16
REMARK                            x       y       z     vdW  Elec       q    Type
REMARK                         _______ _______ _______ _____ _____    ______ ____
ROOT
ATOM      1  N   UNL     1     -18.228  42.405 -13.152  0.00  0.00    +0.000 N 
ATOM      2  N   UNL     1     -19.672  42.646 -15.031  0.00  0.00    +0.000 NA
ATOM      3  C   UNL     1     -18.762  43.184 -14.162  0.00  0.00    +0.000 A 
ATOM      4  C   UNL     1     -18.348  44.519 -14.267  0.00  0.00    +0.000 A 
ATOM      5  C   UNL     1     -18.876  45.314 -15.277  0.00  0.00    +0.000 A 
ATOM      6  C   UNL     1     -19.801  44.777 -16.166  0.00  0.00    +0.000 A 
ATOM      7  C   UNL     1     -20.163  43.449 -16.001  0.00  0.00    +0.000 A 
ATOM      8  H   UNL     1     -17.798  42.902 -12.379  0.00  0.00    +0.000 HD
ENDROOT
BRANCH   1   9
ATOM      9  C   UNL     1     -18.580  41.013 -12.941  0.00  0.00    +0.000 C 
ATOM     10  C   UNL     1     -17.318  40.185 -12.684  0.00  0.00    +0.000 C 
ATOM     11  C   UNL     1     -19.579  40.891 -11.787  0.00  0.00    +0.000 C 
ATOM     12  C   UNL     1     -16.693  40.470 -11.318  0.00  0.00    +0.000 C 
ATOM     13  C   UNL     1     -18.946  41.173 -10.424  0.00  0.00    +0.000 C 
ATOM     14  C   UNL     1     -17.707  40.314 -10.190  0.00  0.00    +0.000 C 
ENDBRANCH   1   9
BRANCH   6  17
ATOM     15  O   UNL     1     -19.771  45.754 -18.308  0.00  0.00    +0.000 OA
ATOM     16  N   UNL     1     -21.628  46.144 -17.021  0.00  0.00    +0.000 N 
ATOM     17  C   UNL     1     -20.371  45.581 -17.232  0.00  0.00    +0.000 C 
ATOM     18  H   UNL     1     -22.182  46.048 -16.180  0.00  0.00    +0.000 HD
ATOM     19  H   UNL     1     -22.053  46.706 -17.752  0.00  0.00    +0.000 HD
ENDBRANCH   6  17
TORSDOF 2
ENDMDL
MODEL 4
REMARK VINA RESULT:    -5.737     14.698     15.398
REMARK INTER + INTRA:          -6.241
REMARK INTER:                  -5.963
REMARK INTRA:                  -0.278
REMARK UNBOUND:                 0.167
REMARK  Name = 3031415
REMARK  2 active torsions:
REMARK  status: ('A' for Active; 'I' for Inactive)
REMARK    1  A    between atoms: N_2  and  C_5
REMARK    2  A    between atoms: C_14  and  C_16
REMARK                            x       y       z     vdW  Elec       q    Type
REMARK                         _______ _______ _______ _____ _____    ______ ____
ROOT
ATOM      1  N   UNL     1     -32.897  42.087 -16.765  0.00  0.00    +0.000 N 
ATOM      2  N   UNL     1     -32.901  42.505 -14.419  0.00  0.00    +0.000 NA
ATOM      3  C   UNL     1     -33.585  42.245 -15.575  0.00  0.00    +0.000 A 
ATOM      4  C   UNL     1     -34.982  42.133 -15.592  0.00  0.00    +0.000 A 
ATOM      5  C   UNL     1     -35.688  42.290 -14.405  0.00  0.00    +0.000 A 
ATOM      6  C   UNL     1     -35.002  42.552 -13.223  0.00  0.00    +0.000 A 
ATOM      7  C   UNL     1     -33.621  42.650 -13.284  0.00  0.00    +0.000 A 
ATOM      8  H   UNL     1     -33.440  42.186 -17.616  0.00  0.00    +0.000 HD
ENDROOT
BRANCH   1   9
ATOM      9  C   UNL     1     -31.454  42.183 -16.874  0.00  0.00    +0.000 C 
ATOM     10  C   UNL     1     -30.914  41.034 -17.729  0.00  0.00    +0.000 C 
ATOM     11  C   UNL     1     -31.059  43.547 -17.449  0.00  0.00    +0.000 C 
ATOM     12  C   UNL     1     -31.264  41.183 -19.210  0.00  0.00    +0.000 C 
ATOM     13  C   UNL     1     -31.408  43.687 -18.931  0.00  0.00    +0.000 C 
ATOM     14  C   UNL     1     -30.834  42.541 -19.757  0.00  0.00    +0.000 C 
ENDBRANCH   1   9
BRANCH   6  17
ATOM     15  O   UNL     1     -35.954  41.754 -11.223  0.00  0.00    +0.000 OA
ATOM     16  N   UNL     1     -36.095  44.010 -11.606  0.00  0.00    +0.000 N 
ATOM     17  C   UNL     1     -35.710  42.721 -11.967  0.00  0.00    +0.000 C 
ATOM     18  H   UNL     1     -35.932  44.847 -12.150  0.00  0.00    +0.000 HD
ATOM     19  H   UNL     1     -36.586  44.157 -10.730  0.00  0.00    +0.000 HD
ENDBRANCH   6  17
TORSDOF 2
ENDMDL
MODEL 5
REMARK VINA RESULT:    -5.662      4.334      6.190
REMARK INTER + INTRA:          -6.157
REMARK INTER:                  -5.870
REMARK INTRA:                  -0.287
REMARK UNBOUND:                 0.167
REMARK  Name = 3031415
REMARK  2 active torsions:
REMARK  status: ('A' for Active; 'I' for Inactive)
REMARK    1  A    between atoms: N_2  and  C_5
REMARK    2  A    between atoms: C_14  and  C_16
REMARK                            x       y       z     vdW  Elec       q    Type
REMARK                         _______ _______ _______ _____ _____    ______ ____
ROOT
ATOM      1  N   UNL     1     -17.918  45.464 -12.527  0.00  0.00    +0.000 N 
ATOM      2  N   UNL     1     -17.773  43.508 -11.174  0.00  0.00    +0.000 NA
ATOM      3  C   UNL     1     -18.141  44.111 -12.346  0.00  0.00    +0.000 A 
ATOM      4  C   UNL     1     -18.745  43.388 -13.384  0.00  0.00    +0.000 A 
ATOM      5  C   UNL     1     -18.975  42.028 -13.217  0.00  0.00    +0.000 A 
ATOM      6  C   UNL     1     -18.604  41.405 -12.030  0.00  0.00    +0.000 A 
ATOM      7  C   UNL     1     -18.011  42.183 -11.048  0.00  0.00    +0.000 A 
ATOM      8  H   UNL     1     -18.452  45.914 -13.262  0.00  0.00    +0.000 HD
ENDROOT
BRANCH   1   9
ATOM      9  C   UNL     1     -17.304  46.316 -11.526  0.00  0.00    +0.000 C 
ATOM     10  C   UNL     1     -15.824  46.528 -11.853  0.00  0.00    +0.000 C 
ATOM     11  C   UNL     1     -18.057  47.646 -11.433  0.00  0.00    +0.000 C 
ATOM     12  C   UNL     1     -15.610  47.423 -13.074  0.00  0.00    +0.000 C 
ATOM     13  C   UNL     1     -17.836  48.538 -12.656  0.00  0.00    +0.000 C 
ATOM     14  C   UNL     1     -16.352  48.749 -12.937  0.00  0.00    +0.000 C 
ENDBRANCH   1   9
BRANCH   6  17
ATOM     15  O   UNL     1     -18.133  39.323 -11.036  0.00  0.00    +0.000 OA
ATOM     16  N   UNL     1     -19.871  39.385 -12.530  0.00  0.00    +0.000 N 
ATOM     17  C   UNL     1     -18.830  39.986 -11.825  0.00  0.00    +0.000 C 
ATOM     18  H   UNL     1     -20.485  39.852 -13.185  0.00  0.00    +0.000 HD
ATOM     19  H   UNL     1     -20.055  38.395 -12.401  0.00  0.00    +0.000 HD
ENDBRANCH   6  17
TORSDOF 2
ENDMDL
