MODEL 1
REMARK VINA RESULT:    -6.638      0.000      0.000
REMARK INTER + INTRA:          -7.074
REMARK INTER:                  -7.026
REMARK INTRA:                  -0.048
REMARK UNBOUND:                -0.048
REMARK  Name = 3031421
REMARK  2 active torsions:
REMARK  status: ('A' for Active; 'I' for Inactive)
REMARK    1  A    between atoms: N_2  and  C_11
REMARK    2  A    between atoms: C_6  and  C_10
REMARK                            x       y       z     vdW  Elec       q    Type
REMARK                         _______ _______ _______ _____ _____    ______ ____
ROOT
ATOM      1  N   UNL     1     -17.760  40.815  -9.684  0.00  0.00    +0.000 N 
ATOM      2  N   UNL     1     -20.080  40.407  -9.320  0.00  0.00    +0.000 NA
ATOM      3  C   UNL     1     -18.954  41.063  -8.961  0.00  0.00    +0.000 A 
ATOM      4  C   UNL     1     -21.227  41.576  -7.541  0.00  0.00    +0.000 A 
ATOM      5  C   UNL     1     -18.886  41.976  -7.922  0.00  0.00    +0.000 A 
ATOM      6  C   UNL     1     -20.050  42.233  -7.203  0.00  0.00    +0.000 A 
ATOM      7  C   UNL     1     -21.190  40.680  -8.599  0.00  0.00    +0.000 A 
ATOM      8  C   UNL     1     -17.698  39.896 -10.774  0.00  0.00    +0.000 C 
ATOM      9  H   UNL     1     -16.893  41.132  -9.266  0.00  0.00    +0.000 HD
ENDROOT
BRANCH   4  12
ATOM     10  O   UNL     1     -23.372  40.977  -6.774  0.00  0.00    +0.000 OA
ATOM     11  N   UNL     1     -22.581  43.031  -6.132  0.00  0.00    +0.000 N 
ATOM     12  C   UNL     1     -22.459  41.821  -6.811  0.00  0.00    +0.000 C 
ATOM     13  H   UNL     1     -21.886  43.766  -6.109  0.00  0.00    +0.000 HD
ATOM     14  H   UNL     1     -23.429  43.226  -5.608  0.00  0.00    +0.000 HD
ENDBRANCH   4  12
TORSDOF 1
ENDMDL
MODEL 2
REMARK VINA RESULT:    -5.940      2.920      4.771
REMARK INTER + INTRA:          -6.336
REMARK INTER:                  -6.291
REMARK INTRA:                  -0.046
REMARK UNBOUND:                -0.048
REMARK  Name = 3031421
REMARK  2 active torsions:
REMARK  status: ('A' for Active; 'I' for Inactive)
REMARK    1  A    between atoms: N_2  and  C_11
REMARK    2  A    between atoms: C_6  and  C_10
REMARK                            x       y       z     vdW  Elec       q    Type
REMARK                         _______ _______ _______ _____ _____    ______ ____
ROOT
ATOM      1  N   UNL     1     -19.957  42.325  -6.762  0.00  0.00    +0.000 N 
ATOM      2  N   UNL     1     -20.444  40.659  -8.394  0.00  0.00    +0.000 NA
ATOM      3  C   UNL     1     -19.638  41.659  -7.971  0.00  0.00    +0.000 A 
ATOM      4  C   UNL     1     -18.983  40.404 -10.304  0.00  0.00    +0.000 A 
ATOM      5  C   UNL     1     -18.507  42.082  -8.648  0.00  0.00    +0.000 A 
ATOM      6  C   UNL     1     -18.179  41.437  -9.837  0.00  0.00    +0.000 A 
ATOM      7  C   UNL     1     -20.095  40.056  -9.553  0.00  0.00    +0.000 A 
ATOM      8  C   UNL     1     -21.096  41.984  -5.973  0.00  0.00    +0.000 C 
ATOM      9  H   UNL     1     -19.487  43.204  -6.581  0.00  0.00    +0.000 HD
ENDROOT
BRANCH   4  12
ATOM     10  O   UNL     1     -17.494  39.492 -11.885  0.00  0.00    +0.000 OA
ATOM     11  N   UNL     1     -19.733  39.278 -12.330  0.00  0.00    +0.000 N 
ATOM     12  C   UNL     1     -18.669  39.711 -11.542  0.00  0.00    +0.000 C 
ATOM     13  H   UNL     1     -20.713  39.412 -12.122  0.00  0.00    +0.000 HD
ATOM     14  H   UNL     1     -19.542  38.784 -13.197  0.00  0.00    +0.000 HD
ENDBRANCH   4  12
TORSDOF 1
ENDMDL
MODEL 3
REMARK VINA RESULT:    -5.542      2.564      4.948
REMARK INTER + INTRA:          -5.914
REMARK INTER:                  -5.865
REMARK INTRA:                  -0.050
REMARK UNBOUND:                -0.048
REMARK  Name = 3031421
REMARK  2 active torsions:
REMARK  status: ('A' for Active; 'I' for Inactive)
REMARK    1  A    between atoms: N_2  and  C_11
REMARK    2  A    between atoms: C_6  and  C_10
REMARK                            x       y       z     vdW  Elec       q    Type
REMARK                         _______ _______ _______ _____ _____    ______ ____
ROOT
ATOM      1  N   UNL     1     -21.664  41.600  -6.733  0.00  0.00    +0.000 N 
ATOM      2  N   UNL     1     -19.474  41.957  -7.601  0.00  0.00    +0.000 NA
ATOM      3  C   UNL     1     -20.655  41.305  -7.684  0.00  0.00    +0.000 A 
ATOM      4  C   UNL     1     -18.745  40.707  -9.538  0.00  0.00    +0.000 A 
ATOM      5  C   UNL     1     -20.952  40.358  -8.649  0.00  0.00    +0.000 A 
ATOM      6  C   UNL     1     -19.973  40.059  -9.591  0.00  0.00    +0.000 A 
ATOM      7  C   UNL     1     -18.547  41.640  -8.532  0.00  0.00    +0.000 A 
ATOM      8  C   UNL     1     -21.481  42.555  -5.688  0.00  0.00    +0.000 C 
ATOM      9  H   UNL     1     -22.440  40.952  -6.668  0.00  0.00    +0.000 HD
ENDROOT
BRANCH   4  12
ATOM     10  O   UNL     1     -17.807  39.479 -11.317  0.00  0.00    +0.000 OA
ATOM     11  N   UNL     1     -16.578  41.241 -10.515  0.00  0.00    +0.000 N 
ATOM     12  C   UNL     1     -17.702  40.418 -10.507  0.00  0.00    +0.000 C 
ATOM     13  H   UNL     1     -16.417  42.025  -9.896  0.00  0.00    +0.000 HD
ATOM     14  H   UNL     1     -15.836  41.066 -11.187  0.00  0.00    +0.000 HD
ENDBRANCH   4  12
TORSDOF 1
ENDMDL
MODEL 4
REMARK VINA RESULT:    -5.520      3.158      5.625
REMARK INTER + INTRA:          -5.891
REMARK INTER:                  -5.846
REMARK INTRA:                  -0.045
REMARK UNBOUND:                -0.048
REMARK  Name = 3031421
REMARK  2 active torsions:
REMARK  status: ('A' for Active; 'I' for Inactive)
REMARK    1  A    between atoms: N_2  and  C_11
REMARK    2  A    between atoms: C_6  and  C_10
REMARK                            x       y       z     vdW  Elec       q    Type
REMARK                         _______ _______ _______ _____ _____    ______ ____
ROOT
ATOM      1  N   UNL     1     -20.435  41.160  -7.929  0.00  0.00    +0.000 N 
ATOM      2  N   UNL     1     -18.281  41.346  -8.929  0.00  0.00    +0.000 NA
ATOM      3  C   UNL     1     -19.530  40.830  -8.968  0.00  0.00    +0.000 A 
ATOM      4  C   UNL     1     -17.823  40.169 -10.992  0.00  0.00    +0.000 A 
ATOM      5  C   UNL     1     -19.992  39.992  -9.969  0.00  0.00    +0.000 A 
ATOM      6  C   UNL     1     -19.116  39.660 -10.997  0.00  0.00    +0.000 A 
ATOM      7  C   UNL     1     -17.457  41.001  -9.944  0.00  0.00    +0.000 A 
ATOM      8  C   UNL     1     -20.080  42.012  -6.840  0.00  0.00    +0.000 C 
ATOM      9  H   UNL     1     -21.273  40.595  -7.850  0.00  0.00    +0.000 HD
ENDROOT
BRANCH   4  12
ATOM     10  O   UNL     1     -17.254  39.710 -13.231  0.00  0.00    +0.000 OA
ATOM     11  N   UNL     1     -15.542  39.698 -11.705  0.00  0.00    +0.000 N 
ATOM     12  C   UNL     1     -16.883  39.842 -12.050  0.00  0.00    +0.000 C 
ATOM     13  H   UNL     1     -15.160  39.794 -10.773  0.00  0.00    +0.000 HD
ATOM     14  H   UNL     1     -14.862  39.477 -12.427  0.00  0.00    +0.000 HD
ENDBRANCH   4  12
TORSDOF 1
ENDMDL
MODEL 5
REMARK VINA RESULT:    -5.156      3.999      5.074
REMARK INTER + INTRA:          -5.505
REMARK INTER:                  -5.457
REMARK INTRA:                  -0.048
REMARK UNBOUND:                -0.048
REMARK  Name = 3031421
REMARK  2 active torsions:
REMARK  status: ('A' for Active; 'I' for Inactive)
REMARK    1  A    between atoms: N_2  and  C_11
REMARK    2  A    between atoms: C_6  and  C_10
REMARK                            x       y       z     vdW  Elec       q    Type
REMARK                         _______ _______ _______ _____ _____    ______ ____
ROOT
ATOM      1  N   UNL     1     -18.782  43.496 -14.685  0.00  0.00    +0.000 N 
ATOM      2  N   UNL     1     -19.670  41.669 -13.441  0.00  0.00    +0.000 NA
ATOM      3  C   UNL     1     -18.826  42.723 -13.498  0.00  0.00    +0.000 A 
ATOM      4  C   UNL     1     -18.878  41.267 -11.192  0.00  0.00    +0.000 A 
ATOM      5  C   UNL     1     -17.991  43.106 -12.462  0.00  0.00    +0.000 A 
ATOM      6  C   UNL     1     -18.024  42.359 -11.289  0.00  0.00    +0.000 A 
ATOM      7  C   UNL     1     -19.674  40.966 -12.286  0.00  0.00    +0.000 A 
ATOM      8  C   UNL     1     -19.590  43.204 -15.825  0.00  0.00    +0.000 C 
ATOM      9  H   UNL     1     -17.996  44.127 -14.797  0.00  0.00    +0.000 HD
ENDROOT
BRANCH   4  12
ATOM     10  O   UNL     1     -17.996  40.447  -9.167  0.00  0.00    +0.000 OA
ATOM     11  N   UNL     1     -20.095  39.727  -9.747  0.00  0.00    +0.000 N 
ATOM     12  C   UNL     1     -18.937  40.465  -9.981  0.00  0.00    +0.000 C 
ATOM     13  H   UNL     1     -20.903  39.691 -10.354  0.00  0.00    +0.000 HD
ATOM     14  H   UNL     1     -20.165  39.164  -8.905  0.00  0.00    +0.000 HD
ENDBRANCH   4  12
TORSDOF 1
ENDMDL
