MODEL 1
REMARK VINA RESULT:    -6.450      0.000      0.000
REMARK INTER + INTRA:          -7.855
REMARK INTER:                  -7.393
REMARK INTRA:                  -0.462
REMARK UNBOUND:                -0.462
REMARK  Name = 3039701
REMARK  3 active torsions:
REMARK  status: ('A' for Active; 'I' for Inactive)
REMARK    1  A    between atoms: N_2  and  C_6
REMARK    2  A    between atoms: N_4  and  C_8
REMARK    3  A    between atoms: C_5  and  C_7
REMARK                            x       y       z     vdW  Elec       q    Type
REMARK                         _______ _______ _______ _____ _____    ______ ____
ROOT
ATOM      1  O   UNL     1     -20.980  39.463  -8.765  0.00  0.00    +0.000 OA
ATOM      2  N   UNL     1     -19.604  41.280  -9.342  0.00  0.00    +0.000 N 
ATOM      3  C   UNL     1     -20.551  40.595  -8.570  0.00  0.00    +0.000 C 
ATOM      4  H   UNL     1     -19.362  42.221  -9.039  0.00  0.00    +0.000 HD
ENDROOT
BRANCH   3   6
ATOM      5  N   UNL     1     -22.959  42.035  -6.076  0.00  0.00    +0.000 NA
ATOM      6  C   UNL     1     -21.098  41.353  -7.413  0.00  0.00    +0.000 A 
ATOM      7  C   UNL     1     -22.436  41.355  -7.120  0.00  0.00    +0.000 A 
ATOM      8  C   UNL     1     -20.220  42.066  -6.630  0.00  0.00    +0.000 A 
ATOM      9  C   UNL     1     -20.721  42.780  -5.546  0.00  0.00    +0.000 A 
ATOM     10  C   UNL     1     -22.086  42.731  -5.314  0.00  0.00    +0.000 A 
BRANCH   7  11
ATOM     11  N   UNL     1     -23.325  40.614  -7.939  0.00  0.00    +0.000 N 
ATOM     12  H   UNL     1     -23.355  40.868  -8.919  0.00  0.00    +0.000 HD
ATOM     13  H   UNL     1     -24.171  40.243  -7.524  0.00  0.00    +0.000 HD
ENDBRANCH   7  11
ENDBRANCH   3   6
BRANCH   2  14
ATOM     14  C   UNL     1     -18.946  40.834 -10.488  0.00  0.00    +0.000 A 
ATOM     15  C   UNL     1     -17.658  40.307 -10.392  0.00  0.00    +0.000 A 
ATOM     16  C   UNL     1     -19.577  40.912 -11.730  0.00  0.00    +0.000 A 
ATOM     17  C   UNL     1     -16.999  39.861 -11.538  0.00  0.00    +0.000 A 
ATOM     18  C   UNL     1     -18.918  40.465 -12.876  0.00  0.00    +0.000 A 
ATOM     19  C   UNL     1     -17.629  39.939 -12.780  0.00  0.00    +0.000 A 
ENDBRANCH   2  14
TORSDOF 3
ENDMDL
MODEL 2
REMARK VINA RESULT:    -6.335      3.864      5.512
REMARK INTER + INTRA:          -7.722
REMARK INTER:                  -7.180
REMARK INTRA:                  -0.542
REMARK UNBOUND:                -0.462
REMARK  Name = 3039701
REMARK  3 active torsions:
REMARK  status: ('A' for Active; 'I' for Inactive)
REMARK    1  A    between atoms: N_2  and  C_6
REMARK    2  A    between atoms: N_4  and  C_8
REMARK    3  A    between atoms: C_5  and  C_7
REMARK                            x       y       z     vdW  Elec       q    Type
REMARK                         _______ _______ _______ _____ _____    ______ ____
ROOT
ATOM      1  O   UNL     1     -17.358  41.564 -13.511  0.00  0.00    +0.000 OA
ATOM      2  N   UNL     1     -19.203  43.001 -13.265  0.00  0.00    +0.000 N 
ATOM      3  C   UNL     1     -18.298  42.010 -12.862  0.00  0.00    +0.000 C 
ATOM      4  H   UNL     1     -19.931  43.253 -12.601  0.00  0.00    +0.000 HD
ENDROOT
BRANCH   3   6
ATOM      5  N   UNL     1     -19.426  39.704 -10.123  0.00  0.00    +0.000 NA
ATOM      6  C   UNL     1     -18.541  41.439 -11.510  0.00  0.00    +0.000 A 
ATOM      7  C   UNL     1     -19.192  40.246 -11.339  0.00  0.00    +0.000 A 
ATOM      8  C   UNL     1     -18.094  42.143 -10.417  0.00  0.00    +0.000 A 
ATOM      9  C   UNL     1     -18.317  41.618  -9.148  0.00  0.00    +0.000 A 
ATOM     10  C   UNL     1     -18.982  40.406  -9.056  0.00  0.00    +0.000 A 
BRANCH   7  11
ATOM     11  N   UNL     1     -19.645  39.535 -12.478  0.00  0.00    +0.000 N 
ATOM     12  H   UNL     1     -19.292  38.592 -12.592  0.00  0.00    +0.000 HD
ATOM     13  H   UNL     1     -19.873  40.055 -13.316  0.00  0.00    +0.000 HD
ENDBRANCH   7  11
ENDBRANCH   3   6
BRANCH   2  14
ATOM     14  C   UNL     1     -19.237  43.690 -14.478  0.00  0.00    +0.000 A 
ATOM     15  C   UNL     1     -18.585  44.917 -14.600  0.00  0.00    +0.000 A 
ATOM     16  C   UNL     1     -19.920  43.152 -15.568  0.00  0.00    +0.000 A 
ATOM     17  C   UNL     1     -18.618  45.607 -15.812  0.00  0.00    +0.000 A 
ATOM     18  C   UNL     1     -19.953  43.842 -16.781  0.00  0.00    +0.000 A 
ATOM     19  C   UNL     1     -19.302  45.070 -16.902  0.00  0.00    +0.000 A 
ENDBRANCH   2  14
TORSDOF 3
ENDMDL
MODEL 3
REMARK VINA RESULT:    -6.205      5.149      7.174
REMARK INTER + INTRA:          -7.574
REMARK INTER:                  -7.035
REMARK INTRA:                  -0.539
REMARK UNBOUND:                -0.462
REMARK  Name = 3039701
REMARK  3 active torsions:
REMARK  status: ('A' for Active; 'I' for Inactive)
REMARK    1  A    between atoms: N_2  and  C_6
REMARK    2  A    between atoms: N_4  and  C_8
REMARK    3  A    between atoms: C_5  and  C_7
REMARK                            x       y       z     vdW  Elec       q    Type
REMARK                         _______ _______ _______ _____ _____    ______ ____
ROOT
ATOM      1  O   UNL     1     -19.103  43.961 -13.246  0.00  0.00    +0.000 OA
ATOM      2  N   UNL     1     -19.849  42.494 -14.925  0.00  0.00    +0.000 N 
ATOM      3  C   UNL     1     -19.231  42.835 -13.715  0.00  0.00    +0.000 C 
ATOM      4  H   UNL     1     -19.865  41.506 -15.167  0.00  0.00    +0.000 HD
ENDROOT
BRANCH   3   6
ATOM      5  N   UNL     1     -16.764  40.562 -12.032  0.00  0.00    +0.000 NA
ATOM      6  C   UNL     1     -18.658  41.696 -12.950  0.00  0.00    +0.000 A 
ATOM      7  C   UNL     1     -17.312  41.586 -12.723  0.00  0.00    +0.000 A 
ATOM      8  C   UNL     1     -19.519  40.738 -12.467  0.00  0.00    +0.000 A 
ATOM      9  C   UNL     1     -18.992  39.668 -11.751  0.00  0.00    +0.000 A 
ATOM     10  C   UNL     1     -17.620  39.627 -11.562  0.00  0.00    +0.000 A 
BRANCH   7  11
ATOM     11  N   UNL     1     -16.441  42.583 -13.228  0.00  0.00    +0.000 N 
ATOM     12  H   UNL     1     -16.312  42.605 -14.233  0.00  0.00    +0.000 HD
ATOM     13  H   UNL     1     -15.668  42.891 -12.650  0.00  0.00    +0.000 HD
ENDBRANCH   7  11
ENDBRANCH   3   6
BRANCH   2  14
ATOM     14  C   UNL     1     -20.446  43.346 -15.855  0.00  0.00    +0.000 A 
ATOM     15  C   UNL     1     -19.657  44.196 -16.629  0.00  0.00    +0.000 A 
ATOM     16  C   UNL     1     -21.832  43.346 -16.011  0.00  0.00    +0.000 A 
ATOM     17  C   UNL     1     -20.253  45.048 -17.559  0.00  0.00    +0.000 A 
ATOM     18  C   UNL     1     -22.429  44.198 -16.942  0.00  0.00    +0.000 A 
ATOM     19  C   UNL     1     -21.639  45.049 -17.715  0.00  0.00    +0.000 A 
ENDBRANCH   2  14
TORSDOF 3
ENDMDL
MODEL 4
REMARK VINA RESULT:    -5.705      4.971      7.883
REMARK INTER + INTRA:          -7.001
REMARK INTER:                  -6.451
REMARK INTRA:                  -0.550
REMARK UNBOUND:                -0.462
REMARK  Name = 3039701
REMARK  3 active torsions:
REMARK  status: ('A' for Active; 'I' for Inactive)
REMARK    1  A    between atoms: N_2  and  C_6
REMARK    2  A    between atoms: N_4  and  C_8
REMARK    3  A    between atoms: C_5  and  C_7
REMARK                            x       y       z     vdW  Elec       q    Type
REMARK                         _______ _______ _______ _____ _____    ______ ____
ROOT
ATOM      1  O   UNL     1     -19.061  44.292 -13.574  0.00  0.00    +0.000 OA
ATOM      2  N   UNL     1     -19.121  42.025 -14.194  0.00  0.00    +0.000 N 
ATOM      3  C   UNL     1     -19.305  43.401 -14.381  0.00  0.00    +0.000 C 
ATOM      4  H   UNL     1     -19.381  41.420 -14.970  0.00  0.00    +0.000 HD
ENDROOT
BRANCH   3   6
ATOM      5  N   UNL     1     -19.809  45.141 -17.668  0.00  0.00    +0.000 NA
ATOM      6  C   UNL     1     -19.881  43.794 -15.694  0.00  0.00    +0.000 A 
ATOM      7  C   UNL     1     -19.307  44.765 -16.471  0.00  0.00    +0.000 A 
ATOM      8  C   UNL     1     -21.021  43.154 -16.121  0.00  0.00    +0.000 A 
ATOM      9  C   UNL     1     -21.569  43.515 -17.348  0.00  0.00    +0.000 A 
ATOM     10  C   UNL     1     -20.930  44.505 -18.077  0.00  0.00    +0.000 A 
BRANCH   7  11
ATOM     11  N   UNL     1     -18.132  45.412 -16.014  0.00  0.00    +0.000 N 
ATOM     12  H   UNL     1     -18.260  46.297 -15.536  0.00  0.00    +0.000 HD
ATOM     13  H   UNL     1     -17.272  45.280 -16.533  0.00  0.00    +0.000 HD
ENDBRANCH   7  11
ENDBRANCH   3   6
BRANCH   2  14
ATOM     14  C   UNL     1     -18.628  41.370 -13.065  0.00  0.00    +0.000 A 
ATOM     15  C   UNL     1     -17.252  41.222 -12.891  0.00  0.00    +0.000 A 
ATOM     16  C   UNL     1     -19.510  40.865 -12.109  0.00  0.00    +0.000 A 
ATOM     17  C   UNL     1     -16.757  40.568 -11.763  0.00  0.00    +0.000 A 
ATOM     18  C   UNL     1     -19.015  40.211 -10.981  0.00  0.00    +0.000 A 
ATOM     19  C   UNL     1     -17.639  40.062 -10.807  0.00  0.00    +0.000 A 
ENDBRANCH   2  14
TORSDOF 3
ENDMDL
MODEL 5
REMARK VINA RESULT:    -5.677      5.459      8.273
REMARK INTER + INTRA:          -6.969
REMARK INTER:                  -6.449
REMARK INTRA:                  -0.520
REMARK UNBOUND:                -0.462
REMARK  Name = 3039701
REMARK  3 active torsions:
REMARK  status: ('A' for Active; 'I' for Inactive)
REMARK    1  A    between atoms: N_2  and  C_6
REMARK    2  A    between atoms: N_4  and  C_8
REMARK    3  A    between atoms: C_5  and  C_7
REMARK                            x       y       z     vdW  Elec       q    Type
REMARK                         _______ _______ _______ _____ _____    ______ ____
ROOT
ATOM      1  O   UNL     1     -20.730  42.694 -14.691  0.00  0.00    +0.000 OA
ATOM      2  N   UNL     1     -18.445  43.171 -14.413  0.00  0.00    +0.000 N 
ATOM      3  C   UNL     1     -19.689  43.229 -15.055  0.00  0.00    +0.000 C 
ATOM      4  H   UNL     1     -17.678  43.673 -14.855  0.00  0.00    +0.000 HD
ENDROOT
BRANCH   3   6
ATOM      5  N   UNL     1     -20.270  44.171 -18.641  0.00  0.00    +0.000 NA
ATOM      6  C   UNL     1     -19.715  44.008 -16.322  0.00  0.00    +0.000 A 
ATOM      7  C   UNL     1     -20.234  43.486 -17.477  0.00  0.00    +0.000 A 
ATOM      8  C   UNL     1     -19.199  45.282 -16.312  0.00  0.00    +0.000 A 
ATOM      9  C   UNL     1     -19.218  46.019 -17.492  0.00  0.00    +0.000 A 
ATOM     10  C   UNL     1     -19.760  45.423 -18.619  0.00  0.00    +0.000 A 
BRANCH   7  11
ATOM     11  N   UNL     1     -20.762  42.171 -17.467  0.00  0.00    +0.000 N 
ATOM     12  H   UNL     1     -21.318  41.901 -18.270  0.00  0.00    +0.000 HD
ATOM     13  H   UNL     1     -20.986  41.745 -16.576  0.00  0.00    +0.000 HD
ENDBRANCH   7  11
ENDBRANCH   3   6
BRANCH   2  14
ATOM     14  C   UNL     1     -18.118  42.500 -13.234  0.00  0.00    +0.000 A 
ATOM     15  C   UNL     1     -18.011  41.110 -13.230  0.00  0.00    +0.000 A 
ATOM     16  C   UNL     1     -17.895  43.221 -12.060  0.00  0.00    +0.000 A 
ATOM     17  C   UNL     1     -17.683  40.438 -12.052  0.00  0.00    +0.000 A 
ATOM     18  C   UNL     1     -17.567  42.549 -10.882  0.00  0.00    +0.000 A 
ATOM     19  C   UNL     1     -17.461  41.158 -10.878  0.00  0.00    +0.000 A 
ENDBRANCH   2  14
TORSDOF 3
ENDMDL
