MODEL 1
REMARK VINA RESULT:    -6.861      0.000      0.000
REMARK INTER + INTRA:          -8.831
REMARK INTER:                  -8.065
REMARK INTRA:                  -0.766
REMARK UNBOUND:                -0.766
REMARK  Name = 30756025
REMARK  3 active torsions:
REMARK  status: ('A' for Active; 'I' for Inactive)
REMARK    1  A    between atoms: N_2  and  C_5
REMARK    2  A    between atoms: N_2  and  C_12
REMARK    3  A    between atoms: C_13  and  C_15
REMARK                            x       y       z     vdW  Elec       q    Type
REMARK                         _______ _______ _______ _____ _____    ______ ____
ROOT
ATOM      1  N   UNL     1     -18.448  42.056  -8.281  0.00  0.00    +0.000 NA
ATOM      2  C   UNL     1     -18.389  41.439  -9.482  0.00  0.00    +0.000 A 
ATOM      3  C   UNL     1     -19.368  40.583  -9.963  0.00  0.00    +0.000 A 
ATOM      4  C   UNL     1     -20.477  40.346  -9.160  0.00  0.00    +0.000 A 
ATOM      5  C   UNL     1     -19.541  41.802  -7.528  0.00  0.00    +0.000 A 
ATOM      6  C   UNL     1     -20.574  40.962  -7.918  0.00  0.00    +0.000 A 
ENDROOT
BRANCH   3   9
ATOM      7  O   UNL     1     -18.522  38.956 -11.442  0.00  0.00    +0.000 OA
ATOM      8  N   UNL     1     -20.068  40.421 -12.292  0.00  0.00    +0.000 N 
ATOM      9  C   UNL     1     -19.274  39.930 -11.262  0.00  0.00    +0.000 C 
ATOM     10  H   UNL     1     -20.693  41.210 -12.160  0.00  0.00    +0.000 HD
ATOM     11  H   UNL     1     -20.046  39.999 -13.215  0.00  0.00    +0.000 HD
ENDBRANCH   3   9
BRANCH   2  12
ATOM     12  N   UNL     1     -17.283  41.678 -10.274  0.00  0.00    +0.000 N 
ATOM     13  H   UNL     1     -16.618  40.918 -10.382  0.00  0.00    +0.000 HD
BRANCH  12  14
ATOM     14  C   UNL     1     -16.784  43.010 -10.570  0.00  0.00    +0.000 C 
ATOM     15  C   UNL     1     -15.458  42.877 -11.326  0.00  0.00    +0.000 C 
ATOM     16  C   UNL     1     -17.890  43.817 -11.256  0.00  0.00    +0.000 C 
ATOM     17  C   UNL     1     -15.003  44.138 -12.054  0.00  0.00    +0.000 C 
ATOM     18  C   UNL     1     -17.987  43.636 -12.770  0.00  0.00    +0.000 C 
ATOM     19  C   UNL     1     -15.578  44.242 -13.465  0.00  0.00    +0.000 C 
ATOM     20  C   UNL     1     -17.063  44.580 -13.540  0.00  0.00    +0.000 C 
ENDBRANCH  12  14
ENDBRANCH   2  12
TORSDOF 3
ENDMDL
MODEL 2
REMARK VINA RESULT:    -5.706      3.853      6.541
REMARK INTER + INTRA:          -7.473
REMARK INTER:                  -6.819
REMARK INTRA:                  -0.654
REMARK UNBOUND:                -0.766
REMARK  Name = 30756025
REMARK  3 active torsions:
REMARK  status: ('A' for Active; 'I' for Inactive)
REMARK    1  A    between atoms: N_2  and  C_5
REMARK    2  A    between atoms: N_2  and  C_12
REMARK    3  A    between atoms: C_13  and  C_15
REMARK                            x       y       z     vdW  Elec       q    Type
REMARK                         _______ _______ _______ _____ _____    ______ ____
ROOT
ATOM      1  N   UNL     1     -20.453  42.721 -15.897  0.00  0.00    +0.000 NA
ATOM      2  C   UNL     1     -19.722  43.666 -15.266  0.00  0.00    +0.000 A 
ATOM      3  C   UNL     1     -19.133  44.746 -15.904  0.00  0.00    +0.000 A 
ATOM      4  C   UNL     1     -19.306  44.863 -17.278  0.00  0.00    +0.000 A 
ATOM      5  C   UNL     1     -20.600  42.868 -17.233  0.00  0.00    +0.000 A 
ATOM      6  C   UNL     1     -20.052  43.911 -17.963  0.00  0.00    +0.000 A 
ENDROOT
BRANCH   3   9
ATOM      7  O   UNL     1     -18.876  46.540 -14.400  0.00  0.00    +0.000 OA
ATOM      8  N   UNL     1     -16.976  45.773 -15.427  0.00  0.00    +0.000 N 
ATOM      9  C   UNL     1     -18.346  45.747 -15.195  0.00  0.00    +0.000 C 
ATOM     10  H   UNL     1     -16.525  45.127 -16.067  0.00  0.00    +0.000 HD
ATOM     11  H   UNL     1     -16.379  46.446 -14.955  0.00  0.00    +0.000 HD
ENDBRANCH   3   9
BRANCH   2  12
ATOM     12  N   UNL     1     -19.553  43.542 -13.901  0.00  0.00    +0.000 N 
ATOM     13  H   UNL     1     -20.028  44.219 -13.312  0.00  0.00    +0.000 HD
BRANCH  12  14
ATOM     14  C   UNL     1     -18.431  42.845 -13.294  0.00  0.00    +0.000 C 
ATOM     15  C   UNL     1     -17.979  43.630 -12.059  0.00  0.00    +0.000 C 
ATOM     16  C   UNL     1     -18.815  41.378 -13.075  0.00  0.00    +0.000 C 
ATOM     17  C   UNL     1     -17.095  42.852 -11.090  0.00  0.00    +0.000 C 
ATOM     18  C   UNL     1     -19.560  41.086 -11.773  0.00  0.00    +0.000 C 
ATOM     19  C   UNL     1     -17.903  42.066 -10.058  0.00  0.00    +0.000 C 
ATOM     20  C   UNL     1     -18.620  40.832 -10.596  0.00  0.00    +0.000 C 
ENDBRANCH  12  14
ENDBRANCH   2  12
TORSDOF 3
ENDMDL
MODEL 3
REMARK VINA RESULT:    -5.393      4.064      5.826
REMARK INTER + INTRA:          -7.105
REMARK INTER:                  -6.427
REMARK INTRA:                  -0.678
REMARK UNBOUND:                -0.766
REMARK  Name = 30756025
REMARK  3 active torsions:
REMARK  status: ('A' for Active; 'I' for Inactive)
REMARK    1  A    between atoms: N_2  and  C_5
REMARK    2  A    between atoms: N_2  and  C_12
REMARK    3  A    between atoms: C_13  and  C_15
REMARK                            x       y       z     vdW  Elec       q    Type
REMARK                         _______ _______ _______ _____ _____    ______ ____
ROOT
ATOM      1  N   UNL     1     -18.381  45.633 -13.549  0.00  0.00    +0.000 NA
ATOM      2  C   UNL     1     -18.377  44.311 -13.832  0.00  0.00    +0.000 A 
ATOM      3  C   UNL     1     -18.011  43.325 -12.930  0.00  0.00    +0.000 A 
ATOM      4  C   UNL     1     -17.624  43.721 -11.655  0.00  0.00    +0.000 A 
ATOM      5  C   UNL     1     -17.999  45.980 -12.299  0.00  0.00    +0.000 A 
ATOM      6  C   UNL     1     -17.615  45.071 -11.325  0.00  0.00    +0.000 A 
ENDROOT
BRANCH   3   9
ATOM      7  O   UNL     1     -19.030  41.353 -13.718  0.00  0.00    +0.000 OA
ATOM      8  N   UNL     1     -16.832  41.198 -13.083  0.00  0.00    +0.000 N 
ATOM      9  C   UNL     1     -18.014  41.908 -13.267  0.00  0.00    +0.000 C 
ATOM     10  H   UNL     1     -15.990  41.637 -12.724  0.00  0.00    +0.000 HD
ATOM     11  H   UNL     1     -16.776  40.210 -13.308  0.00  0.00    +0.000 HD
ENDBRANCH   3   9
BRANCH   2  12
ATOM     12  N   UNL     1     -18.761  43.925 -15.101  0.00  0.00    +0.000 N 
ATOM     13  H   UNL     1     -18.089  43.394 -15.646  0.00  0.00    +0.000 HD
BRANCH  12  14
ATOM     14  C   UNL     1     -19.814  44.585 -15.854  0.00  0.00    +0.000 C 
ATOM     15  C   UNL     1     -19.187  45.268 -17.073  0.00  0.00    +0.000 C 
ATOM     16  C   UNL     1     -20.937  43.580 -16.129  0.00  0.00    +0.000 C 
ATOM     17  C   UNL     1     -20.174  45.660 -18.170  0.00  0.00    +0.000 C 
ATOM     18  C   UNL     1     -20.745  42.710 -17.371  0.00  0.00    +0.000 C 
ATOM     19  C   UNL     1     -20.422  44.530 -19.168  0.00  0.00    +0.000 C 
ATOM     20  C   UNL     1     -21.266  43.373 -18.644  0.00  0.00    +0.000 C 
ENDBRANCH  12  14
ENDBRANCH   2  12
TORSDOF 3
ENDMDL
MODEL 4
REMARK VINA RESULT:    -5.368      2.854      3.361
REMARK INTER + INTRA:          -7.075
REMARK INTER:                  -6.368
REMARK INTRA:                  -0.707
REMARK UNBOUND:                -0.766
REMARK  Name = 30756025
REMARK  3 active torsions:
REMARK  status: ('A' for Active; 'I' for Inactive)
REMARK    1  A    between atoms: N_2  and  C_5
REMARK    2  A    between atoms: N_2  and  C_12
REMARK    3  A    between atoms: C_13  and  C_15
REMARK                            x       y       z     vdW  Elec       q    Type
REMARK                         _______ _______ _______ _____ _____    ______ ____
ROOT
ATOM      1  N   UNL     1     -16.838  40.761 -11.743  0.00  0.00    +0.000 NA
ATOM      2  C   UNL     1     -17.436  41.679 -12.535  0.00  0.00    +0.000 A 
ATOM      3  C   UNL     1     -18.737  41.573 -13.000  0.00  0.00    +0.000 A 
ATOM      4  C   UNL     1     -19.471  40.452 -12.629  0.00  0.00    +0.000 A 
ATOM      5  C   UNL     1     -17.583  39.686 -11.402  0.00  0.00    +0.000 A 
ATOM      6  C   UNL     1     -18.891  39.486 -11.815  0.00  0.00    +0.000 A 
ENDROOT
BRANCH   3   9
ATOM      7  O   UNL     1     -19.904  43.583 -13.379  0.00  0.00    +0.000 OA
ATOM      8  N   UNL     1     -19.285  42.383 -15.232  0.00  0.00    +0.000 N 
ATOM      9  C   UNL     1     -19.352  42.578 -13.857  0.00  0.00    +0.000 C 
ATOM     10  H   UNL     1     -18.831  41.572 -15.640  0.00  0.00    +0.000 HD
ATOM     11  H   UNL     1     -19.692  43.055 -15.874  0.00  0.00    +0.000 HD
ENDBRANCH   3   9
BRANCH   2  12
ATOM     12  N   UNL     1     -16.700  42.789 -12.901  0.00  0.00    +0.000 N 
ATOM     13  H   UNL     1     -16.286  42.784 -13.828  0.00  0.00    +0.000 HD
BRANCH  12  14
ATOM     14  C   UNL     1     -16.111  43.710 -11.944  0.00  0.00    +0.000 C 
ATOM     15  C   UNL     1     -15.134  44.627 -12.687  0.00  0.00    +0.000 C 
ATOM     16  C   UNL     1     -17.231  44.393 -11.153  0.00  0.00    +0.000 C 
ATOM     17  C   UNL     1     -14.736  45.891 -11.930  0.00  0.00    +0.000 C 
ATOM     18  C   UNL     1     -17.832  45.633 -11.811  0.00  0.00    +0.000 C 
ATOM     19  C   UNL     1     -15.705  47.048 -12.166  0.00  0.00    +0.000 C 
ATOM     20  C   UNL     1     -17.061  46.911 -11.482  0.00  0.00    +0.000 C 
ENDBRANCH  12  14
ENDBRANCH   2  12
TORSDOF 3
ENDMDL
MODEL 5
REMARK VINA RESULT:    -5.113      4.446      6.692
REMARK INTER + INTRA:          -6.775
REMARK INTER:                  -6.067
REMARK INTRA:                  -0.708
REMARK UNBOUND:                -0.766
REMARK  Name = 30756025
REMARK  3 active torsions:
REMARK  status: ('A' for Active; 'I' for Inactive)
REMARK    1  A    between atoms: N_2  and  C_5
REMARK    2  A    between atoms: N_2  and  C_12
REMARK    3  A    between atoms: C_13  and  C_15
REMARK                            x       y       z     vdW  Elec       q    Type
REMARK                         _______ _______ _______ _____ _____    ______ ____
ROOT
ATOM      1  N   UNL     1     -21.034  43.001 -15.904  0.00  0.00    +0.000 NA
ATOM      2  C   UNL     1     -19.992  43.862 -15.852  0.00  0.00    +0.000 A 
ATOM      3  C   UNL     1     -19.983  45.106 -16.462  0.00  0.00    +0.000 A 
ATOM      4  C   UNL     1     -21.114  45.492 -17.171  0.00  0.00    +0.000 A 
ATOM      5  C   UNL     1     -22.117  43.411 -16.602  0.00  0.00    +0.000 A 
ATOM      6  C   UNL     1     -22.206  44.635 -17.247  0.00  0.00    +0.000 A 
ENDROOT
BRANCH   3   9
ATOM      7  O   UNL     1     -17.855  45.863 -17.131  0.00  0.00    +0.000 OA
ATOM      8  N   UNL     1     -18.903  47.056 -15.477  0.00  0.00    +0.000 N 
ATOM      9  C   UNL     1     -18.842  46.010 -16.391  0.00  0.00    +0.000 C 
ATOM     10  H   UNL     1     -19.705  47.196 -14.871  0.00  0.00    +0.000 HD
ATOM     11  H   UNL     1     -18.138  47.718 -15.391  0.00  0.00    +0.000 HD
ENDBRANCH   3   9
BRANCH   2  12
ATOM     12  N   UNL     1     -18.871  43.472 -15.147  0.00  0.00    +0.000 N 
ATOM     13  H   UNL     1     -18.172  42.935 -15.651  0.00  0.00    +0.000 HD
BRANCH  12  14
ATOM     14  C   UNL     1     -18.831  43.370 -13.698  0.00  0.00    +0.000 C 
ATOM     15  C   UNL     1     -18.631  41.899 -13.318  0.00  0.00    +0.000 C 
ATOM     16  C   UNL     1     -17.804  44.368 -13.155  0.00  0.00    +0.000 C 
ATOM     17  C   UNL     1     -18.172  41.662 -11.882  0.00  0.00    +0.000 C 
ATOM     18  C   UNL     1     -16.361  43.866 -13.120  0.00  0.00    +0.000 C 
ATOM     19  C   UNL     1     -16.652  41.710 -11.735  0.00  0.00    +0.000 C 
ATOM     20  C   UNL     1     -16.032  43.099 -11.840  0.00  0.00    +0.000 C 
ENDBRANCH  12  14
ENDBRANCH   2  12
TORSDOF 3
ENDMDL
