MODEL 1
REMARK VINA RESULT:    -6.029      0.000      0.000
REMARK INTER + INTRA:          -7.922
REMARK INTER:                  -7.791
REMARK INTRA:                  -0.131
REMARK UNBOUND:                -0.131
REMARK  Name = 31535273
REMARK  7 active torsions:
REMARK  status: ('A' for Active; 'I' for Inactive)
REMARK    1  A    between atoms: N_2  and  C_5
REMARK    2  A    between atoms: N_2  and  C_8
REMARK    3  A    between atoms: N_2  and  C_9
REMARK    4  A    between atoms: C_5  and  C_6
REMARK    5  A    between atoms: C_6  and  C_7
REMARK    6  A    between atoms: C_7  and  C_10
REMARK    7  A    between atoms: C_11  and  C_13
REMARK                            x       y       z     vdW  Elec       q    Type
REMARK                         _______ _______ _______ _____ _____    ______ ____
ROOT
ATOM      1  N   UNL     1     -18.329  42.142  -8.682  0.00  0.00    +0.000 NA
ATOM      2  C   UNL     1     -18.421  41.463  -9.847  0.00  0.00    +0.000 A 
ATOM      3  C   UNL     1     -19.423  40.548 -10.135  0.00  0.00    +0.000 A 
ATOM      4  C   UNL     1     -20.391  40.318  -9.165  0.00  0.00    +0.000 A 
ATOM      5  C   UNL     1     -20.330  40.998  -7.953  0.00  0.00    +0.000 A 
ATOM      6  C   UNL     1     -19.288  41.891  -7.763  0.00  0.00    +0.000 A 
ENDROOT
BRANCH   3   9
ATOM      7  O   UNL     1     -19.176  38.636 -11.488  0.00  0.00    +0.000 OA
ATOM      8  N   UNL     1     -19.957  40.533 -12.512  0.00  0.00    +0.000 N 
ATOM      9  C   UNL     1     -19.496  39.833 -11.401  0.00  0.00    +0.000 C 
ATOM     10  H   UNL     1     -20.240  41.506 -12.458  0.00  0.00    +0.000 HD
ATOM     11  H   UNL     1     -20.032  40.083 -13.417  0.00  0.00    +0.000 HD
ENDBRANCH   3   9
BRANCH   2  12
ATOM     12  N   UNL     1     -17.441  41.701 -10.820  0.00  0.00    +0.000 N 
ATOM     13  C   UNL     1     -16.401  40.700 -11.071  0.00  0.00    +0.000 C 
BRANCH  12  14
ATOM     14  C   UNL     1     -17.430  42.916 -11.597  0.00  0.00    +0.000 C 
BRANCH  14  15
ATOM     15  C   UNL     1     -16.621  42.734 -12.878  0.00  0.00    +0.000 C 
BRANCH  15  16
ATOM     16  C   UNL     1     -15.576  43.835 -13.078  0.00  0.00    +0.000 C 
ATOM     17  C   UNL     1     -14.598  43.890 -11.915  0.00  0.00    +0.000 C 
ENDBRANCH  15  16
ENDBRANCH  14  15
ENDBRANCH  12  14
ENDBRANCH   2  12
TORSDOF 5
ENDMDL
MODEL 2
REMARK VINA RESULT:    -5.538      1.747      4.189
REMARK INTER + INTRA:          -7.289
REMARK INTER:                  -7.167
REMARK INTRA:                  -0.121
REMARK UNBOUND:                -0.131
REMARK  Name = 31535273
REMARK  7 active torsions:
REMARK  status: ('A' for Active; 'I' for Inactive)
REMARK    1  A    between atoms: N_2  and  C_5
REMARK    2  A    between atoms: N_2  and  C_8
REMARK    3  A    between atoms: N_2  and  C_9
REMARK    4  A    between atoms: C_5  and  C_6
REMARK    5  A    between atoms: C_6  and  C_7
REMARK    6  A    between atoms: C_7  and  C_10
REMARK    7  A    between atoms: C_11  and  C_13
REMARK                            x       y       z     vdW  Elec       q    Type
REMARK                         _______ _______ _______ _____ _____    ______ ____
ROOT
ATOM      1  N   UNL     1     -17.368  43.338 -11.306  0.00  0.00    +0.000 NA
ATOM      2  C   UNL     1     -17.709  42.069 -11.623  0.00  0.00    +0.000 A 
ATOM      3  C   UNL     1     -18.559  41.731 -12.665  0.00  0.00    +0.000 A 
ATOM      4  C   UNL     1     -19.093  42.762 -13.429  0.00  0.00    +0.000 A 
ATOM      5  C   UNL     1     -18.766  44.081 -13.133  0.00  0.00    +0.000 A 
ATOM      6  C   UNL     1     -17.907  44.313 -12.070  0.00  0.00    +0.000 A 
ENDROOT
BRANCH   3   9
ATOM      7  O   UNL     1     -18.199  39.667 -13.741  0.00  0.00    +0.000 OA
ATOM      8  N   UNL     1     -20.049  39.822 -12.396  0.00  0.00    +0.000 N 
ATOM      9  C   UNL     1     -18.906  40.353 -12.984  0.00  0.00    +0.000 C 
ATOM     10  H   UNL     1     -20.630  40.361 -11.761  0.00  0.00    +0.000 HD
ATOM     11  H   UNL     1     -20.335  38.867 -12.580  0.00  0.00    +0.000 HD
ENDBRANCH   3   9
BRANCH   2  12
ATOM     12  N   UNL     1     -17.166  41.034 -10.848  0.00  0.00    +0.000 N 
ATOM     13  C   UNL     1     -15.885  40.434 -11.224  0.00  0.00    +0.000 C 
BRANCH  12  14
ATOM     14  C   UNL     1     -17.840  40.543  -9.670  0.00  0.00    +0.000 C 
BRANCH  14  15
ATOM     15  C   UNL     1     -18.536  41.681  -8.929  0.00  0.00    +0.000 C 
BRANCH  15  16
ATOM     16  C   UNL     1     -19.643  41.188  -7.994  0.00  0.00    +0.000 C 
ATOM     17  C   UNL     1     -20.632  40.294  -8.728  0.00  0.00    +0.000 C 
ENDBRANCH  15  16
ENDBRANCH  14  15
ENDBRANCH  12  14
ENDBRANCH   2  12
TORSDOF 5
ENDMDL
MODEL 3
REMARK VINA RESULT:    -5.492      2.139      5.078
REMARK INTER + INTRA:          -7.228
REMARK INTER:                  -7.090
REMARK INTRA:                  -0.138
REMARK UNBOUND:                -0.131
REMARK  Name = 31535273
REMARK  7 active torsions:
REMARK  status: ('A' for Active; 'I' for Inactive)
REMARK    1  A    between atoms: N_2  and  C_5
REMARK    2  A    between atoms: N_2  and  C_8
REMARK    3  A    between atoms: N_2  and  C_9
REMARK    4  A    between atoms: C_5  and  C_6
REMARK    5  A    between atoms: C_6  and  C_7
REMARK    6  A    between atoms: C_7  and  C_10
REMARK    7  A    between atoms: C_11  and  C_13
REMARK                            x       y       z     vdW  Elec       q    Type
REMARK                         _______ _______ _______ _____ _____    ______ ____
ROOT
ATOM      1  N   UNL     1     -19.572  41.688 -13.486  0.00  0.00    +0.000 NA
ATOM      2  C   UNL     1     -18.806  41.724 -12.373  0.00  0.00    +0.000 A 
ATOM      3  C   UNL     1     -18.016  42.803 -12.009  0.00  0.00    +0.000 A 
ATOM      4  C   UNL     1     -18.012  43.916 -12.841  0.00  0.00    +0.000 A 
ATOM      5  C   UNL     1     -18.786  43.917 -13.997  0.00  0.00    +0.000 A 
ATOM      6  C   UNL     1     -19.541  42.788 -14.271  0.00  0.00    +0.000 A 
ENDROOT
BRANCH   3   9
ATOM      7  O   UNL     1     -17.703  43.041  -9.686  0.00  0.00    +0.000 OA
ATOM      8  N   UNL     1     -15.846  42.539 -10.933  0.00  0.00    +0.000 N 
ATOM      9  C   UNL     1     -17.203  42.813 -10.800  0.00  0.00    +0.000 C 
ATOM     10  H   UNL     1     -15.422  42.333 -11.832  0.00  0.00    +0.000 HD
ATOM     11  H   UNL     1     -15.234  42.529 -10.124  0.00  0.00    +0.000 HD
ENDBRANCH   3   9
BRANCH   2  12
ATOM     12  N   UNL     1     -18.816  40.598 -11.538  0.00  0.00    +0.000 N 
ATOM     13  C   UNL     1     -17.675  39.680 -11.535  0.00  0.00    +0.000 C 
BRANCH  12  14
ATOM     14  C   UNL     1     -19.930  40.317 -10.664  0.00  0.00    +0.000 C 
BRANCH  14  15
ATOM     15  C   UNL     1     -19.472  40.232  -9.211  0.00  0.00    +0.000 C 
BRANCH  15  16
ATOM     16  C   UNL     1     -20.504  40.798  -8.232  0.00  0.00    +0.000 C 
ATOM     17  C   UNL     1     -19.861  41.755  -7.240  0.00  0.00    +0.000 C 
ENDBRANCH  15  16
ENDBRANCH  14  15
ENDBRANCH  12  14
ENDBRANCH   2  12
TORSDOF 5
ENDMDL
MODEL 4
REMARK VINA RESULT:    -5.379      1.548      4.833
REMARK INTER + INTRA:          -7.083
REMARK INTER:                  -6.944
REMARK INTRA:                  -0.139
REMARK UNBOUND:                -0.131
REMARK  Name = 31535273
REMARK  7 active torsions:
REMARK  status: ('A' for Active; 'I' for Inactive)
REMARK    1  A    between atoms: N_2  and  C_5
REMARK    2  A    between atoms: N_2  and  C_8
REMARK    3  A    between atoms: N_2  and  C_9
REMARK    4  A    between atoms: C_5  and  C_6
REMARK    5  A    between atoms: C_6  and  C_7
REMARK    6  A    between atoms: C_7  and  C_10
REMARK    7  A    between atoms: C_11  and  C_13
REMARK                            x       y       z     vdW  Elec       q    Type
REMARK                         _______ _______ _______ _____ _____    ______ ____
ROOT
ATOM      1  N   UNL     1     -17.931  43.476 -11.000  0.00  0.00    +0.000 NA
ATOM      2  C   UNL     1     -17.726  42.176 -11.308  0.00  0.00    +0.000 A 
ATOM      3  C   UNL     1     -16.783  41.735 -12.224  0.00  0.00    +0.000 A 
ATOM      4  C   UNL     1     -16.002  42.690 -12.864  0.00  0.00    +0.000 A 
ATOM      5  C   UNL     1     -16.184  44.038 -12.573  0.00  0.00    +0.000 A 
ATOM      6  C   UNL     1     -17.153  44.375 -11.642  0.00  0.00    +0.000 A 
ENDROOT
BRANCH   3   9
ATOM      7  O   UNL     1     -17.177  39.781 -13.480  0.00  0.00    +0.000 OA
ATOM      8  N   UNL     1     -15.688  39.612 -11.743  0.00  0.00    +0.000 N 
ATOM      9  C   UNL     1     -16.583  40.326 -12.534  0.00  0.00    +0.000 C 
ATOM     10  H   UNL     1     -15.181  40.044 -10.977  0.00  0.00    +0.000 HD
ATOM     11  H   UNL     1     -15.508  38.629 -11.917  0.00  0.00    +0.000 HD
ENDBRANCH   3   9
BRANCH   2  12
ATOM     12  N   UNL     1     -18.518  41.218 -10.659  0.00  0.00    +0.000 N 
ATOM     13  C   UNL     1     -19.712  40.688 -11.320  0.00  0.00    +0.000 C 
BRANCH  12  14
ATOM     14  C   UNL     1     -18.181  40.728  -9.344  0.00  0.00    +0.000 C 
BRANCH  14  15
ATOM     15  C   UNL     1     -18.760  41.636  -8.263  0.00  0.00    +0.000 C 
BRANCH  15  16
ATOM     16  C   UNL     1     -19.941  40.999  -7.526  0.00  0.00    +0.000 C 
ATOM     17  C   UNL     1     -20.542  41.957  -6.509  0.00  0.00    +0.000 C 
ENDBRANCH  15  16
ENDBRANCH  14  15
ENDBRANCH  12  14
ENDBRANCH   2  12
TORSDOF 5
ENDMDL
MODEL 5
REMARK VINA RESULT:    -4.573      7.123      8.489
REMARK INTER + INTRA:          -6.041
REMARK INTER:                  -5.867
REMARK INTRA:                  -0.174
REMARK UNBOUND:                -0.131
REMARK  Name = 31535273
REMARK  7 active torsions:
REMARK  status: ('A' for Active; 'I' for Inactive)
REMARK    1  A    between atoms: N_2  and  C_5
REMARK    2  A    between atoms: N_2  and  C_8
REMARK    3  A    between atoms: N_2  and  C_9
REMARK    4  A    between atoms: C_5  and  C_6
REMARK    5  A    between atoms: C_6  and  C_7
REMARK    6  A    between atoms: C_7  and  C_10
REMARK    7  A    between atoms: C_11  and  C_13
REMARK                            x       y       z     vdW  Elec       q    Type
REMARK                         _______ _______ _______ _____ _____    ______ ____
ROOT
ATOM      1  N   UNL     1     -21.735  46.308 -18.149  0.00  0.00    +0.000 NA
ATOM      2  C   UNL     1     -21.037  45.238 -17.707  0.00  0.00    +0.000 A 
ATOM      3  C   UNL     1     -21.589  44.200 -16.971  0.00  0.00    +0.000 A 
ATOM      4  C   UNL     1     -22.944  44.266 -16.671  0.00  0.00    +0.000 A 
ATOM      5  C   UNL     1     -23.697  45.352 -17.108  0.00  0.00    +0.000 A 
ATOM      6  C   UNL     1     -23.050  46.337 -17.837  0.00  0.00    +0.000 A 
ENDROOT
BRANCH   3   9
ATOM      7  O   UNL     1     -20.506  42.132 -17.279  0.00  0.00    +0.000 OA
ATOM      8  N   UNL     1     -20.403  43.050 -15.180  0.00  0.00    +0.000 N 
ATOM      9  C   UNL     1     -20.811  43.059 -16.511  0.00  0.00    +0.000 C 
ATOM     10  H   UNL     1     -20.628  43.806 -14.542  0.00  0.00    +0.000 HD
ATOM     11  H   UNL     1     -19.856  42.282 -14.808  0.00  0.00    +0.000 HD
ENDBRANCH   3   9
BRANCH   2  12
ATOM     12  N   UNL     1     -19.670  45.178 -18.014  0.00  0.00    +0.000 N 
ATOM     13  C   UNL     1     -18.684  45.692 -17.061  0.00  0.00    +0.000 C 
BRANCH  12  14
ATOM     14  C   UNL     1     -19.201  44.611 -19.255  0.00  0.00    +0.000 C 
BRANCH  14  15
ATOM     15  C   UNL     1     -17.678  44.664 -19.333  0.00  0.00    +0.000 C 
BRANCH  15  16
ATOM     16  C   UNL     1     -17.174  45.222 -20.667  0.00  0.00    +0.000 C 
ATOM     17  C   UNL     1     -15.729  45.687 -20.564  0.00  0.00    +0.000 C 
ENDBRANCH  15  16
ENDBRANCH  14  15
ENDBRANCH  12  14
ENDBRANCH   2  12
TORSDOF 5
ENDMDL
