MODEL 1
REMARK VINA RESULT:    -6.032      0.000      0.000
REMARK INTER + INTRA:          -7.071
REMARK INTER:                  -6.737
REMARK INTRA:                  -0.334
REMARK UNBOUND:                -0.334
REMARK  Name = 31535175
REMARK  2 active torsions:
REMARK  status: ('A' for Active; 'I' for Inactive)
REMARK    1  A    between atoms: N_2  and  C_10
REMARK    2  A    between atoms: C_11  and  C_13
REMARK                            x       y       z     vdW  Elec       q    Type
REMARK                         _______ _______ _______ _____ _____    ______ ____
ROOT
ATOM      1  N   UNL     1     -18.189  42.419  -8.992  0.00  0.00    +0.000 NA
ATOM      2  C   UNL     1     -18.192  41.908 -10.244  0.00  0.00    +0.000 A 
ATOM      3  C   UNL     1     -18.847  40.743 -10.606  0.00  0.00    +0.000 A 
ATOM      4  C   UNL     1     -19.544  40.055  -9.617  0.00  0.00    +0.000 A 
ATOM      5  C   UNL     1     -18.876  41.723  -8.059  0.00  0.00    +0.000 A 
ATOM      6  C   UNL     1     -19.564  40.548  -8.317  0.00  0.00    +0.000 A 
ENDROOT
BRANCH   2   7
ATOM      7  N   UNL     1     -17.488  42.606 -11.233  0.00  0.00    +0.000 N 
ATOM      8  C   UNL     1     -16.072  44.167 -13.205  0.00  0.00    +0.000 C 
ATOM      9  C   UNL     1     -15.404  43.004 -12.484  0.00  0.00    +0.000 C 
ATOM     10  C   UNL     1     -17.574  43.928 -13.310  0.00  0.00    +0.000 C 
ATOM     11  C   UNL     1     -16.032  42.754 -11.115  0.00  0.00    +0.000 C 
ATOM     12  C   UNL     1     -18.197  43.683 -11.938  0.00  0.00    +0.000 C 
ENDBRANCH   2   7
BRANCH   3  15
ATOM     13  O   UNL     1     -17.840  39.628 -12.419  0.00  0.00    +0.000 OA
ATOM     14  N   UNL     1     -19.981  40.388 -12.733  0.00  0.00    +0.000 N 
ATOM     15  C   UNL     1     -18.834  40.219 -11.965  0.00  0.00    +0.000 C 
ATOM     16  H   UNL     1     -20.805  40.861 -12.373  0.00  0.00    +0.000 HD
ATOM     17  H   UNL     1     -20.030  40.037 -13.683  0.00  0.00    +0.000 HD
ENDBRANCH   3  15
TORSDOF 2
ENDMDL
MODEL 2
REMARK VINA RESULT:    -5.146      6.673      8.241
REMARK INTER + INTRA:          -6.082
REMARK INTER:                  -5.697
REMARK INTRA:                  -0.385
REMARK UNBOUND:                -0.334
REMARK  Name = 31535175
REMARK  2 active torsions:
REMARK  status: ('A' for Active; 'I' for Inactive)
REMARK    1  A    between atoms: N_2  and  C_10
REMARK    2  A    between atoms: C_11  and  C_13
REMARK                            x       y       z     vdW  Elec       q    Type
REMARK                         _______ _______ _______ _____ _____    ______ ____
ROOT
ATOM      1  N   UNL     1     -21.942  46.071 -18.404  0.00  0.00    +0.000 NA
ATOM      2  C   UNL     1     -21.075  45.083 -18.085  0.00  0.00    +0.000 A 
ATOM      3  C   UNL     1     -21.355  44.064 -17.189  0.00  0.00    +0.000 A 
ATOM      4  C   UNL     1     -22.605  44.060 -16.579  0.00  0.00    +0.000 A 
ATOM      5  C   UNL     1     -23.146  46.033 -17.791  0.00  0.00    +0.000 A 
ATOM      6  C   UNL     1     -23.524  45.059 -16.881  0.00  0.00    +0.000 A 
ENDROOT
BRANCH   2   7
ATOM      7  N   UNL     1     -19.818  45.095 -18.703  0.00  0.00    +0.000 N 
ATOM      8  C   UNL     1     -17.285  45.199 -20.082  0.00  0.00    +0.000 C 
ATOM      9  C   UNL     1     -17.407  45.586 -18.614  0.00  0.00    +0.000 C 
ATOM     10  C   UNL     1     -18.344  44.163 -20.443  0.00  0.00    +0.000 C 
ATOM     11  C   UNL     1     -18.813  46.075 -18.274  0.00  0.00    +0.000 C 
ATOM     12  C   UNL     1     -19.748  44.660 -20.105  0.00  0.00    +0.000 C 
ENDBRANCH   2   7
BRANCH   3  15
ATOM     13  O   UNL     1     -20.455  41.901 -17.421  0.00  0.00    +0.000 OA
ATOM     14  N   UNL     1     -19.412  43.299 -15.933  0.00  0.00    +0.000 N 
ATOM     15  C   UNL     1     -20.400  43.012 -16.868  0.00  0.00    +0.000 C 
ATOM     16  H   UNL     1     -19.348  44.205 -15.478  0.00  0.00    +0.000 HD
ATOM     17  H   UNL     1     -18.718  42.606 -15.677  0.00  0.00    +0.000 HD
ENDBRANCH   3  15
TORSDOF 2
ENDMDL
MODEL 3
REMARK VINA RESULT:    -5.100      2.224      2.628
REMARK INTER + INTRA:          -6.030
REMARK INTER:                  -5.819
REMARK INTRA:                  -0.211
REMARK UNBOUND:                -0.334
REMARK  Name = 31535175
REMARK  2 active torsions:
REMARK  status: ('A' for Active; 'I' for Inactive)
REMARK    1  A    between atoms: N_2  and  C_10
REMARK    2  A    between atoms: C_11  and  C_13
REMARK                            x       y       z     vdW  Elec       q    Type
REMARK                         _______ _______ _______ _____ _____    ______ ____
ROOT
ATOM      1  N   UNL     1     -17.230  41.374 -10.977  0.00  0.00    +0.000 NA
ATOM      2  C   UNL     1     -17.763  42.127 -11.966  0.00  0.00    +0.000 A 
ATOM      3  C   UNL     1     -18.836  41.734 -12.749  0.00  0.00    +0.000 A 
ATOM      4  C   UNL     1     -19.398  40.486 -12.501  0.00  0.00    +0.000 A 
ATOM      5  C   UNL     1     -17.803  40.168 -10.767  0.00  0.00    +0.000 A 
ATOM      6  C   UNL     1     -18.878  39.682 -11.492  0.00  0.00    +0.000 A 
ENDROOT
BRANCH   2   7
ATOM      7  N   UNL     1     -17.191  43.382 -12.209  0.00  0.00    +0.000 N 
ATOM      8  C   UNL     1     -15.952  45.962 -12.579  0.00  0.00    +0.000 C 
ATOM      9  C   UNL     1     -15.794  44.850 -13.608  0.00  0.00    +0.000 C 
ATOM     10  C   UNL     1     -17.281  45.817 -11.848  0.00  0.00    +0.000 C 
ATOM     11  C   UNL     1     -15.940  43.469 -12.973  0.00  0.00    +0.000 C 
ATOM     12  C   UNL     1     -17.420  44.436 -11.211  0.00  0.00    +0.000 C 
ENDBRANCH   2   7
BRANCH   3  15
ATOM     13  O   UNL     1     -19.303  42.240 -15.001  0.00  0.00    +0.000 OA
ATOM     14  N   UNL     1     -20.038  43.740 -13.430  0.00  0.00    +0.000 N 
ATOM     15  C   UNL     1     -19.390  42.569 -13.805  0.00  0.00    +0.000 C 
ATOM     16  H   UNL     1     -20.127  44.019 -12.457  0.00  0.00    +0.000 HD
ATOM     17  H   UNL     1     -20.448  44.356 -14.123  0.00  0.00    +0.000 HD
ENDBRANCH   3  15
TORSDOF 2
ENDMDL
MODEL 4
REMARK VINA RESULT:    -5.076      2.106      4.708
REMARK INTER + INTRA:          -6.003
REMARK INTER:                  -5.634
REMARK INTRA:                  -0.368
REMARK UNBOUND:                -0.334
REMARK  Name = 31535175
REMARK  2 active torsions:
REMARK  status: ('A' for Active; 'I' for Inactive)
REMARK    1  A    between atoms: N_2  and  C_10
REMARK    2  A    between atoms: C_11  and  C_13
REMARK                            x       y       z     vdW  Elec       q    Type
REMARK                         _______ _______ _______ _____ _____    ______ ____
ROOT
ATOM      1  N   UNL     1     -15.020  42.191 -11.264  0.00  0.00    +0.000 NA
ATOM      2  C   UNL     1     -16.223  42.479 -11.809  0.00  0.00    +0.000 A 
ATOM      3  C   UNL     1     -16.520  43.672 -12.448  0.00  0.00    +0.000 A 
ATOM      4  C   UNL     1     -15.517  44.632 -12.532  0.00  0.00    +0.000 A 
ATOM      5  C   UNL     1     -14.071  43.148 -11.365  0.00  0.00    +0.000 A 
ATOM      6  C   UNL     1     -14.266  44.373 -11.983  0.00  0.00    +0.000 A 
ENDROOT
BRANCH   2   7
ATOM      7  N   UNL     1     -17.228  41.508 -11.720  0.00  0.00    +0.000 N 
ATOM      8  C   UNL     1     -19.196  39.406 -11.521  0.00  0.00    +0.000 C 
ATOM      9  C   UNL     1     -19.272  40.651 -10.647  0.00  0.00    +0.000 C 
ATOM     10  C   UNL     1     -18.515  39.734 -12.845  0.00  0.00    +0.000 C 
ATOM     11  C   UNL     1     -17.894  41.275 -10.433  0.00  0.00    +0.000 C 
ATOM     12  C   UNL     1     -17.137  40.354 -12.625  0.00  0.00    +0.000 C 
ENDBRANCH   2   7
BRANCH   3  15
ATOM     13  O   UNL     1     -18.659  44.657 -12.433  0.00  0.00    +0.000 OA
ATOM     14  N   UNL     1     -18.104  43.420 -14.282  0.00  0.00    +0.000 N 
ATOM     15  C   UNL     1     -17.826  43.952 -13.029  0.00  0.00    +0.000 C 
ATOM     16  H   UNL     1     -17.430  42.850 -14.786  0.00  0.00    +0.000 HD
ATOM     17  H   UNL     1     -18.994  43.588 -14.736  0.00  0.00    +0.000 HD
ENDBRANCH   3  15
TORSDOF 2
ENDMDL
MODEL 5
REMARK VINA RESULT:    -4.898      2.279      4.921
REMARK INTER + INTRA:          -5.805
REMARK INTER:                  -5.457
REMARK INTRA:                  -0.348
REMARK UNBOUND:                -0.334
REMARK  Name = 31535175
REMARK  2 active torsions:
REMARK  status: ('A' for Active; 'I' for Inactive)
REMARK    1  A    between atoms: N_2  and  C_10
REMARK    2  A    between atoms: C_11  and  C_13
REMARK                            x       y       z     vdW  Elec       q    Type
REMARK                         _______ _______ _______ _____ _____    ______ ____
ROOT
ATOM      1  N   UNL     1     -18.431  44.540 -12.351  0.00  0.00    +0.000 NA
ATOM      2  C   UNL     1     -17.309  43.818 -12.127  0.00  0.00    +0.000 A 
ATOM      3  C   UNL     1     -16.040  44.366 -12.035  0.00  0.00    +0.000 A 
ATOM      4  C   UNL     1     -15.914  45.743 -12.184  0.00  0.00    +0.000 A 
ATOM      5  C   UNL     1     -18.268  45.874 -12.490  0.00  0.00    +0.000 A 
ATOM      6  C   UNL     1     -17.044  46.519 -12.415  0.00  0.00    +0.000 A 
ENDROOT
BRANCH   2   7
ATOM      7  N   UNL     1     -17.445  42.433 -11.980  0.00  0.00    +0.000 N 
ATOM      8  C   UNL     1     -17.865  39.597 -11.647  0.00  0.00    +0.000 C 
ATOM      9  C   UNL     1     -17.192  40.159 -12.892  0.00  0.00    +0.000 C 
ATOM     10  C   UNL     1     -17.606  40.507 -10.452  0.00  0.00    +0.000 C 
ATOM     11  C   UNL     1     -17.631  41.595 -13.171  0.00  0.00    +0.000 C 
ATOM     12  C   UNL     1     -18.051  41.940 -10.735  0.00  0.00    +0.000 C 
ENDBRANCH   2   7
BRANCH   3  15
ATOM     13  O   UNL     1     -14.633  43.054 -10.678  0.00  0.00    +0.000 OA
ATOM     14  N   UNL     1     -13.973  43.367 -12.851  0.00  0.00    +0.000 N 
ATOM     15  C   UNL     1     -14.851  43.562 -11.791  0.00  0.00    +0.000 C 
ATOM     16  H   UNL     1     -14.141  43.767 -13.770  0.00  0.00    +0.000 HD
ATOM     17  H   UNL     1     -13.133  42.811 -12.739  0.00  0.00    +0.000 HD
ENDBRANCH   3  15
TORSDOF 2
ENDMDL
