MODEL 1
REMARK VINA RESULT:    -6.295      0.000      0.000
REMARK INTER + INTRA:          -7.390
REMARK INTER:                  -7.031
REMARK INTRA:                  -0.359
REMARK UNBOUND:                -0.359
REMARK  Name = 31535245
REMARK  3 active torsions:
REMARK  status: ('A' for Active; 'I' for Inactive)
REMARK    1  A    between atoms: N_2  and  C_11
REMARK    2  A    between atoms: C_5  and  C_10
REMARK    3  A    between atoms: C_12  and  C_14
REMARK                            x       y       z     vdW  Elec       q    Type
REMARK                         _______ _______ _______ _____ _____    ______ ____
ROOT
ATOM      1  N   UNL     1     -18.196  42.404  -8.977  0.00  0.00    +0.000 NA
ATOM      2  C   UNL     1     -18.189  41.895 -10.230  0.00  0.00    +0.000 A 
ATOM      3  C   UNL     1     -18.832  40.723 -10.593  0.00  0.00    +0.000 A 
ATOM      4  C   UNL     1     -19.527  40.029  -9.609  0.00  0.00    +0.000 A 
ATOM      5  C   UNL     1     -18.881  41.701  -8.047  0.00  0.00    +0.000 A 
ATOM      6  C   UNL     1     -19.555  40.521  -8.309  0.00  0.00    +0.000 A 
ENDROOT
BRANCH   2   7
ATOM      7  N   UNL     1     -17.488  42.599 -11.215  0.00  0.00    +0.000 N 
ATOM      8  C   UNL     1     -17.583  43.882 -13.325  0.00  0.00    +0.000 C 
ATOM      9  C   UNL     1     -16.083  44.165 -13.190  0.00  0.00    +0.000 C 
ATOM     10  C   UNL     1     -18.216  43.647 -11.946  0.00  0.00    +0.000 C 
ATOM     11  C   UNL     1     -15.397  43.030 -12.436  0.00  0.00    +0.000 C 
ATOM     12  C   UNL     1     -16.041  42.790 -11.072  0.00  0.00    +0.000 C 
ATOM     13  C   UNL     1     -18.282  45.028 -14.054  0.00  0.00    +0.000 C 
ENDBRANCH   2   7
BRANCH   3  16
ATOM     14  O   UNL     1     -17.812  39.615 -12.404  0.00  0.00    +0.000 OA
ATOM     15  N   UNL     1     -19.955  40.365 -12.725  0.00  0.00    +0.000 N 
ATOM     16  C   UNL     1     -18.810  40.201 -11.953  0.00  0.00    +0.000 C 
ATOM     17  H   UNL     1     -20.784  40.832 -12.370  0.00  0.00    +0.000 HD
ATOM     18  H   UNL     1     -19.997  40.015 -13.677  0.00  0.00    +0.000 HD
ENDBRANCH   3  16
TORSDOF 2
ENDMDL
MODEL 2
REMARK VINA RESULT:    -5.104      2.118      5.218
REMARK INTER + INTRA:          -6.060
REMARK INTER:                  -5.790
REMARK INTRA:                  -0.270
REMARK UNBOUND:                -0.359
REMARK  Name = 31535245
REMARK  3 active torsions:
REMARK  status: ('A' for Active; 'I' for Inactive)
REMARK    1  A    between atoms: N_2  and  C_11
REMARK    2  A    between atoms: C_5  and  C_10
REMARK    3  A    between atoms: C_12  and  C_14
REMARK                            x       y       z     vdW  Elec       q    Type
REMARK                         _______ _______ _______ _____ _____    ______ ____
ROOT
ATOM      1  N   UNL     1     -18.287  44.400 -12.985  0.00  0.00    +0.000 NA
ATOM      2  C   UNL     1     -17.205  43.734 -12.524  0.00  0.00    +0.000 A 
ATOM      3  C   UNL     1     -15.937  44.286 -12.431  0.00  0.00    +0.000 A 
ATOM      4  C   UNL     1     -15.770  45.605 -12.838  0.00  0.00    +0.000 A 
ATOM      5  C   UNL     1     -18.085  45.680 -13.372  0.00  0.00    +0.000 A 
ATOM      6  C   UNL     1     -16.859  46.321 -13.319  0.00  0.00    +0.000 A 
ENDROOT
BRANCH   2   7
ATOM      7  N   UNL     1     -17.381  42.407 -12.116  0.00  0.00    +0.000 N 
ATOM      8  C   UNL     1     -17.728  40.830 -10.245  0.00  0.00    +0.000 C 
ATOM      9  C   UNL     1     -17.875  39.695 -11.264  0.00  0.00    +0.000 C 
ATOM     10  C   UNL     1     -18.128  42.175 -10.871  0.00  0.00    +0.000 C 
ATOM     11  C   UNL     1     -17.063  40.001 -12.518  0.00  0.00    +0.000 C 
ATOM     12  C   UNL     1     -17.453  41.347 -13.126  0.00  0.00    +0.000 C 
ATOM     13  C   UNL     1     -18.562  40.544  -8.997  0.00  0.00    +0.000 C 
ENDBRANCH   2   7
BRANCH   3  16
ATOM     14  O   UNL     1     -14.770  43.093 -10.769  0.00  0.00    +0.000 OA
ATOM     15  N   UNL     1     -13.721  43.342 -12.791  0.00  0.00    +0.000 N 
ATOM     16  C   UNL     1     -14.789  43.544 -11.925  0.00  0.00    +0.000 C 
ATOM     17  H   UNL     1     -13.723  43.694 -13.744  0.00  0.00    +0.000 HD
ATOM     18  H   UNL     1     -12.899  42.826 -12.494  0.00  0.00    +0.000 HD
ENDBRANCH   3  16
TORSDOF 2
ENDMDL
MODEL 3
REMARK VINA RESULT:    -5.032      6.175      7.801
REMARK INTER + INTRA:          -5.979
REMARK INTER:                  -5.519
REMARK INTRA:                  -0.460
REMARK UNBOUND:                -0.359
REMARK  Name = 31535245
REMARK  3 active torsions:
REMARK  status: ('A' for Active; 'I' for Inactive)
REMARK    1  A    between atoms: N_2  and  C_11
REMARK    2  A    between atoms: C_5  and  C_10
REMARK    3  A    between atoms: C_12  and  C_14
REMARK                            x       y       z     vdW  Elec       q    Type
REMARK                         _______ _______ _______ _____ _____    ______ ____
ROOT
ATOM      1  N   UNL     1     -21.965  46.431 -17.942  0.00  0.00    +0.000 NA
ATOM      2  C   UNL     1     -21.137  45.441 -17.538  0.00  0.00    +0.000 A 
ATOM      3  C   UNL     1     -21.563  44.286 -16.901  0.00  0.00    +0.000 A 
ATOM      4  C   UNL     1     -22.925  44.137 -16.665  0.00  0.00    +0.000 A 
ATOM      5  C   UNL     1     -23.283  46.250 -17.695  0.00  0.00    +0.000 A 
ATOM      6  C   UNL     1     -23.807  45.133 -17.066  0.00  0.00    +0.000 A 
ENDROOT
BRANCH   2   7
ATOM      7  N   UNL     1     -19.767  45.599 -17.778  0.00  0.00    +0.000 N 
ATOM      8  C   UNL     1     -17.822  45.032 -19.193  0.00  0.00    +0.000 C 
ATOM      9  C   UNL     1     -16.974  46.010 -18.372  0.00  0.00    +0.000 C 
ATOM     10  C   UNL     1     -19.302  45.443 -19.165  0.00  0.00    +0.000 C 
ATOM     11  C   UNL     1     -17.509  46.107 -16.947  0.00  0.00    +0.000 C 
ATOM     12  C   UNL     1     -18.985  46.499 -16.926  0.00  0.00    +0.000 C 
ATOM     13  C   UNL     1     -17.310  44.952 -20.630  0.00  0.00    +0.000 C 
ENDBRANCH   2   7
BRANCH   3  16
ATOM     14  O   UNL     1     -20.337  42.304 -17.242  0.00  0.00    +0.000 OA
ATOM     15  N   UNL     1     -20.113  43.320 -15.199  0.00  0.00    +0.000 N 
ATOM     16  C   UNL     1     -20.646  43.235 -16.480  0.00  0.00    +0.000 C 
ATOM     17  H   UNL     1     -20.347  44.079 -14.566  0.00  0.00    +0.000 HD
ATOM     18  H   UNL     1     -19.464  42.619 -14.856  0.00  0.00    +0.000 HD
ENDBRANCH   3  16
TORSDOF 2
ENDMDL
MODEL 4
REMARK VINA RESULT:    -4.752      4.220      6.351
REMARK INTER + INTRA:          -5.667
REMARK INTER:                  -5.436
REMARK INTRA:                  -0.230
REMARK UNBOUND:                -0.359
REMARK  Name = 31535245
REMARK  3 active torsions:
REMARK  status: ('A' for Active; 'I' for Inactive)
REMARK    1  A    between atoms: N_2  and  C_11
REMARK    2  A    between atoms: C_5  and  C_10
REMARK    3  A    between atoms: C_12  and  C_14
REMARK                            x       y       z     vdW  Elec       q    Type
REMARK                         _______ _______ _______ _____ _____    ______ ____
ROOT
ATOM      1  N   UNL     1     -19.807  42.318 -14.453  0.00  0.00    +0.000 NA
ATOM      2  C   UNL     1     -19.520  43.516 -15.012  0.00  0.00    +0.000 A 
ATOM      3  C   UNL     1     -18.665  44.449 -14.449  0.00  0.00    +0.000 A 
ATOM      4  C   UNL     1     -18.066  44.133 -13.234  0.00  0.00    +0.000 A 
ATOM      5  C   UNL     1     -19.205  42.047 -13.272  0.00  0.00    +0.000 A 
ATOM      6  C   UNL     1     -18.337  42.912 -12.629  0.00  0.00    +0.000 A 
ENDROOT
BRANCH   2   7
ATOM      7  N   UNL     1     -20.128  43.826 -16.234  0.00  0.00    +0.000 N 
ATOM      8  C   UNL     1     -19.838  44.525 -18.587  0.00  0.00    +0.000 C 
ATOM      9  C   UNL     1     -21.345  44.345 -18.798  0.00  0.00    +0.000 C 
ATOM     10  C   UNL     1     -19.337  43.614 -17.456  0.00  0.00    +0.000 C 
ATOM     11  C   UNL     1     -22.095  44.595 -17.493  0.00  0.00    +0.000 C 
ATOM     12  C   UNL     1     -21.582  43.698 -16.369  0.00  0.00    +0.000 C 
ATOM     13  C   UNL     1     -19.077  44.249 -19.882  0.00  0.00    +0.000 C 
ENDBRANCH   2   7
BRANCH   3  16
ATOM     14  O   UNL     1     -19.128  46.706 -14.936  0.00  0.00    +0.000 OA
ATOM     15  N   UNL     1     -17.206  45.830 -15.827  0.00  0.00    +0.000 N 
ATOM     16  C   UNL     1     -18.373  45.731 -15.077  0.00  0.00    +0.000 C 
ATOM     17  H   UNL     1     -16.571  45.046 -15.945  0.00  0.00    +0.000 HD
ATOM     18  H   UNL     1     -16.950  46.700 -16.280  0.00  0.00    +0.000 HD
ENDBRANCH   3  16
TORSDOF 2
ENDMDL
MODEL 5
REMARK VINA RESULT:    -4.573      4.584      6.603
REMARK INTER + INTRA:          -5.467
REMARK INTER:                  -5.005
REMARK INTRA:                  -0.462
REMARK UNBOUND:                -0.359
REMARK  Name = 31535245
REMARK  3 active torsions:
REMARK  status: ('A' for Active; 'I' for Inactive)
REMARK    1  A    between atoms: N_2  and  C_11
REMARK    2  A    between atoms: C_5  and  C_10
REMARK    3  A    between atoms: C_12  and  C_14
REMARK                            x       y       z     vdW  Elec       q    Type
REMARK                         _______ _______ _______ _____ _____    ______ ____
ROOT
ATOM      1  N   UNL     1     -18.295  45.314 -15.038  0.00  0.00    +0.000 NA
ATOM      2  C   UNL     1     -19.272  44.783 -15.808  0.00  0.00    +0.000 A 
ATOM      3  C   UNL     1     -19.983  43.640 -15.479  0.00  0.00    +0.000 A 
ATOM      4  C   UNL     1     -19.672  43.001 -14.284  0.00  0.00    +0.000 A 
ATOM      5  C   UNL     1     -18.020  44.664 -13.884  0.00  0.00    +0.000 A 
ATOM      6  C   UNL     1     -18.673  43.517 -13.467  0.00  0.00    +0.000 A 
ENDROOT
BRANCH   2   7
ATOM      7  N   UNL     1     -19.579  45.432 -17.010  0.00  0.00    +0.000 N 
ATOM      8  C   UNL     1     -21.119  46.926 -18.236  0.00  0.00    +0.000 C 
ATOM      9  C   UNL     1     -20.164  46.882 -19.434  0.00  0.00    +0.000 C 
ATOM     10  C   UNL     1     -20.356  46.678 -16.926  0.00  0.00    +0.000 C 
ATOM     11  C   UNL     1     -19.407  45.559 -19.460  0.00  0.00    +0.000 C 
ATOM     12  C   UNL     1     -18.664  45.310 -18.149  0.00  0.00    +0.000 C 
ATOM     13  C   UNL     1     -21.860  48.261 -18.188  0.00  0.00    +0.000 C 
ENDBRANCH   2   7
BRANCH   3  16
ATOM     14  O   UNL     1     -20.778  42.273 -17.224  0.00  0.00    +0.000 OA
ATOM     15  N   UNL     1     -22.338  43.511 -16.088  0.00  0.00    +0.000 N 
ATOM     16  C   UNL     1     -21.033  43.094 -16.328  0.00  0.00    +0.000 C 
ATOM     17  H   UNL     1     -22.567  44.174 -15.354  0.00  0.00    +0.000 HD
ATOM     18  H   UNL     1     -23.109  43.157 -16.645  0.00  0.00    +0.000 HD
ENDBRANCH   3  16
TORSDOF 2
ENDMDL
