MODEL 1
REMARK VINA RESULT:    -5.825      0.000      0.000
REMARK INTER + INTRA:          -6.626
REMARK INTER:                  -6.506
REMARK INTRA:                  -0.120
REMARK UNBOUND:                -0.120
REMARK  Name = 325987
REMARK  2 active torsions:
REMARK  status: ('A' for Active; 'I' for Inactive)
REMARK    1  A    between atoms: N_3  and  C_11
REMARK    2  A    between atoms: C_5  and  C_8
REMARK                            x       y       z     vdW  Elec       q    Type
REMARK                         _______ _______ _______ _____ _____    ______ ____
ROOT
ATOM      1  N   UNL     1     -22.908  41.295  -7.142  0.00  0.00    +0.000 NA
ATOM      2  C   UNL     1     -20.564  41.248  -7.733  0.00  0.00    +0.000 A 
ATOM      3  C   UNL     1     -20.265  42.052  -6.639  0.00  0.00    +0.000 A 
ATOM      4  C   UNL     1     -21.889  40.900  -7.937  0.00  0.00    +0.000 A 
ATOM      5  C   UNL     1     -21.285  42.480  -5.797  0.00  0.00    +0.000 A 
ATOM      6  C   UNL     1     -22.579  42.077  -6.090  0.00  0.00    +0.000 A 
ENDROOT
BRANCH   2   9
ATOM      7  O   UNL     1     -18.319  40.913  -8.330  0.00  0.00    +0.000 OA
ATOM      8  N   UNL     1     -19.923  40.178  -9.829  0.00  0.00    +0.000 N 
ATOM      9  C   UNL     1     -19.520  40.786  -8.631  0.00  0.00    +0.000 C 
ATOM     10  H   UNL     1     -20.918  40.050  -9.992  0.00  0.00    +0.000 HD
BRANCH   8  12
ATOM     11  N   UNL     1     -18.530  39.197 -11.677  0.00  0.00    +0.000 NA
ATOM     12  C   UNL     1     -19.173  39.649 -10.824  0.00  0.00    +0.000 C 
ENDBRANCH   8  12
ENDBRANCH   2   9
TORSDOF 2
ENDMDL
MODEL 2
REMARK VINA RESULT:    -5.721      2.038      2.552
REMARK INTER + INTRA:          -6.510
REMARK INTER:                  -6.389
REMARK INTRA:                  -0.121
REMARK UNBOUND:                -0.120
REMARK  Name = 325987
REMARK  2 active torsions:
REMARK  status: ('A' for Active; 'I' for Inactive)
REMARK    1  A    between atoms: N_3  and  C_11
REMARK    2  A    between atoms: C_5  and  C_8
REMARK                            x       y       z     vdW  Elec       q    Type
REMARK                         _______ _______ _______ _____ _____    ______ ____
ROOT
ATOM      1  N   UNL     1     -19.560  42.359  -7.032  0.00  0.00    +0.000 NA
ATOM      2  C   UNL     1     -19.575  40.798  -8.879  0.00  0.00    +0.000 A 
ATOM      3  C   UNL     1     -20.931  40.565  -8.680  0.00  0.00    +0.000 A 
ATOM      4  C   UNL     1     -18.942  41.697  -8.035  0.00  0.00    +0.000 A 
ATOM      5  C   UNL     1     -21.602  41.226  -7.657  0.00  0.00    +0.000 A 
ATOM      6  C   UNL     1     -20.877  42.105  -6.868  0.00  0.00    +0.000 A 
ENDROOT
BRANCH   2   9
ATOM      7  O   UNL     1     -19.399  39.253 -10.636  0.00  0.00    +0.000 OA
ATOM      8  N   UNL     1     -17.513  40.505 -10.149  0.00  0.00    +0.000 N 
ATOM      9  C   UNL     1     -18.846  40.122  -9.938  0.00  0.00    +0.000 C 
ATOM     10  H   UNL     1     -17.136  41.262  -9.586  0.00  0.00    +0.000 HD
BRANCH   8  12
ATOM     11  N   UNL     1     -15.857  39.677 -11.849  0.00  0.00    +0.000 NA
ATOM     12  C   UNL     1     -16.622  40.059 -11.065  0.00  0.00    +0.000 C 
ENDBRANCH   8  12
ENDBRANCH   2   9
TORSDOF 2
ENDMDL
MODEL 3
REMARK VINA RESULT:    -5.592      1.227      1.698
REMARK INTER + INTRA:          -6.366
REMARK INTER:                  -6.251
REMARK INTRA:                  -0.115
REMARK UNBOUND:                -0.120
REMARK  Name = 325987
REMARK  2 active torsions:
REMARK  status: ('A' for Active; 'I' for Inactive)
REMARK    1  A    between atoms: N_3  and  C_11
REMARK    2  A    between atoms: C_5  and  C_8
REMARK                            x       y       z     vdW  Elec       q    Type
REMARK                         _______ _______ _______ _____ _____    ______ ____
ROOT
ATOM      1  N   UNL     1     -20.352  42.316  -6.231  0.00  0.00    +0.000 NA
ATOM      2  C   UNL     1     -20.149  41.093  -8.308  0.00  0.00    +0.000 A 
ATOM      3  C   UNL     1     -21.508  40.803  -8.277  0.00  0.00    +0.000 A 
ATOM      4  C   UNL     1     -19.625  41.848  -7.270  0.00  0.00    +0.000 A 
ATOM      5  C   UNL     1     -22.289  41.266  -7.225  0.00  0.00    +0.000 A 
ATOM      6  C   UNL     1     -21.669  42.012  -6.235  0.00  0.00    +0.000 A 
ENDROOT
BRANCH   2   9
ATOM      7  O   UNL     1     -18.099  40.387  -9.204  0.00  0.00    +0.000 OA
ATOM      8  N   UNL     1     -19.913  40.429 -10.643  0.00  0.00    +0.000 N 
ATOM      9  C   UNL     1     -19.306  40.623  -9.393  0.00  0.00    +0.000 C 
ATOM     10  H   UNL     1     -20.914  40.583 -10.720  0.00  0.00    +0.000 HD
BRANCH   8  12
ATOM     11  N   UNL     1     -18.913  39.611 -12.799  0.00  0.00    +0.000 NA
ATOM     12  C   UNL     1     -19.375  39.989 -11.804  0.00  0.00    +0.000 C 
ENDBRANCH   8  12
ENDBRANCH   2   9
TORSDOF 2
ENDMDL
MODEL 4
REMARK VINA RESULT:    -5.592      1.660      4.985
REMARK INTER + INTRA:          -6.366
REMARK INTER:                  -6.254
REMARK INTRA:                  -0.111
REMARK UNBOUND:                -0.120
REMARK  Name = 325987
REMARK  2 active torsions:
REMARK  status: ('A' for Active; 'I' for Inactive)
REMARK    1  A    between atoms: N_3  and  C_11
REMARK    2  A    between atoms: C_5  and  C_8
REMARK                            x       y       z     vdW  Elec       q    Type
REMARK                         _______ _______ _______ _____ _____    ______ ____
ROOT
ATOM      1  N   UNL     1     -17.413  41.420 -10.663  0.00  0.00    +0.000 NA
ATOM      2  C   UNL     1     -19.226  41.210  -9.075  0.00  0.00    +0.000 A 
ATOM      3  C   UNL     1     -19.683  40.076  -9.737  0.00  0.00    +0.000 A 
ATOM      4  C   UNL     1     -18.096  41.839  -9.574  0.00  0.00    +0.000 A 
ATOM      5  C   UNL     1     -19.008  39.614 -10.861  0.00  0.00    +0.000 A 
ATOM      6  C   UNL     1     -17.888  40.315 -11.280  0.00  0.00    +0.000 A 
ENDROOT
BRANCH   2   9
ATOM      7  O   UNL     1     -19.270  42.228  -6.962  0.00  0.00    +0.000 OA
ATOM      8  N   UNL     1     -21.310  41.628  -7.878  0.00  0.00    +0.000 N 
ATOM      9  C   UNL     1     -19.910  41.718  -7.899  0.00  0.00    +0.000 C 
ATOM     10  H   UNL     1     -21.779  41.255  -8.699  0.00  0.00    +0.000 HD
BRANCH   8  12
ATOM     11  N   UNL     1     -22.939  42.380  -6.118  0.00  0.00    +0.000 NA
ATOM     12  C   UNL     1     -22.187  42.033  -6.930  0.00  0.00    +0.000 C 
ENDBRANCH   8  12
ENDBRANCH   2   9
TORSDOF 2
ENDMDL
MODEL 5
REMARK VINA RESULT:    -5.024      1.941      5.092
REMARK INTER + INTRA:          -5.731
REMARK INTER:                  -5.611
REMARK INTRA:                  -0.120
REMARK UNBOUND:                -0.120
REMARK  Name = 325987
REMARK  2 active torsions:
REMARK  status: ('A' for Active; 'I' for Inactive)
REMARK    1  A    between atoms: N_3  and  C_11
REMARK    2  A    between atoms: C_5  and  C_8
REMARK                            x       y       z     vdW  Elec       q    Type
REMARK                         _______ _______ _______ _____ _____    ______ ____
ROOT
ATOM      1  N   UNL     1     -18.246  39.616 -11.740  0.00  0.00    +0.000 NA
ATOM      2  C   UNL     1     -19.081  40.719  -9.757  0.00  0.00    +0.000 A 
ATOM      3  C   UNL     1     -18.092  41.689  -9.871  0.00  0.00    +0.000 A 
ATOM      4  C   UNL     1     -19.115  39.713 -10.709  0.00  0.00    +0.000 A 
ATOM      5  C   UNL     1     -17.179  41.623 -10.918  0.00  0.00    +0.000 A 
ATOM      6  C   UNL     1     -17.298  40.576 -11.818  0.00  0.00    +0.000 A 
ENDROOT
BRANCH   2   9
ATOM      7  O   UNL     1     -21.033  39.999  -8.672  0.00  0.00    +0.000 OA
ATOM      8  N   UNL     1     -19.814  41.671  -7.634  0.00  0.00    +0.000 N 
ATOM      9  C   UNL     1     -20.049  40.760  -8.674  0.00  0.00    +0.000 C 
ATOM     10  H   UNL     1     -18.962  42.224  -7.663  0.00  0.00    +0.000 HD
BRANCH   8  12
ATOM     11  N   UNL     1     -21.149  42.102  -5.548  0.00  0.00    +0.000 NA
ATOM     12  C   UNL     1     -20.533  41.902  -6.511  0.00  0.00    +0.000 C 
ENDBRANCH   8  12
ENDBRANCH   2   9
TORSDOF 2
ENDMDL
