MODEL 1
REMARK VINA RESULT:    -6.073      0.000      0.000
REMARK INTER + INTRA:          -6.634
REMARK INTER:                  -6.606
REMARK INTRA:                  -0.028
REMARK UNBOUND:                -0.028
REMARK  Name = 32639818
REMARK  3 active torsions:
REMARK  status: ('A' for Active; 'I' for Inactive)
REMARK    1  A    between atoms: N_3  and  C_7
REMARK    2  A    between atoms: C_4  and  C_9
REMARK    3  A    between atoms: C_5  and  C_10
REMARK                            x       y       z     vdW  Elec       q    Type
REMARK                         _______ _______ _______ _____ _____    ______ ____
ROOT
ATOM      1  N   UNL     1     -19.265  42.122  -7.163  0.00  0.00    +0.000 NA
ATOM      2  C   UNL     1     -19.759  40.692  -9.050  0.00  0.00    +0.000 A 
ATOM      3  C   UNL     1     -21.513  41.309  -7.524  0.00  0.00    +0.000 A 
ATOM      4  C   UNL     1     -21.093  40.627  -8.661  0.00  0.00    +0.000 A 
ATOM      5  C   UNL     1     -20.569  42.035  -6.817  0.00  0.00    +0.000 A 
ATOM      6  C   UNL     1     -18.893  41.446  -8.274  0.00  0.00    +0.000 A 
ATOM      7  C   UNL     1     -19.277  39.976 -10.261  0.00  0.00    +0.000 C 
ENDROOT
BRANCH   5   8
ATOM      8  N   UNL     1     -20.991  42.732  -5.656  0.00  0.00    +0.000 N 
ATOM      9  H   UNL     1     -21.463  42.214  -4.925  0.00  0.00    +0.000 HD
ATOM     10  H   UNL     1     -21.267  43.698  -5.790  0.00  0.00    +0.000 HD
ENDBRANCH   5   8
BRANCH   3  12
ATOM     11  O   UNL     1     -23.724  40.477  -7.662  0.00  0.00    +0.000 OA
ATOM     12  C   UNL     1     -22.912  41.234  -7.125  0.00  0.00    +0.000 C 
ENDBRANCH   3  12
TORSDOF 2
ENDMDL
MODEL 2
REMARK VINA RESULT:    -5.844      2.221      3.720
REMARK INTER + INTRA:          -6.385
REMARK INTER:                  -6.193
REMARK INTRA:                  -0.192
REMARK UNBOUND:                -0.028
REMARK  Name = 32639818
REMARK  3 active torsions:
REMARK  status: ('A' for Active; 'I' for Inactive)
REMARK    1  A    between atoms: N_3  and  C_7
REMARK    2  A    between atoms: C_4  and  C_9
REMARK    3  A    between atoms: C_5  and  C_10
REMARK                            x       y       z     vdW  Elec       q    Type
REMARK                         _______ _______ _______ _____ _____    ______ ____
ROOT
ATOM      1  N   UNL     1     -18.844  42.326  -7.761  0.00  0.00    +0.000 NA
ATOM      2  C   UNL     1     -21.097  41.493  -7.483  0.00  0.00    +0.000 A 
ATOM      3  C   UNL     1     -19.752  40.719  -9.322  0.00  0.00    +0.000 A 
ATOM      4  C   UNL     1     -20.951  40.699  -8.616  0.00  0.00    +0.000 A 
ATOM      5  C   UNL     1     -18.740  41.541  -8.857  0.00  0.00    +0.000 A 
ATOM      6  C   UNL     1     -20.024  42.281  -7.101  0.00  0.00    +0.000 A 
ATOM      7  C   UNL     1     -22.365  41.495  -6.707  0.00  0.00    +0.000 C 
ENDROOT
BRANCH   5   8
ATOM      8  N   UNL     1     -17.515  41.566  -9.571  0.00  0.00    +0.000 N 
ATOM      9  H   UNL     1     -16.986  40.707  -9.655  0.00  0.00    +0.000 HD
ATOM     10  H   UNL     1     -16.988  42.430  -9.526  0.00  0.00    +0.000 HD
ENDBRANCH   5   8
BRANCH   3  12
ATOM     11  O   UNL     1     -18.571  39.278 -10.780  0.00  0.00    +0.000 OA
ATOM     12  C   UNL     1     -19.610  39.884 -10.507  0.00  0.00    +0.000 C 
ENDBRANCH   3  12
TORSDOF 2
ENDMDL
MODEL 3
REMARK VINA RESULT:    -5.338      3.621      5.098
REMARK INTER + INTRA:          -5.834
REMARK INTER:                  -5.604
REMARK INTRA:                  -0.230
REMARK UNBOUND:                -0.028
REMARK  Name = 32639818
REMARK  3 active torsions:
REMARK  status: ('A' for Active; 'I' for Inactive)
REMARK    1  A    between atoms: N_3  and  C_7
REMARK    2  A    between atoms: C_4  and  C_9
REMARK    3  A    between atoms: C_5  and  C_10
REMARK                            x       y       z     vdW  Elec       q    Type
REMARK                         _______ _______ _______ _____ _____    ______ ____
ROOT
ATOM      1  N   UNL     1     -19.936  39.526  -9.821  0.00  0.00    +0.000 NA
ATOM      2  C   UNL     1     -19.522  41.334  -8.270  0.00  0.00    +0.000 A 
ATOM      3  C   UNL     1     -18.103  41.057 -10.193  0.00  0.00    +0.000 A 
ATOM      4  C   UNL     1     -18.438  41.752  -9.035  0.00  0.00    +0.000 A 
ATOM      5  C   UNL     1     -18.876  39.962 -10.538  0.00  0.00    +0.000 A 
ATOM      6  C   UNL     1     -20.232  40.226  -8.702  0.00  0.00    +0.000 A 
ATOM      7  C   UNL     1     -19.906  42.055  -7.027  0.00  0.00    +0.000 C 
ENDROOT
BRANCH   5   8
ATOM      8  N   UNL     1     -18.541  39.249 -11.717  0.00  0.00    +0.000 N 
ATOM      9  H   UNL     1     -17.915  39.684 -12.384  0.00  0.00    +0.000 HD
ATOM     10  H   UNL     1     -19.256  38.635 -12.087  0.00  0.00    +0.000 HD
ENDBRANCH   5   8
BRANCH   3  12
ATOM     11  O   UNL     1     -16.048  40.752 -11.324  0.00  0.00    +0.000 OA
ATOM     12  C   UNL     1     -16.966  41.503 -10.987  0.00  0.00    +0.000 C 
ENDBRANCH   3  12
TORSDOF 2
ENDMDL
MODEL 4
REMARK VINA RESULT:    -5.024      3.195      4.584
REMARK INTER + INTRA:          -5.493
REMARK INTER:                  -5.259
REMARK INTRA:                  -0.234
REMARK UNBOUND:                -0.028
REMARK  Name = 32639818
REMARK  3 active torsions:
REMARK  status: ('A' for Active; 'I' for Inactive)
REMARK    1  A    between atoms: N_3  and  C_7
REMARK    2  A    between atoms: C_4  and  C_9
REMARK    3  A    between atoms: C_5  and  C_10
REMARK                            x       y       z     vdW  Elec       q    Type
REMARK                         _______ _______ _______ _____ _____    ______ ____
ROOT
ATOM      1  N   UNL     1     -17.704  42.301 -10.050  0.00  0.00    +0.000 NA
ATOM      2  C   UNL     1     -19.271  41.291  -8.509  0.00  0.00    +0.000 A 
ATOM      3  C   UNL     1     -18.891  40.285 -10.662  0.00  0.00    +0.000 A 
ATOM      4  C   UNL     1     -19.539  40.284  -9.431  0.00  0.00    +0.000 A 
ATOM      5  C   UNL     1     -17.991  41.306 -10.919  0.00  0.00    +0.000 A 
ATOM      6  C   UNL     1     -18.354  42.267  -8.864  0.00  0.00    +0.000 A 
ATOM      7  C   UNL     1     -19.947  41.318  -7.185  0.00  0.00    +0.000 C 
ENDROOT
BRANCH   5   8
ATOM      8  N   UNL     1     -17.326  41.314 -12.172  0.00  0.00    +0.000 N 
ATOM      9  H   UNL     1     -16.457  40.802 -12.261  0.00  0.00    +0.000 HD
ATOM     10  H   UNL     1     -17.425  42.156 -12.726  0.00  0.00    +0.000 HD
ENDBRANCH   5   8
BRANCH   3  12
ATOM     11  O   UNL     1     -19.563  39.449 -12.770  0.00  0.00    +0.000 OA
ATOM     12  C   UNL     1     -19.179  39.227 -11.620  0.00  0.00    +0.000 C 
ENDBRANCH   3  12
TORSDOF 2
ENDMDL
MODEL 5
REMARK VINA RESULT:    -4.940      4.444      5.492
REMARK INTER + INTRA:          -5.402
REMARK INTER:                  -5.182
REMARK INTRA:                  -0.220
REMARK UNBOUND:                -0.028
REMARK  Name = 32639818
REMARK  3 active torsions:
REMARK  status: ('A' for Active; 'I' for Inactive)
REMARK    1  A    between atoms: N_3  and  C_7
REMARK    2  A    between atoms: C_4  and  C_9
REMARK    3  A    between atoms: C_5  and  C_10
REMARK                            x       y       z     vdW  Elec       q    Type
REMARK                         _______ _______ _______ _____ _____    ______ ____
ROOT
ATOM      1  N   UNL     1     -19.452  41.764 -13.433  0.00  0.00    +0.000 NA
ATOM      2  C   UNL     1     -18.080  43.351 -12.229  0.00  0.00    +0.000 A 
ATOM      3  C   UNL     1     -18.592  41.218 -11.241  0.00  0.00    +0.000 A 
ATOM      4  C   UNL     1     -17.964  42.457 -11.169  0.00  0.00    +0.000 A 
ATOM      5  C   UNL     1     -19.316  40.923 -12.383  0.00  0.00    +0.000 A 
ATOM      6  C   UNL     1     -18.827  42.960 -13.328  0.00  0.00    +0.000 A 
ATOM      7  C   UNL     1     -17.421  44.683 -12.184  0.00  0.00    +0.000 C 
ENDROOT
BRANCH   5   8
ATOM      8  N   UNL     1     -19.959  39.662 -12.463  0.00  0.00    +0.000 N 
ATOM      9  H   UNL     1     -20.846  39.540 -11.990  0.00  0.00    +0.000 HD
ATOM     10  H   UNL     1     -19.351  38.853 -12.522  0.00  0.00    +0.000 HD
ENDBRANCH   5   8
BRANCH   3  12
ATOM     11  O   UNL     1     -19.428  39.702  -9.629  0.00  0.00    +0.000 OA
ATOM     12  C   UNL     1     -18.465  40.290 -10.125  0.00  0.00    +0.000 C 
ENDBRANCH   3  12
TORSDOF 2
ENDMDL
