MODEL 1
REMARK VINA RESULT:    -5.713      0.000      0.000
REMARK INTER + INTRA:          -7.603
REMARK INTER:                  -7.048
REMARK INTRA:                  -0.555
REMARK UNBOUND:                -0.555
REMARK  Name = 33734963
REMARK  5 active torsions:
REMARK  status: ('A' for Active; 'I' for Inactive)
REMARK    1  A    between atoms: O_1  and  C_9
REMARK    2  A    between atoms: N_3  and  C_6
REMARK    3  A    between atoms: N_5  and  C_10
REMARK    4  A    between atoms: C_6  and  C_9
REMARK    5  A    between atoms: C_7  and  C_8
REMARK                            x       y       z     vdW  Elec       q    Type
REMARK                         _______ _______ _______ _____ _____    ______ ____
ROOT
ATOM      1  N   UNL     1     -21.115  40.432  -8.660  0.00  0.00    +0.000 NA
ATOM      2  C   UNL     1     -18.891  41.228  -9.169  0.00  0.00    +0.000 A 
ATOM      3  C   UNL     1     -20.003  40.445  -9.429  0.00  0.00    +0.000 A 
ATOM      4  C   UNL     1     -18.921  42.052  -8.050  0.00  0.00    +0.000 A 
ATOM      5  C   UNL     1     -20.047  42.067  -7.235  0.00  0.00    +0.000 A 
ATOM      6  C   UNL     1     -21.108  41.246  -7.581  0.00  0.00    +0.000 A 
ENDROOT
BRANCH   2   9
ATOM      7  O   UNL     1     -17.139  40.151 -10.297  0.00  0.00    +0.000 OA
ATOM      8  N   UNL     1     -17.272  42.456 -10.509  0.00  0.00    +0.000 N 
ATOM      9  C   UNL     1     -17.707  41.221 -10.019  0.00  0.00    +0.000 C 
ATOM     10  H   UNL     1     -17.781  43.296 -10.247  0.00  0.00    +0.000 HD
BRANCH   8  11
ATOM     11  C   UNL     1     -16.130  42.611 -11.381  0.00  0.00    +0.000 C 
BRANCH  11  12
ATOM     12  C   UNL     1     -16.530  42.546 -12.843  0.00  0.00    +0.000 C 
BRANCH  12  13
ATOM     13  O   UNL     1     -16.608  41.187 -13.252  0.00  0.00    +0.000 OA
ATOM     14  H   UNL     1     -15.769  40.974 -13.695  0.00  0.00    +0.000 HD
ENDBRANCH  12  13
ENDBRANCH  11  12
ENDBRANCH   8  11
ENDBRANCH   2   9
BRANCH   3  15
ATOM     15  N   UNL     1     -19.981  39.603 -10.570  0.00  0.00    +0.000 N 
ATOM     16  H   UNL     1     -19.739  38.628 -10.449  0.00  0.00    +0.000 HD
ATOM     17  H   UNL     1     -19.743  40.041 -11.451  0.00  0.00    +0.000 HD
ENDBRANCH   3  15
TORSDOF 5
ENDMDL
MODEL 2
REMARK VINA RESULT:    -5.310      3.687      5.121
REMARK INTER + INTRA:          -7.107
REMARK INTER:                  -6.733
REMARK INTRA:                  -0.373
REMARK UNBOUND:                -0.555
REMARK  Name = 33734963
REMARK  5 active torsions:
REMARK  status: ('A' for Active; 'I' for Inactive)
REMARK    1  A    between atoms: O_1  and  C_9
REMARK    2  A    between atoms: N_3  and  C_6
REMARK    3  A    between atoms: N_5  and  C_10
REMARK    4  A    between atoms: C_6  and  C_9
REMARK    5  A    between atoms: C_7  and  C_8
REMARK                            x       y       z     vdW  Elec       q    Type
REMARK                         _______ _______ _______ _____ _____    ______ ____
ROOT
ATOM      1  N   UNL     1     -16.797  40.618 -11.770  0.00  0.00    +0.000 NA
ATOM      2  C   UNL     1     -18.603  41.763 -12.897  0.00  0.00    +0.000 A 
ATOM      3  C   UNL     1     -17.264  41.588 -12.588  0.00  0.00    +0.000 A 
ATOM      4  C   UNL     1     -19.522  40.886 -12.333  0.00  0.00    +0.000 A 
ATOM      5  C   UNL     1     -19.080  39.874 -11.487  0.00  0.00    +0.000 A 
ATOM      6  C   UNL     1     -17.720  39.785 -11.240  0.00  0.00    +0.000 A 
ENDROOT
BRANCH   2   9
ATOM      7  O   UNL     1     -18.762  44.002 -13.576  0.00  0.00    +0.000 OA
ATOM      8  N   UNL     1     -19.863  42.426 -14.871  0.00  0.00    +0.000 N 
ATOM      9  C   UNL     1     -19.076  42.818 -13.785  0.00  0.00    +0.000 C 
ATOM     10  H   UNL     1     -20.083  41.440 -14.989  0.00  0.00    +0.000 HD
BRANCH   8  11
ATOM     11  C   UNL     1     -20.387  43.350 -15.851  0.00  0.00    +0.000 C 
BRANCH  11  12
ATOM     12  C   UNL     1     -19.976  42.962 -17.260  0.00  0.00    +0.000 C 
BRANCH  12  13
ATOM     13  O   UNL     1     -20.762  41.860 -17.695  0.00  0.00    +0.000 OA
ATOM     14  H   UNL     1     -21.330  42.181 -18.416  0.00  0.00    +0.000 HD
ENDBRANCH  12  13
ENDBRANCH  11  12
ENDBRANCH   8  11
ENDBRANCH   2   9
BRANCH   3  15
ATOM     15  N   UNL     1     -16.321  42.477 -13.162  0.00  0.00    +0.000 N 
ATOM     16  H   UNL     1     -16.575  43.451 -13.271  0.00  0.00    +0.000 HD
ATOM     17  H   UNL     1     -15.678  42.081 -13.836  0.00  0.00    +0.000 HD
ENDBRANCH   3  15
TORSDOF 5
ENDMDL
MODEL 3
REMARK VINA RESULT:    -5.246      2.437      4.925
REMARK INTER + INTRA:          -7.027
REMARK INTER:                  -6.698
REMARK INTRA:                  -0.330
REMARK UNBOUND:                -0.555
REMARK  Name = 33734963
REMARK  5 active torsions:
REMARK  status: ('A' for Active; 'I' for Inactive)
REMARK    1  A    between atoms: O_1  and  C_9
REMARK    2  A    between atoms: N_3  and  C_6
REMARK    3  A    between atoms: N_5  and  C_10
REMARK    4  A    between atoms: C_6  and  C_9
REMARK    5  A    between atoms: C_7  and  C_8
REMARK                            x       y       z     vdW  Elec       q    Type
REMARK                         _______ _______ _______ _____ _____    ______ ____
ROOT
ATOM      1  N   UNL     1     -18.403  41.947 -13.358  0.00  0.00    +0.000 NA
ATOM      2  C   UNL     1     -18.407  41.561 -10.972  0.00  0.00    +0.000 A 
ATOM      3  C   UNL     1     -18.887  41.339 -12.252  0.00  0.00    +0.000 A 
ATOM      4  C   UNL     1     -17.361  42.464 -10.816  0.00  0.00    +0.000 A 
ATOM      5  C   UNL     1     -16.836  43.110 -11.930  0.00  0.00    +0.000 A 
ATOM      6  C   UNL     1     -17.387  42.819 -13.168  0.00  0.00    +0.000 A 
ENDROOT
BRANCH   2   9
ATOM      7  O   UNL     1     -19.193  39.670  -9.831  0.00  0.00    +0.000 OA
ATOM      8  N   UNL     1     -19.148  41.669  -8.656  0.00  0.00    +0.000 N 
ATOM      9  C   UNL     1     -18.948  40.888  -9.799  0.00  0.00    +0.000 C 
ATOM     10  H   UNL     1     -18.926  42.660  -8.694  0.00  0.00    +0.000 HD
BRANCH   8  11
ATOM     11  C   UNL     1     -19.655  41.143  -7.410  0.00  0.00    +0.000 C 
BRANCH  11  12
ATOM     12  C   UNL     1     -20.881  41.904  -6.941  0.00  0.00    +0.000 C 
BRANCH  12  13
ATOM     13  O   UNL     1     -20.670  42.369  -5.614  0.00  0.00    +0.000 OA
ATOM     14  H   UNL     1     -19.923  41.865  -5.250  0.00  0.00    +0.000 HD
ENDBRANCH  12  13
ENDBRANCH  11  12
ENDBRANCH   8  11
ENDBRANCH   2   9
BRANCH   3  15
ATOM     15  N   UNL     1     -19.952  40.417 -12.419  0.00  0.00    +0.000 N 
ATOM     16  H   UNL     1     -19.826  39.466 -12.094  0.00  0.00    +0.000 HD
ATOM     17  H   UNL     1     -20.558  40.565 -13.215  0.00  0.00    +0.000 HD
ENDBRANCH   3  15
TORSDOF 5
ENDMDL
MODEL 4
REMARK VINA RESULT:    -5.037      2.653      3.289
REMARK INTER + INTRA:          -6.770
REMARK INTER:                  -6.432
REMARK INTRA:                  -0.338
REMARK UNBOUND:                -0.555
REMARK  Name = 33734963
REMARK  5 active torsions:
REMARK  status: ('A' for Active; 'I' for Inactive)
REMARK    1  A    between atoms: O_1  and  C_9
REMARK    2  A    between atoms: N_3  and  C_6
REMARK    3  A    between atoms: N_5  and  C_10
REMARK    4  A    between atoms: C_6  and  C_9
REMARK    5  A    between atoms: C_7  and  C_8
REMARK                            x       y       z     vdW  Elec       q    Type
REMARK                         _______ _______ _______ _____ _____    ______ ____
ROOT
ATOM      1  N   UNL     1     -19.524  39.712 -10.072  0.00  0.00    +0.000 NA
ATOM      2  C   UNL     1     -18.533  41.427 -11.457  0.00  0.00    +0.000 A 
ATOM      3  C   UNL     1     -19.226  40.241 -11.280  0.00  0.00    +0.000 A 
ATOM      4  C   UNL     1     -18.121  42.117 -10.321  0.00  0.00    +0.000 A 
ATOM      5  C   UNL     1     -18.410  41.605  -9.061  0.00  0.00    +0.000 A 
ATOM      6  C   UNL     1     -19.108  40.410  -8.992  0.00  0.00    +0.000 A 
ENDROOT
BRANCH   2   9
ATOM      7  O   UNL     1     -17.249  41.556 -13.414  0.00  0.00    +0.000 OA
ATOM      8  N   UNL     1     -19.095  42.951 -13.269  0.00  0.00    +0.000 N 
ATOM      9  C   UNL     1     -18.228  41.973 -12.773  0.00  0.00    +0.000 C 
ATOM     10  H   UNL     1     -19.880  43.248 -12.696  0.00  0.00    +0.000 HD
BRANCH   8  11
ATOM     11  C   UNL     1     -18.940  43.571 -14.566  0.00  0.00    +0.000 C 
BRANCH  11  12
ATOM     12  C   UNL     1     -20.007  43.105 -15.538  0.00  0.00    +0.000 C 
BRANCH  12  13
ATOM     13  O   UNL     1     -20.889  44.182 -15.825  0.00  0.00    +0.000 OA
ATOM     14  H   UNL     1     -20.639  44.531 -16.697  0.00  0.00    +0.000 HD
ENDBRANCH  12  13
ENDBRANCH  11  12
ENDBRANCH   8  11
ENDBRANCH   2   9
BRANCH   3  15
ATOM     15  N   UNL     1     -19.652  39.534 -12.432  0.00  0.00    +0.000 N 
ATOM     16  H   UNL     1     -20.491  38.970 -12.373  0.00  0.00    +0.000 HD
ATOM     17  H   UNL     1     -18.928  39.234 -13.073  0.00  0.00    +0.000 HD
ENDBRANCH   3  15
TORSDOF 5
ENDMDL
MODEL 5
REMARK VINA RESULT:    -4.982      3.315      4.146
REMARK INTER + INTRA:          -6.703
REMARK INTER:                  -6.341
REMARK INTRA:                  -0.362
REMARK UNBOUND:                -0.555
REMARK  Name = 33734963
REMARK  5 active torsions:
REMARK  status: ('A' for Active; 'I' for Inactive)
REMARK    1  A    between atoms: O_1  and  C_9
REMARK    2  A    between atoms: N_3  and  C_6
REMARK    3  A    between atoms: N_5  and  C_10
REMARK    4  A    between atoms: C_6  and  C_9
REMARK    5  A    between atoms: C_7  and  C_8
REMARK                            x       y       z     vdW  Elec       q    Type
REMARK                         _______ _______ _______ _____ _____    ______ ____
ROOT
ATOM      1  N   UNL     1     -19.012  40.858 -13.169  0.00  0.00    +0.000 NA
ATOM      2  C   UNL     1     -17.119  41.501 -11.811  0.00  0.00    +0.000 A 
ATOM      3  C   UNL     1     -17.973  41.676 -12.887  0.00  0.00    +0.000 A 
ATOM      4  C   UNL     1     -17.347  40.419 -10.968  0.00  0.00    +0.000 A 
ATOM      5  C   UNL     1     -18.406  39.556 -11.225  0.00  0.00    +0.000 A 
ATOM      6  C   UNL     1     -19.201  39.817 -12.328  0.00  0.00    +0.000 A 
ENDROOT
BRANCH   2   9
ATOM      7  O   UNL     1     -16.188  43.632 -11.504  0.00  0.00    +0.000 OA
ATOM      8  N   UNL     1     -14.765  41.815 -11.279  0.00  0.00    +0.000 N 
ATOM      9  C   UNL     1     -16.009  42.402 -11.531  0.00  0.00    +0.000 C 
ATOM     10  H   UNL     1     -14.684  40.803 -11.314  0.00  0.00    +0.000 HD
BRANCH   8  11
ATOM     11  C   UNL     1     -13.575  42.572 -10.963  0.00  0.00    +0.000 C 
BRANCH  11  12
ATOM     12  C   UNL     1     -12.416  41.663 -10.598  0.00  0.00    +0.000 C 
BRANCH  12  13
ATOM     13  O   UNL     1     -12.511  40.455 -11.340  0.00  0.00    +0.000 OA
ATOM     14  H   UNL     1     -13.329  40.011 -11.060  0.00  0.00    +0.000 HD
ENDBRANCH  12  13
ENDBRANCH  11  12
ENDBRANCH   8  11
ENDBRANCH   2   9
BRANCH   3  15
ATOM     15  N   UNL     1     -17.749  42.779 -13.750  0.00  0.00    +0.000 N 
ATOM     16  H   UNL     1     -16.818  42.926 -14.118  0.00  0.00    +0.000 HD
ATOM     17  H   UNL     1     -18.330  43.594 -13.602  0.00  0.00    +0.000 HD
ENDBRANCH   3  15
TORSDOF 5
ENDMDL
