MODEL 1
REMARK VINA RESULT:    -6.729      0.000      0.000
REMARK INTER + INTRA:          -9.581
REMARK INTER:                  -9.089
REMARK INTRA:                  -0.491
REMARK UNBOUND:                -0.491
REMARK  Name = 34003152
REMARK  8 active torsions:
REMARK  status: ('A' for Active; 'I' for Inactive)
REMARK    1  A    between atoms: N_2  and  C_8
REMARK    2  A    between atoms: N_2  and  C_11
REMARK    3  A    between atoms: C_5  and  C_6
REMARK    4  A    between atoms: C_5  and  C_9
REMARK    5  A    between atoms: C_5  and  C_10
REMARK    6  A    between atoms: C_6  and  C_7
REMARK    7  A    between atoms: C_7  and  C_8
REMARK    8  A    between atoms: C_12  and  C_14
REMARK                            x       y       z     vdW  Elec       q    Type
REMARK                         _______ _______ _______ _____ _____    ______ ____
ROOT
ATOM      1  N   UNL     1     -19.035  39.577 -10.891  0.00  0.00    +0.000 NA
ATOM      2  C   UNL     1     -17.961  40.347 -10.606  0.00  0.00    +0.000 A 
ATOM      3  C   UNL     1     -17.073  40.823 -11.557  0.00  0.00    +0.000 A 
ATOM      4  C   UNL     1     -17.302  40.489 -12.887  0.00  0.00    +0.000 A 
ATOM      5  C   UNL     1     -18.396  39.699 -13.221  0.00  0.00    +0.000 A 
ATOM      6  C   UNL     1     -19.225  39.272 -12.195  0.00  0.00    +0.000 A 
ENDROOT
BRANCH   3   9
ATOM      7  O   UNL     1     -16.038  42.872 -11.026  0.00  0.00    +0.000 OA
ATOM      8  N   UNL     1     -14.689  41.018 -11.094  0.00  0.00    +0.000 N 
ATOM      9  C   UNL     1     -15.922  41.649 -11.217  0.00  0.00    +0.000 C 
ATOM     10  H   UNL     1     -14.576  40.020 -11.240  0.00  0.00    +0.000 HD
ATOM     11  H   UNL     1     -13.856  41.545 -10.853  0.00  0.00    +0.000 HD
ENDBRANCH   3   9
BRANCH   2  12
ATOM     12  N   UNL     1     -17.738  40.674  -9.278  0.00  0.00    +0.000 N 
ATOM     13  H   UNL     1     -16.768  40.752  -8.988  0.00  0.00    +0.000 HD
BRANCH  12  14
ATOM     14  C   UNL     1     -18.706  40.468  -8.228  0.00  0.00    +0.000 C 
BRANCH  14  15
ATOM     15  C   UNL     1     -19.651  41.664  -8.121  0.00  0.00    +0.000 C 
BRANCH  15  16
ATOM     16  C   UNL     1     -20.290  41.788  -6.732  0.00  0.00    +0.000 C 
BRANCH  16  17
ATOM     17  C   UNL     1     -21.728  42.336  -6.767  0.00  0.00    +0.000 C 
ATOM     18  C   UNL     1     -22.737  41.301  -7.266  0.00  0.00    +0.000 C 
ATOM     19  C   UNL     1     -22.132  42.820  -5.372  0.00  0.00    +0.000 C 
ENDBRANCH  16  17
ENDBRANCH  15  16
ENDBRANCH  14  15
ENDBRANCH  12  14
ENDBRANCH   2  12
TORSDOF 6
ENDMDL
MODEL 2
REMARK VINA RESULT:    -6.359      2.383      5.394
REMARK INTER + INTRA:          -9.081
REMARK INTER:                  -8.199
REMARK INTRA:                  -0.883
REMARK UNBOUND:                -0.491
REMARK  Name = 34003152
REMARK  8 active torsions:
REMARK  status: ('A' for Active; 'I' for Inactive)
REMARK    1  A    between atoms: N_2  and  C_8
REMARK    2  A    between atoms: N_2  and  C_11
REMARK    3  A    between atoms: C_5  and  C_6
REMARK    4  A    between atoms: C_5  and  C_9
REMARK    5  A    between atoms: C_5  and  C_10
REMARK    6  A    between atoms: C_6  and  C_7
REMARK    7  A    between atoms: C_7  and  C_8
REMARK    8  A    between atoms: C_12  and  C_14
REMARK                            x       y       z     vdW  Elec       q    Type
REMARK                         _______ _______ _______ _____ _____    ______ ____
ROOT
ATOM      1  N   UNL     1     -18.484  42.113  -8.470  0.00  0.00    +0.000 NA
ATOM      2  C   UNL     1     -18.248  41.451  -9.624  0.00  0.00    +0.000 A 
ATOM      3  C   UNL     1     -19.062  40.448 -10.124  0.00  0.00    +0.000 A 
ATOM      4  C   UNL     1     -20.193  40.101  -9.392  0.00  0.00    +0.000 A 
ATOM      5  C   UNL     1     -20.471  40.761  -8.200  0.00  0.00    +0.000 A 
ATOM      6  C   UNL     1     -19.592  41.750  -7.786  0.00  0.00    +0.000 A 
ENDROOT
BRANCH   3   9
ATOM      7  O   UNL     1     -17.642  39.316 -11.624  0.00  0.00    +0.000 OA
ATOM      8  N   UNL     1     -19.831  39.568 -12.262  0.00  0.00    +0.000 N 
ATOM      9  C   UNL     1     -18.779  39.750 -11.371  0.00  0.00    +0.000 C 
ATOM     10  H   UNL     1     -20.766  39.910 -12.070  0.00  0.00    +0.000 HD
ATOM     11  H   UNL     1     -19.690  39.084 -13.142  0.00  0.00    +0.000 HD
ENDBRANCH   3   9
BRANCH   2  12
ATOM     12  N   UNL     1     -17.118  41.800 -10.347  0.00  0.00    +0.000 N 
ATOM     13  H   UNL     1     -16.286  41.243 -10.180  0.00  0.00    +0.000 HD
BRANCH  12  14
ATOM     14  C   UNL     1     -16.912  43.102 -10.935  0.00  0.00    +0.000 C 
BRANCH  14  15
ATOM     15  C   UNL     1     -16.523  42.975 -12.407  0.00  0.00    +0.000 C 
BRANCH  15  16
ATOM     16  C   UNL     1     -17.674  42.454 -13.277  0.00  0.00    +0.000 C 
BRANCH  16  17
ATOM     17  C   UNL     1     -18.876  43.415 -13.340  0.00  0.00    +0.000 C 
ATOM     18  C   UNL     1     -18.477  44.820 -13.791  0.00  0.00    +0.000 C 
ATOM     19  C   UNL     1     -19.941  42.851 -14.284  0.00  0.00    +0.000 C 
ENDBRANCH  16  17
ENDBRANCH  15  16
ENDBRANCH  14  15
ENDBRANCH  12  14
ENDBRANCH   2  12
TORSDOF 6
ENDMDL
MODEL 3
REMARK VINA RESULT:    -6.312      2.159      2.498
REMARK INTER + INTRA:          -9.018
REMARK INTER:                  -8.405
REMARK INTRA:                  -0.613
REMARK UNBOUND:                -0.491
REMARK  Name = 34003152
REMARK  8 active torsions:
REMARK  status: ('A' for Active; 'I' for Inactive)
REMARK    1  A    between atoms: N_2  and  C_8
REMARK    2  A    between atoms: N_2  and  C_11
REMARK    3  A    between atoms: C_5  and  C_6
REMARK    4  A    between atoms: C_5  and  C_9
REMARK    5  A    between atoms: C_5  and  C_10
REMARK    6  A    between atoms: C_6  and  C_7
REMARK    7  A    between atoms: C_7  and  C_8
REMARK    8  A    between atoms: C_12  and  C_14
REMARK                            x       y       z     vdW  Elec       q    Type
REMARK                         _______ _______ _______ _____ _____    ______ ____
ROOT
ATOM      1  N   UNL     1     -19.495  41.386 -13.151  0.00  0.00    +0.000 NA
ATOM      2  C   UNL     1     -18.698  41.478 -12.062  0.00  0.00    +0.000 A 
ATOM      3  C   UNL     1     -18.024  42.628 -11.688  0.00  0.00    +0.000 A 
ATOM      4  C   UNL     1     -18.178  43.760 -12.482  0.00  0.00    +0.000 A 
ATOM      5  C   UNL     1     -18.990  43.707 -13.609  0.00  0.00    +0.000 A 
ATOM      6  C   UNL     1     -19.620  42.506 -13.898  0.00  0.00    +0.000 A 
ENDROOT
BRANCH   3   9
ATOM      7  O   UNL     1     -17.650  42.768  -9.367  0.00  0.00    +0.000 OA
ATOM      8  N   UNL     1     -15.794  42.650 -10.708  0.00  0.00    +0.000 N 
ATOM      9  C   UNL     1     -17.170  42.694 -10.510  0.00  0.00    +0.000 C 
ATOM     10  H   UNL     1     -15.384  42.584 -11.634  0.00  0.00    +0.000 HD
ATOM     11  H   UNL     1     -15.153  42.686  -9.923  0.00  0.00    +0.000 HD
ENDBRANCH   3   9
BRANCH   2  12
ATOM     12  N   UNL     1     -18.548  40.345 -11.278  0.00  0.00    +0.000 N 
ATOM     13  H   UNL     1     -17.747  39.755 -11.484  0.00  0.00    +0.000 HD
BRANCH  12  14
ATOM     14  C   UNL     1     -19.627  39.727 -10.546  0.00  0.00    +0.000 C 
BRANCH  14  15
ATOM     15  C   UNL     1     -19.650  40.219  -9.099  0.00  0.00    +0.000 C 
BRANCH  15  16
ATOM     16  C   UNL     1     -21.069  40.271  -8.518  0.00  0.00    +0.000 C 
BRANCH  16  17
ATOM     17  C   UNL     1     -21.356  41.557  -7.721  0.00  0.00    +0.000 C 
ATOM     18  C   UNL     1     -22.710  41.516  -7.014  0.00  0.00    +0.000 C 
ATOM     19  C   UNL     1     -20.244  41.789  -6.695  0.00  0.00    +0.000 C 
ENDBRANCH  16  17
ENDBRANCH  15  16
ENDBRANCH  14  15
ENDBRANCH  12  14
ENDBRANCH   2  12
TORSDOF 6
ENDMDL
MODEL 4
REMARK VINA RESULT:    -6.163      2.229      3.135
REMARK INTER + INTRA:          -8.816
REMARK INTER:                  -8.222
REMARK INTRA:                  -0.594
REMARK UNBOUND:                -0.491
REMARK  Name = 34003152
REMARK  8 active torsions:
REMARK  status: ('A' for Active; 'I' for Inactive)
REMARK    1  A    between atoms: N_2  and  C_8
REMARK    2  A    between atoms: N_2  and  C_11
REMARK    3  A    between atoms: C_5  and  C_6
REMARK    4  A    between atoms: C_5  and  C_9
REMARK    5  A    between atoms: C_5  and  C_10
REMARK    6  A    between atoms: C_6  and  C_7
REMARK    7  A    between atoms: C_7  and  C_8
REMARK    8  A    between atoms: C_12  and  C_14
REMARK                            x       y       z     vdW  Elec       q    Type
REMARK                         _______ _______ _______ _____ _____    ______ ____
ROOT
ATOM      1  N   UNL     1     -17.607  43.876 -11.266  0.00  0.00    +0.000 NA
ATOM      2  C   UNL     1     -17.884  42.556 -11.172  0.00  0.00    +0.000 A 
ATOM      3  C   UNL     1     -18.355  41.785 -12.222  0.00  0.00    +0.000 A 
ATOM      4  C   UNL     1     -18.553  42.408 -13.449  0.00  0.00    +0.000 A 
ATOM      5  C   UNL     1     -18.278  43.764 -13.587  0.00  0.00    +0.000 A 
ATOM      6  C   UNL     1     -17.812  44.447 -12.474  0.00  0.00    +0.000 A 
ENDROOT
BRANCH   3   9
ATOM      7  O   UNL     1     -17.792  39.565 -11.672  0.00  0.00    +0.000 OA
ATOM      8  N   UNL     1     -19.927  39.935 -12.422  0.00  0.00    +0.000 N 
ATOM      9  C   UNL     1     -18.648  40.365 -12.087  0.00  0.00    +0.000 C 
ATOM     10  H   UNL     1     -20.640  40.574 -12.758  0.00  0.00    +0.000 HD
ATOM     11  H   UNL     1     -20.186  38.958 -12.342  0.00  0.00    +0.000 HD
ENDBRANCH   3   9
BRANCH   2  12
ATOM     12  N   UNL     1     -17.687  41.943  -9.944  0.00  0.00    +0.000 N 
ATOM     13  H   UNL     1     -17.196  41.055  -9.957  0.00  0.00    +0.000 HD
BRANCH  12  14
ATOM     14  C   UNL     1     -18.483  42.220  -8.773  0.00  0.00    +0.000 C 
BRANCH  14  15
ATOM     15  C   UNL     1     -19.141  40.943  -8.252  0.00  0.00    +0.000 C 
BRANCH  15  16
ATOM     16  C   UNL     1     -20.672  40.996  -8.333  0.00  0.00    +0.000 C 
BRANCH  16  17
ATOM     17  C   UNL     1     -21.349  41.214  -6.967  0.00  0.00    +0.000 C 
ATOM     18  C   UNL     1     -20.496  42.059  -6.021  0.00  0.00    +0.000 C 
ATOM     19  C   UNL     1     -22.713  41.880  -7.166  0.00  0.00    +0.000 C 
ENDBRANCH  16  17
ENDBRANCH  15  16
ENDBRANCH  14  15
ENDBRANCH  12  14
ENDBRANCH   2  12
TORSDOF 6
ENDMDL
MODEL 5
REMARK VINA RESULT:    -5.956      2.307      6.132
REMARK INTER + INTRA:          -8.536
REMARK INTER:                  -7.910
REMARK INTRA:                  -0.626
REMARK UNBOUND:                -0.491
REMARK  Name = 34003152
REMARK  8 active torsions:
REMARK  status: ('A' for Active; 'I' for Inactive)
REMARK    1  A    between atoms: N_2  and  C_8
REMARK    2  A    between atoms: N_2  and  C_11
REMARK    3  A    between atoms: C_5  and  C_6
REMARK    4  A    between atoms: C_5  and  C_9
REMARK    5  A    between atoms: C_5  and  C_10
REMARK    6  A    between atoms: C_6  and  C_7
REMARK    7  A    between atoms: C_7  and  C_8
REMARK    8  A    between atoms: C_12  and  C_14
REMARK                            x       y       z     vdW  Elec       q    Type
REMARK                         _______ _______ _______ _____ _____    ______ ____
ROOT
ATOM      1  N   UNL     1     -18.778  42.259  -8.131  0.00  0.00    +0.000 NA
ATOM      2  C   UNL     1     -18.479  41.595  -9.270  0.00  0.00    +0.000 A 
ATOM      3  C   UNL     1     -19.250  40.572  -9.797  0.00  0.00    +0.000 A 
ATOM      4  C   UNL     1     -20.404  40.206  -9.111  0.00  0.00    +0.000 A 
ATOM      5  C   UNL     1     -20.745  40.866  -7.936  0.00  0.00    +0.000 A 
ATOM      6  C   UNL     1     -19.906  41.876  -7.492  0.00  0.00    +0.000 A 
ENDROOT
BRANCH   3   9
ATOM      7  O   UNL     1     -17.773  39.370 -11.184  0.00  0.00    +0.000 OA
ATOM      8  N   UNL     1     -19.875  39.769 -12.011  0.00  0.00    +0.000 N 
ATOM      9  C   UNL     1     -18.899  39.872 -11.026  0.00  0.00    +0.000 C 
ATOM     10  H   UNL     1     -20.801  40.167 -11.896  0.00  0.00    +0.000 HD
ATOM     11  H   UNL     1     -19.686  39.287 -12.883  0.00  0.00    +0.000 HD
ENDBRANCH   3   9
BRANCH   2  12
ATOM     12  N   UNL     1     -17.326  41.962  -9.946  0.00  0.00    +0.000 N 
ATOM     13  H   UNL     1     -16.449  41.635  -9.555  0.00  0.00    +0.000 HD
BRANCH  12  14
ATOM     14  C   UNL     1     -17.247  43.092 -10.841  0.00  0.00    +0.000 C 
BRANCH  14  15
ATOM     15  C   UNL     1     -16.141  42.886 -11.875  0.00  0.00    +0.000 C 
BRANCH  15  16
ATOM     16  C   UNL     1     -15.171  44.072 -11.942  0.00  0.00    +0.000 C 
BRANCH  16  17
ATOM     17  C   UNL     1     -13.690  43.655 -11.874  0.00  0.00    +0.000 C 
ATOM     18  C   UNL     1     -12.784  44.792 -11.401  0.00  0.00    +0.000 C 
ATOM     19  C   UNL     1     -13.535  42.449 -10.944  0.00  0.00    +0.000 C 
ENDBRANCH  16  17
ENDBRANCH  15  16
ENDBRANCH  14  15
ENDBRANCH  12  14
ENDBRANCH   2  12
TORSDOF 6
ENDMDL
