MODEL 1
REMARK VINA RESULT:    -6.213      0.000      0.000
REMARK INTER + INTRA:          -6.617
REMARK INTER:                  -6.576
REMARK INTRA:                  -0.041
REMARK UNBOUND:                -0.041
REMARK  Name = 351653
REMARK  1 active torsions:
REMARK  status: ('A' for Active; 'I' for Inactive)
REMARK    1  A    between atoms: C_5  and  C_10
REMARK                            x       y       z     vdW  Elec       q    Type
REMARK                         _______ _______ _______ _____ _____    ______ ____
ROOT
ATOM      1  N   UNL     1     -18.828  41.092  -8.884  0.00  0.00    +0.000 NA
ATOM      2  N   UNL     1     -19.962  39.551 -10.303  0.00  0.00    +0.000 N 
ATOM      3  C   UNL     1     -21.225  41.586  -7.533  0.00  0.00    +0.000 A 
ATOM      4  C   UNL     1     -21.193  40.684  -8.590  0.00  0.00    +0.000 A 
ATOM      5  C   UNL     1     -20.060  42.241  -7.150  0.00  0.00    +0.000 A 
ATOM      6  C   UNL     1     -19.980  40.474  -9.228  0.00  0.00    +0.000 A 
ATOM      7  C   UNL     1     -18.898  41.962  -7.852  0.00  0.00    +0.000 A 
ATOM      8  H   UNL     1     -20.639  38.797 -10.303  0.00  0.00    +0.000 HD
ATOM      9  H   UNL     1     -19.073  39.397 -10.761  0.00  0.00    +0.000 HD
ENDROOT
BRANCH   3  12
ATOM     10  O   UNL     1     -23.393  41.008  -6.817  0.00  0.00    +0.000 OA
ATOM     11  N   UNL     1     -22.595  43.053  -6.152  0.00  0.00    +0.000 N 
ATOM     12  C   UNL     1     -22.471  41.843  -6.830  0.00  0.00    +0.000 C 
ATOM     13  H   UNL     1     -21.895  43.782  -6.108  0.00  0.00    +0.000 HD
ATOM     14  H   UNL     1     -23.453  43.254  -5.648  0.00  0.00    +0.000 HD
ENDBRANCH   3  12
TORSDOF 1
ENDMDL
MODEL 2
REMARK VINA RESULT:    -6.080      2.201      4.340
REMARK INTER + INTRA:          -6.477
REMARK INTER:                  -6.442
REMARK INTRA:                  -0.035
REMARK UNBOUND:                -0.041
REMARK  Name = 351653
REMARK  1 active torsions:
REMARK  status: ('A' for Active; 'I' for Inactive)
REMARK    1  A    between atoms: C_5  and  C_10
REMARK                            x       y       z     vdW  Elec       q    Type
REMARK                         _______ _______ _______ _____ _____    ______ ____
ROOT
ATOM      1  N   UNL     1     -22.642  41.560  -6.712  0.00  0.00    +0.000 NA
ATOM      2  N   UNL     1     -21.943  43.181  -5.113  0.00  0.00    +0.000 N 
ATOM      3  C   UNL     1     -20.078  41.577  -7.826  0.00  0.00    +0.000 A 
ATOM      4  C   UNL     1     -20.372  42.391  -6.739  0.00  0.00    +0.000 A 
ATOM      5  C   UNL     1     -21.064  40.754  -8.358  0.00  0.00    +0.000 A 
ATOM      6  C   UNL     1     -21.658  42.346  -6.223  0.00  0.00    +0.000 A 
ATOM      7  C   UNL     1     -22.319  40.782  -7.770  0.00  0.00    +0.000 A 
ATOM      8  H   UNL     1     -21.185  43.426  -4.487  0.00  0.00    +0.000 HD
ATOM      9  H   UNL     1     -22.881  43.138  -4.737  0.00  0.00    +0.000 HD
ENDROOT
BRANCH   3  12
ATOM     10  O   UNL     1     -18.161  42.650  -8.673  0.00  0.00    +0.000 OA
ATOM     11  N   UNL     1     -18.131  40.358  -8.638  0.00  0.00    +0.000 N 
ATOM     12  C   UNL     1     -18.745  41.586  -8.406  0.00  0.00    +0.000 C 
ATOM     13  H   UNL     1     -18.533  39.449  -8.447  0.00  0.00    +0.000 HD
ATOM     14  H   UNL     1     -17.198  40.337  -9.036  0.00  0.00    +0.000 HD
ENDBRANCH   3  12
TORSDOF 1
ENDMDL
MODEL 3
REMARK VINA RESULT:    -5.940      2.131      3.835
REMARK INTER + INTRA:          -6.329
REMARK INTER:                  -6.287
REMARK INTRA:                  -0.041
REMARK UNBOUND:                -0.041
REMARK  Name = 351653
REMARK  1 active torsions:
REMARK  status: ('A' for Active; 'I' for Inactive)
REMARK    1  A    between atoms: C_5  and  C_10
REMARK                            x       y       z     vdW  Elec       q    Type
REMARK                         _______ _______ _______ _____ _____    ______ ____
ROOT
ATOM      1  N   UNL     1     -22.910  42.134  -6.478  0.00  0.00    +0.000 NA
ATOM      2  N   UNL     1     -24.213  40.394  -7.451  0.00  0.00    +0.000 N 
ATOM      3  C   UNL     1     -20.674  41.229  -7.892  0.00  0.00    +0.000 A 
ATOM      4  C   UNL     1     -21.896  40.579  -8.026  0.00  0.00    +0.000 A 
ATOM      5  C   UNL     1     -20.569  42.331  -7.051  0.00  0.00    +0.000 A 
ATOM      6  C   UNL     1     -22.974  41.066  -7.304  0.00  0.00    +0.000 A 
ATOM      7  C   UNL     1     -21.706  42.741  -6.372  0.00  0.00    +0.000 A 
ATOM      8  H   UNL     1     -24.400  39.914  -8.323  0.00  0.00    +0.000 HD
ATOM      9  H   UNL     1     -24.997  40.758  -6.926  0.00  0.00    +0.000 HD
ENDROOT
BRANCH   3  12
ATOM     10  O   UNL     1     -18.357  41.026  -8.254  0.00  0.00    +0.000 OA
ATOM     11  N   UNL     1     -19.734  39.980  -9.760  0.00  0.00    +0.000 N 
ATOM     12  C   UNL     1     -19.512  40.759  -8.627  0.00  0.00    +0.000 C 
ATOM     13  H   UNL     1     -20.637  39.713 -10.129  0.00  0.00    +0.000 HD
ATOM     14  H   UNL     1     -18.938  39.633 -10.288  0.00  0.00    +0.000 HD
ENDBRANCH   3  12
TORSDOF 1
ENDMDL
MODEL 4
REMARK VINA RESULT:    -5.413      3.752      5.342
REMARK INTER + INTRA:          -5.771
REMARK INTER:                  -5.739
REMARK INTRA:                  -0.032
REMARK UNBOUND:                -0.041
REMARK  Name = 351653
REMARK  1 active torsions:
REMARK  status: ('A' for Active; 'I' for Inactive)
REMARK    1  A    between atoms: C_5  and  C_10
REMARK                            x       y       z     vdW  Elec       q    Type
REMARK                         _______ _______ _______ _____ _____    ______ ____
ROOT
ATOM      1  N   UNL     1     -18.249  42.104  -8.894  0.00  0.00    +0.000 NA
ATOM      2  N   UNL     1     -19.213  40.167  -7.900  0.00  0.00    +0.000 N 
ATOM      3  C   UNL     1     -18.088  40.750 -11.335  0.00  0.00    +0.000 A 
ATOM      4  C   UNL     1     -18.615  40.114 -10.217  0.00  0.00    +0.000 A 
ATOM      5  C   UNL     1     -17.641  42.063 -11.234  0.00  0.00    +0.000 A 
ATOM      6  C   UNL     1     -18.673  40.828  -9.031  0.00  0.00    +0.000 A 
ATOM      7  C   UNL     1     -17.743  42.690 -10.003  0.00  0.00    +0.000 A 
ATOM      8  H   UNL     1     -19.897  39.434  -8.050  0.00  0.00    +0.000 HD
ATOM      9  H   UNL     1     -19.259  40.695  -7.038  0.00  0.00    +0.000 HD
ENDROOT
BRANCH   3  12
ATOM     10  O   UNL     1     -19.025  39.663 -13.202  0.00  0.00    +0.000 OA
ATOM     11  N   UNL     1     -16.739  39.830 -13.143  0.00  0.00    +0.000 N 
ATOM     12  C   UNL     1     -18.005  40.047 -12.604  0.00  0.00    +0.000 C 
ATOM     13  H   UNL     1     -15.861  40.112 -12.726  0.00  0.00    +0.000 HD
ATOM     14  H   UNL     1     -16.653  39.347 -14.032  0.00  0.00    +0.000 HD
ENDBRANCH   3  12
TORSDOF 1
ENDMDL
MODEL 5
REMARK VINA RESULT:    -5.347      3.241      4.562
REMARK INTER + INTRA:          -5.700
REMARK INTER:                  -5.663
REMARK INTRA:                  -0.037
REMARK UNBOUND:                -0.041
REMARK  Name = 351653
REMARK  1 active torsions:
REMARK  status: ('A' for Active; 'I' for Inactive)
REMARK    1  A    between atoms: C_5  and  C_10
REMARK                            x       y       z     vdW  Elec       q    Type
REMARK                         _______ _______ _______ _____ _____    ______ ____
ROOT
ATOM      1  N   UNL     1     -17.028  39.917 -12.635  0.00  0.00    +0.000 NA
ATOM      2  N   UNL     1     -15.146  40.384 -11.252  0.00  0.00    +0.000 N 
ATOM      3  C   UNL     1     -18.720  40.355 -10.453  0.00  0.00    +0.000 A 
ATOM      4  C   UNL     1     -17.343  40.480 -10.306  0.00  0.00    +0.000 A 
ATOM      5  C   UNL     1     -19.252  40.012 -11.691  0.00  0.00    +0.000 A 
ATOM      6  C   UNL     1     -16.547  40.253 -11.417  0.00  0.00    +0.000 A 
ATOM      7  C   UNL     1     -18.371  39.805 -12.741  0.00  0.00    +0.000 A 
ATOM      8  H   UNL     1     -14.802  41.017 -10.540  0.00  0.00    +0.000 HD
ATOM      9  H   UNL     1     -14.571  40.223 -12.069  0.00  0.00    +0.000 HD
ENDROOT
BRANCH   3  12
ATOM     10  O   UNL     1     -19.393  41.507  -8.513  0.00  0.00    +0.000 OA
ATOM     11  N   UNL     1     -20.700  39.742  -9.173  0.00  0.00    +0.000 N 
ATOM     12  C   UNL     1     -19.600  40.583  -9.320  0.00  0.00    +0.000 C 
ATOM     13  H   UNL     1     -20.943  38.973  -9.784  0.00  0.00    +0.000 HD
ATOM     14  H   UNL     1     -21.333  39.884  -8.393  0.00  0.00    +0.000 HD
ENDBRANCH   3  12
TORSDOF 1
ENDMDL
