MODEL 1
REMARK VINA RESULT:    -7.204      0.000      0.000
REMARK INTER + INTRA:          -8.130
REMARK INTER:                  -8.047
REMARK INTRA:                  -0.084
REMARK UNBOUND:                -0.084
REMARK  Name = 353133
REMARK  2 active torsions:
REMARK  status: ('A' for Active; 'I' for Inactive)
REMARK    1  A    between atoms: N_4  and  N_6
REMARK    2  A    between atoms: C_7  and  C_12
REMARK                            x       y       z     vdW  Elec       q    Type
REMARK                         _______ _______ _______ _____ _____    ______ ____
ROOT
ATOM      1  N   UNL     1     -18.841  42.100  -7.835  0.00  0.00    +0.000 NA
ATOM      2  N   UNL     1     -17.617  40.944  -9.521  0.00  0.00    +0.000 N 
ATOM      3  C   UNL     1     -21.181  41.590  -7.503  0.00  0.00    +0.000 A 
ATOM      4  C   UNL     1     -21.127  40.647  -8.525  0.00  0.00    +0.000 A 
ATOM      5  C   UNL     1     -18.827  41.176  -8.821  0.00  0.00    +0.000 A 
ATOM      6  C   UNL     1     -19.932  40.431  -9.200  0.00  0.00    +0.000 A 
ATOM      7  C   UNL     1     -20.020  42.283  -7.200  0.00  0.00    +0.000 A 
ATOM      8  H   UNL     1     -16.826  41.503  -9.222  0.00  0.00    +0.000 HD
ENDROOT
BRANCH   3  11
ATOM      9  O   UNL     1     -23.343  41.009  -6.770  0.00  0.00    +0.000 OA
ATOM     10  N   UNL     1     -22.521  43.032  -6.068  0.00  0.00    +0.000 N 
ATOM     11  C   UNL     1     -22.414  41.838  -6.778  0.00  0.00    +0.000 C 
ATOM     12  H   UNL     1     -21.812  43.753  -6.020  0.00  0.00    +0.000 HD
ATOM     13  H   UNL     1     -23.369  43.228  -5.547  0.00  0.00    +0.000 HD
ENDBRANCH   3  11
BRANCH   2  15
ATOM     14  O   UNL     1     -16.264  40.108 -10.910  0.00  0.00    +0.000 OA
ATOM     15  N   UNL     1     -17.431  40.082 -10.508  0.00  0.00    +0.000 NA
ENDBRANCH   2  15
TORSDOF 2
ENDMDL
MODEL 2
REMARK VINA RESULT:    -6.809      1.333      5.178
REMARK INTER + INTRA:          -7.689
REMARK INTER:                  -7.604
REMARK INTRA:                  -0.085
REMARK UNBOUND:                -0.084
REMARK  Name = 353133
REMARK  2 active torsions:
REMARK  status: ('A' for Active; 'I' for Inactive)
REMARK    1  A    between atoms: N_4  and  N_6
REMARK    2  A    between atoms: C_7  and  C_12
REMARK                            x       y       z     vdW  Elec       q    Type
REMARK                         _______ _______ _______ _____ _____    ______ ____
ROOT
ATOM      1  N   UNL     1     -19.228  42.312  -7.677  0.00  0.00    +0.000 NA
ATOM      2  N   UNL     1     -21.338  42.510  -6.586  0.00  0.00    +0.000 N 
ATOM      3  C   UNL     1     -18.951  40.685  -9.444  0.00  0.00    +0.000 A 
ATOM      4  C   UNL     1     -20.275  40.285  -9.292  0.00  0.00    +0.000 A 
ATOM      5  C   UNL     1     -20.509  41.897  -7.559  0.00  0.00    +0.000 A 
ATOM      6  C   UNL     1     -21.074  40.898  -8.334  0.00  0.00    +0.000 A 
ATOM      7  C   UNL     1     -18.481  41.694  -8.618  0.00  0.00    +0.000 A 
ATOM      8  H   UNL     1     -20.898  43.237  -6.034  0.00  0.00    +0.000 HD
ENDROOT
BRANCH   3  11
ATOM      9  O   UNL     1     -18.516  39.189 -11.210  0.00  0.00    +0.000 OA
ATOM     10  N   UNL     1     -16.769  40.500 -10.511  0.00  0.00    +0.000 N 
ATOM     11  C   UNL     1     -18.091  40.066 -10.436  0.00  0.00    +0.000 C 
ATOM     12  H   UNL     1     -16.348  41.209  -9.923  0.00  0.00    +0.000 HD
ATOM     13  H   UNL     1     -16.147  40.089 -11.199  0.00  0.00    +0.000 HD
ENDBRANCH   3  11
BRANCH   2  15
ATOM     14  O   UNL     1     -23.070  42.966  -5.469  0.00  0.00    +0.000 OA
ATOM     15  N   UNL     1     -22.607  42.224  -6.340  0.00  0.00    +0.000 NA
ENDBRANCH   2  15
TORSDOF 2
ENDMDL
MODEL 3
REMARK VINA RESULT:    -5.814      2.071      5.630
REMARK INTER + INTRA:          -6.578
REMARK INTER:                  -6.485
REMARK INTRA:                  -0.093
REMARK UNBOUND:                -0.084
REMARK  Name = 353133
REMARK  2 active torsions:
REMARK  status: ('A' for Active; 'I' for Inactive)
REMARK    1  A    between atoms: N_4  and  N_6
REMARK    2  A    between atoms: C_7  and  C_12
REMARK                            x       y       z     vdW  Elec       q    Type
REMARK                         _______ _______ _______ _____ _____    ______ ____
ROOT
ATOM      1  N   UNL     1     -20.184  39.998  -9.789  0.00  0.00    +0.000 NA
ATOM      2  N   UNL     1     -21.061  41.246  -7.959  0.00  0.00    +0.000 N 
ATOM      3  C   UNL     1     -17.951  40.467 -10.588  0.00  0.00    +0.000 A 
ATOM      4  C   UNL     1     -17.807  41.458  -9.622  0.00  0.00    +0.000 A 
ATOM      5  C   UNL     1     -20.007  40.967  -8.864  0.00  0.00    +0.000 A 
ATOM      6  C   UNL     1     -18.850  41.718  -8.740  0.00  0.00    +0.000 A 
ATOM      7  C   UNL     1     -19.149  39.773 -10.628  0.00  0.00    +0.000 A 
ATOM      8  H   UNL     1     -21.895  40.681  -8.073  0.00  0.00    +0.000 HD
ENDROOT
BRANCH   3  11
ATOM      9  O   UNL     1     -17.113  39.733 -12.663  0.00  0.00    +0.000 OA
ATOM     10  N   UNL     1     -15.571  40.412 -11.107  0.00  0.00    +0.000 N 
ATOM     11  C   UNL     1     -16.880  40.171 -11.522  0.00  0.00    +0.000 C 
ATOM     12  H   UNL     1     -15.298  40.770 -10.201  0.00  0.00    +0.000 HD
ATOM     13  H   UNL     1     -14.803  40.220 -11.743  0.00  0.00    +0.000 HD
ENDBRANCH   3  11
BRANCH   2  15
ATOM     14  O   UNL     1     -22.131  42.758  -6.946  0.00  0.00    +0.000 OA
ATOM     15  N   UNL     1     -21.054  42.158  -6.999  0.00  0.00    +0.000 NA
ENDBRANCH   2  15
TORSDOF 2
ENDMDL
MODEL 4
REMARK VINA RESULT:    -5.186      3.046      4.073
REMARK INTER + INTRA:          -5.876
REMARK INTER:                  -5.782
REMARK INTRA:                  -0.095
REMARK UNBOUND:                -0.084
REMARK  Name = 353133
REMARK  2 active torsions:
REMARK  status: ('A' for Active; 'I' for Inactive)
REMARK    1  A    between atoms: N_4  and  N_6
REMARK    2  A    between atoms: C_7  and  C_12
REMARK                            x       y       z     vdW  Elec       q    Type
REMARK                         _______ _______ _______ _____ _____    ______ ____
ROOT
ATOM      1  N   UNL     1     -17.734  40.592 -11.878  0.00  0.00    +0.000 NA
ATOM      2  N   UNL     1     -16.281  42.245 -12.789  0.00  0.00    +0.000 N 
ATOM      3  C   UNL     1     -18.749  40.963  -9.714  0.00  0.00    +0.000 A 
ATOM      4  C   UNL     1     -18.108  42.193  -9.617  0.00  0.00    +0.000 A 
ATOM      5  C   UNL     1     -17.128  41.793 -11.747  0.00  0.00    +0.000 A 
ATOM      6  C   UNL     1     -17.281  42.623 -10.648  0.00  0.00    +0.000 A 
ATOM      7  C   UNL     1     -18.531  40.207 -10.855  0.00  0.00    +0.000 A 
ATOM      8  H   UNL     1     -16.189  41.618 -13.580  0.00  0.00    +0.000 HD
ENDROOT
BRANCH   3  11
ATOM      9  O   UNL     1     -19.406  40.765  -7.461  0.00  0.00    +0.000 OA
ATOM     10  N   UNL     1     -20.724  39.718  -9.018  0.00  0.00    +0.000 N 
ATOM     11  C   UNL     1     -19.620  40.486  -8.655  0.00  0.00    +0.000 C 
ATOM     12  H   UNL     1     -20.971  39.451  -9.963  0.00  0.00    +0.000 HD
ATOM     13  H   UNL     1     -21.353  39.377  -8.298  0.00  0.00    +0.000 HD
ENDBRANCH   3  11
BRANCH   2  15
ATOM     14  O   UNL     1     -16.178  44.213 -13.547  0.00  0.00    +0.000 OA
ATOM     15  N   UNL     1     -15.614  43.389 -12.821  0.00  0.00    +0.000 NA
ENDBRANCH   2  15
TORSDOF 2
ENDMDL
MODEL 5
REMARK VINA RESULT:    -5.120      3.799      6.310
REMARK INTER + INTRA:          -5.803
REMARK INTER:                  -5.699
REMARK INTRA:                  -0.103
REMARK UNBOUND:                -0.084
REMARK  Name = 353133
REMARK  2 active torsions:
REMARK  status: ('A' for Active; 'I' for Inactive)
REMARK    1  A    between atoms: N_4  and  N_6
REMARK    2  A    between atoms: C_7  and  C_12
REMARK                            x       y       z     vdW  Elec       q    Type
REMARK                         _______ _______ _______ _____ _____    ______ ____
ROOT
ATOM      1  N   UNL     1     -19.107  41.431 -12.520  0.00  0.00    +0.000 NA
ATOM      2  N   UNL     1     -19.901  40.368 -10.541  0.00  0.00    +0.000 N 
ATOM      3  C   UNL     1     -17.170  42.873 -12.400  0.00  0.00    +0.000 A 
ATOM      4  C   UNL     1     -17.067  42.632 -11.034  0.00  0.00    +0.000 A 
ATOM      5  C   UNL     1     -18.975  41.221 -11.191  0.00  0.00    +0.000 A 
ATOM      6  C   UNL     1     -17.983  41.792 -10.411  0.00  0.00    +0.000 A 
ATOM      7  C   UNL     1     -18.199  42.254 -13.090  0.00  0.00    +0.000 A 
ATOM      8  H   UNL     1     -20.616  39.965 -11.136  0.00  0.00    +0.000 HD
ENDROOT
BRANCH   3  11
ATOM      9  O   UNL     1     -16.613  44.711 -13.764  0.00  0.00    +0.000 OA
ATOM     10  N   UNL     1     -14.870  43.479 -12.925  0.00  0.00    +0.000 N 
ATOM     11  C   UNL     1     -16.229  43.745 -13.079  0.00  0.00    +0.000 C 
ATOM     12  H   UNL     1     -14.476  42.719 -12.384  0.00  0.00    +0.000 HD
ATOM     13  H   UNL     1     -14.189  44.076 -13.384  0.00  0.00    +0.000 HD
ENDBRANCH   3  11
BRANCH   2  15
ATOM     14  O   UNL     1     -20.886  40.566  -8.684  0.00  0.00    +0.000 OA
ATOM     15  N   UNL     1     -19.916  40.058  -9.254  0.00  0.00    +0.000 NA
ENDBRANCH   2  15
TORSDOF 2
ENDMDL
