MODEL 1
REMARK VINA RESULT:    -7.016      0.000      0.000
REMARK INTER + INTRA:          -7.016
REMARK INTER:                  -7.016
REMARK INTRA:                   0.000
REMARK UNBOUND:                 0.000
REMARK  Name = 354904
REMARK  1 active torsions:
REMARK  status: ('A' for Active; 'I' for Inactive)
REMARK    1  A    between atoms: C_9  and  C_14
REMARK                            x       y       z     vdW  Elec       q    Type
REMARK                         _______ _______ _______ _____ _____    ______ ____
ROOT
ATOM      1  O   UNL     1     -18.410  39.602 -13.522  0.00  0.00    +0.000 OA
ATOM      2  N   UNL     1     -18.806  41.465  -9.968  0.00  0.00    +0.000 N 
ATOM      3  N   UNL     1     -19.341  39.630 -11.436  0.00  0.00    +0.000 NA
ATOM      4  N   UNL     1     -17.307  43.235 -10.701  0.00  0.00    +0.000 NA
ATOM      5  C   UNL     1     -17.961  42.069 -10.948  0.00  0.00    +0.000 A 
ATOM      6  C   UNL     1     -19.444  40.263 -10.299  0.00  0.00    +0.000 A 
ATOM      7  C   UNL     1     -17.825  41.421 -12.180  0.00  0.00    +0.000 A 
ATOM      8  C   UNL     1     -19.008  42.030  -8.714  0.00  0.00    +0.000 A 
ATOM      9  C   UNL     1     -19.802  41.478  -7.778  0.00  0.00    +0.000 A 
ATOM     10  C   UNL     1     -20.339  39.614  -9.276  0.00  0.00    +0.000 A 
ATOM     11  C   UNL     1     -20.478  40.229  -8.091  0.00  0.00    +0.000 A 
ATOM     12  C   UNL     1     -18.546  40.150 -12.432  0.00  0.00    +0.000 A 
ATOM     13  C   UNL     1     -17.010  41.979 -13.168  0.00  0.00    +0.000 A 
ATOM     14  C   UNL     1     -20.029  42.075  -6.427  0.00  0.00    +0.000 C 
ATOM     15  C   UNL     1     -16.344  43.169 -12.914  0.00  0.00    +0.000 A 
ATOM     16  C   UNL     1     -16.525  43.752 -11.675  0.00  0.00    +0.000 A 
ENDROOT
TORSDOF 0
ENDMDL
MODEL 2
REMARK VINA RESULT:    -6.864      1.203      4.551
REMARK INTER + INTRA:          -6.864
REMARK INTER:                  -6.864
REMARK INTRA:                   0.000
REMARK UNBOUND:                 0.000
REMARK  Name = 354904
REMARK  1 active torsions:
REMARK  status: ('A' for Active; 'I' for Inactive)
REMARK    1  A    between atoms: C_9  and  C_14
REMARK                            x       y       z     vdW  Elec       q    Type
REMARK                         _______ _______ _______ _____ _____    ______ ____
ROOT
ATOM      1  O   UNL     1     -19.581  38.669 -11.144  0.00  0.00    +0.000 OA
ATOM      2  N   UNL     1     -17.752  42.249 -10.826  0.00  0.00    +0.000 N 
ATOM      3  N   UNL     1     -18.290  40.284 -12.115  0.00  0.00    +0.000 NA
ATOM      4  N   UNL     1     -18.574  42.494  -8.549  0.00  0.00    +0.000 NA
ATOM      5  C   UNL     1     -18.488  41.772  -9.698  0.00  0.00    +0.000 A 
ATOM      6  C   UNL     1     -17.712  41.446 -11.973  0.00  0.00    +0.000 A 
ATOM      7  C   UNL     1     -19.121  40.530  -9.811  0.00  0.00    +0.000 A 
ATOM      8  C   UNL     1     -17.086  43.468 -10.814  0.00  0.00    +0.000 A 
ATOM      9  C   UNL     1     -16.386  43.934 -11.865  0.00  0.00    +0.000 A 
ATOM     10  C   UNL     1     -16.939  41.935 -13.170  0.00  0.00    +0.000 A 
ATOM     11  C   UNL     1     -16.325  43.125 -13.072  0.00  0.00    +0.000 A 
ATOM     12  C   UNL     1     -19.017  39.756 -11.072  0.00  0.00    +0.000 A 
ATOM     13  C   UNL     1     -19.850  40.025  -8.731  0.00  0.00    +0.000 A 
ATOM     14  C   UNL     1     -15.664  45.243 -11.865  0.00  0.00    +0.000 C 
ATOM     15  C   UNL     1     -19.936  40.763  -7.560  0.00  0.00    +0.000 A 
ATOM     16  C   UNL     1     -19.286  41.981  -7.520  0.00  0.00    +0.000 A 
ENDROOT
TORSDOF 0
ENDMDL
MODEL 3
REMARK VINA RESULT:    -6.061      3.423      4.799
REMARK INTER + INTRA:          -6.061
REMARK INTER:                  -6.061
REMARK INTRA:                   0.000
REMARK UNBOUND:                 0.000
REMARK  Name = 354904
REMARK  1 active torsions:
REMARK  status: ('A' for Active; 'I' for Inactive)
REMARK    1  A    between atoms: C_9  and  C_14
REMARK                            x       y       z     vdW  Elec       q    Type
REMARK                         _______ _______ _______ _____ _____    ______ ____
ROOT
ATOM      1  O   UNL     1     -17.442  46.472 -14.075  0.00  0.00    +0.000 OA
ATOM      2  N   UNL     1     -18.823  42.864 -12.918  0.00  0.00    +0.000 N 
ATOM      3  N   UNL     1     -17.500  44.832 -12.485  0.00  0.00    +0.000 NA
ATOM      4  N   UNL     1     -20.062  42.644 -15.000  0.00  0.00    +0.000 NA
ATOM      5  C   UNL     1     -19.233  43.359 -14.193  0.00  0.00    +0.000 A 
ATOM      6  C   UNL     1     -17.967  43.661 -12.146  0.00  0.00    +0.000 A 
ATOM      7  C   UNL     1     -18.753  44.610 -14.593  0.00  0.00    +0.000 A 
ATOM      8  C   UNL     1     -19.242  41.632 -12.431  0.00  0.00    +0.000 A 
ATOM      9  C   UNL     1     -18.865  41.147 -11.234  0.00  0.00    +0.000 A 
ATOM     10  C   UNL     1     -17.525  43.152 -10.800  0.00  0.00    +0.000 A 
ATOM     11  C   UNL     1     -17.977  41.951 -10.408  0.00  0.00    +0.000 A 
ATOM     12  C   UNL     1     -17.850  45.376 -13.701  0.00  0.00    +0.000 A 
ATOM     13  C   UNL     1     -19.128  45.131 -15.834  0.00  0.00    +0.000 A 
ATOM     14  C   UNL     1     -19.307  39.824 -10.699  0.00  0.00    +0.000 C 
ATOM     15  C   UNL     1     -19.974  44.399 -16.654  0.00  0.00    +0.000 A 
ATOM     16  C   UNL     1     -20.409  43.172 -16.195  0.00  0.00    +0.000 A 
ENDROOT
TORSDOF 0
ENDMDL
MODEL 4
REMARK VINA RESULT:    -5.961      3.103      5.878
REMARK INTER + INTRA:          -5.961
REMARK INTER:                  -5.961
REMARK INTRA:                   0.000
REMARK UNBOUND:                 0.000
REMARK  Name = 354904
REMARK  1 active torsions:
REMARK  status: ('A' for Active; 'I' for Inactive)
REMARK    1  A    between atoms: C_9  and  C_14
REMARK                            x       y       z     vdW  Elec       q    Type
REMARK                         _______ _______ _______ _____ _____    ______ ____
ROOT
ATOM      1  O   UNL     1     -15.866  43.280 -11.245  0.00  0.00    +0.000 OA
ATOM      2  N   UNL     1     -18.792  42.860 -13.989  0.00  0.00    +0.000 N 
ATOM      3  N   UNL     1     -17.040  44.179 -12.987  0.00  0.00    +0.000 NA
ATOM      4  N   UNL     1     -19.285  40.628 -13.157  0.00  0.00    +0.000 NA
ATOM      5  C   UNL     1     -18.553  41.773 -13.095  0.00  0.00    +0.000 A 
ATOM      6  C   UNL     1     -17.995  44.006 -13.860  0.00  0.00    +0.000 A 
ATOM      7  C   UNL     1     -17.539  41.920 -12.144  0.00  0.00    +0.000 A 
ATOM      8  C   UNL     1     -19.778  42.814 -14.967  0.00  0.00    +0.000 A 
ATOM      9  C   UNL     1     -20.019  43.828 -15.817  0.00  0.00    +0.000 A 
ATOM     10  C   UNL     1     -18.235  45.161 -14.795  0.00  0.00    +0.000 A 
ATOM     11  C   UNL     1     -19.208  45.031 -15.710  0.00  0.00    +0.000 A 
ATOM     12  C   UNL     1     -16.751  43.175 -12.090  0.00  0.00    +0.000 A 
ATOM     13  C   UNL     1     -17.274  40.881 -11.248  0.00  0.00    +0.000 A 
ATOM     14  C   UNL     1     -21.076  43.791 -16.872  0.00  0.00    +0.000 C 
ATOM     15  C   UNL     1     -18.021  39.715 -11.314  0.00  0.00    +0.000 A 
ATOM     16  C   UNL     1     -19.007  39.639 -12.278  0.00  0.00    +0.000 A 
ENDROOT
TORSDOF 0
ENDMDL
MODEL 5
REMARK VINA RESULT:    -5.929      3.772      6.377
REMARK INTER + INTRA:          -5.929
REMARK INTER:                  -5.929
REMARK INTRA:                   0.000
REMARK UNBOUND:                 0.000
REMARK  Name = 354904
REMARK  1 active torsions:
REMARK  status: ('A' for Active; 'I' for Inactive)
REMARK    1  A    between atoms: C_9  and  C_14
REMARK                            x       y       z     vdW  Elec       q    Type
REMARK                         _______ _______ _______ _____ _____    ______ ____
ROOT
ATOM      1  O   UNL     1     -16.741  44.865 -11.658  0.00  0.00    +0.000 OA
ATOM      2  N   UNL     1     -19.314  43.482 -14.438  0.00  0.00    +0.000 N 
ATOM      3  N   UNL     1     -17.815  45.196 -13.647  0.00  0.00    +0.000 NA
ATOM      4  N   UNL     1     -19.664  41.454 -13.140  0.00  0.00    +0.000 NA
ATOM      5  C   UNL     1     -19.061  42.663 -13.296  0.00  0.00    +0.000 A 
ATOM      6  C   UNL     1     -18.653  44.714 -14.524  0.00  0.00    +0.000 A 
ATOM      7  C   UNL     1     -18.168  43.144 -12.333  0.00  0.00    +0.000 A 
ATOM      8  C   UNL     1     -20.185  43.095 -15.449  0.00  0.00    +0.000 A 
ATOM      9  C   UNL     1     -20.439  43.854 -16.531  0.00  0.00    +0.000 A 
ATOM     10  C   UNL     1     -18.911  45.590 -15.722  0.00  0.00    +0.000 A 
ATOM     11  C   UNL     1     -19.768  45.139 -16.651  0.00  0.00    +0.000 A 
ATOM     12  C   UNL     1     -17.520  44.465 -12.518  0.00  0.00    +0.000 A 
ATOM     13  C   UNL     1     -17.893  42.376 -11.199  0.00  0.00    +0.000 A 
ATOM     14  C   UNL     1     -21.374  43.450 -17.625  0.00  0.00    +0.000 C 
ATOM     15  C   UNL     1     -18.510  41.143 -11.043  0.00  0.00    +0.000 A 
ATOM     16  C   UNL     1     -19.379  40.731 -12.034  0.00  0.00    +0.000 A 
ENDROOT
TORSDOF 0
ENDMDL
