MODEL 1
REMARK VINA RESULT:    -6.402      0.000      0.000
REMARK INTER + INTRA:          -9.581
REMARK INTER:                  -9.022
REMARK INTRA:                  -0.560
REMARK UNBOUND:                -0.560
REMARK  Name = 36545212
REMARK  8 active torsions:
REMARK  status: ('A' for Active; 'I' for Inactive)
REMARK    1  A    between atoms: N_2  and  C_8
REMARK    2  A    between atoms: N_2  and  C_11
REMARK    3  A    between atoms: C_5  and  C_6
REMARK    4  A    between atoms: C_5  and  C_7
REMARK    5  A    between atoms: C_6  and  C_8
REMARK    6  A    between atoms: C_7  and  C_9
REMARK    7  A    between atoms: C_9  and  C_10
REMARK    8  A    between atoms: C_12  and  C_14
REMARK                            x       y       z     vdW  Elec       q    Type
REMARK                         _______ _______ _______ _____ _____    ______ ____
ROOT
ATOM      1  N   UNL     1     -17.709  43.302 -10.628  0.00  0.00    +0.000 NA
ATOM      2  C   UNL     1     -17.760  42.034 -11.095  0.00  0.00    +0.000 A 
ATOM      3  C   UNL     1     -17.784  41.703 -12.440  0.00  0.00    +0.000 A 
ATOM      4  C   UNL     1     -17.754  42.740 -13.365  0.00  0.00    +0.000 A 
ATOM      5  C   UNL     1     -17.701  44.057 -12.924  0.00  0.00    +0.000 A 
ATOM      6  C   UNL     1     -17.681  44.283 -11.558  0.00  0.00    +0.000 A 
ENDROOT
BRANCH   3   9
ATOM      7  O   UNL     1     -18.927  39.737 -13.051  0.00  0.00    +0.000 OA
ATOM      8  N   UNL     1     -16.640  39.699 -13.219  0.00  0.00    +0.000 N 
ATOM      9  C   UNL     1     -17.842  40.327 -12.912  0.00  0.00    +0.000 C 
ATOM     10  H   UNL     1     -15.745  40.167 -13.118  0.00  0.00    +0.000 HD
ATOM     11  H   UNL     1     -16.622  38.742 -13.558  0.00  0.00    +0.000 HD
ENDBRANCH   3   9
BRANCH   2  12
ATOM     12  N   UNL     1     -17.792  41.006 -10.165  0.00  0.00    +0.000 N 
ATOM     13  H   UNL     1     -17.038  40.329 -10.214  0.00  0.00    +0.000 HD
BRANCH  12  14
ATOM     14  C   UNL     1     -18.989  40.586  -9.475  0.00  0.00    +0.000 C 
BRANCH  14  15
ATOM     15  C   UNL     1     -18.856  40.815  -7.972  0.00  0.00    +0.000 C 
BRANCH  15  16
ATOM     16  C   UNL     1     -20.012  41.639  -7.396  0.00  0.00    +0.000 C 
BRANCH  16  17
ATOM     17  C   UNL     1     -21.362  41.131  -7.909  0.00  0.00    +0.000 C 
BRANCH  17  18
ATOM     18  C   UNL     1     -22.553  41.652  -7.101  0.00  0.00    +0.000 C 
ATOM     19  C   UNL     1     -22.176  42.703  -6.069  0.00  0.00    +0.000 C 
ENDBRANCH  17  18
ENDBRANCH  16  17
ENDBRANCH  15  16
ENDBRANCH  14  15
ENDBRANCH  12  14
ENDBRANCH   2  12
TORSDOF 7
ENDMDL
MODEL 2
REMARK VINA RESULT:    -6.208      1.819      5.260
REMARK INTER + INTRA:          -9.308
REMARK INTER:                  -8.562
REMARK INTRA:                  -0.746
REMARK UNBOUND:                -0.560
REMARK  Name = 36545212
REMARK  8 active torsions:
REMARK  status: ('A' for Active; 'I' for Inactive)
REMARK    1  A    between atoms: N_2  and  C_8
REMARK    2  A    between atoms: N_2  and  C_11
REMARK    3  A    between atoms: C_5  and  C_6
REMARK    4  A    between atoms: C_5  and  C_7
REMARK    5  A    between atoms: C_6  and  C_8
REMARK    6  A    between atoms: C_7  and  C_9
REMARK    7  A    between atoms: C_9  and  C_10
REMARK    8  A    between atoms: C_12  and  C_14
REMARK                            x       y       z     vdW  Elec       q    Type
REMARK                         _______ _______ _______ _____ _____    ______ ____
ROOT
ATOM      1  N   UNL     1     -18.625  42.270  -8.309  0.00  0.00    +0.000 NA
ATOM      2  C   UNL     1     -18.423  41.599  -9.465  0.00  0.00    +0.000 A 
ATOM      3  C   UNL     1     -19.241  40.579  -9.924  0.00  0.00    +0.000 A 
ATOM      4  C   UNL     1     -20.337  40.225  -9.145  0.00  0.00    +0.000 A 
ATOM      5  C   UNL     1     -20.578  40.892  -7.950  0.00  0.00    +0.000 A 
ATOM      6  C   UNL     1     -19.700  41.897  -7.579  0.00  0.00    +0.000 A 
ENDROOT
BRANCH   3   9
ATOM      7  O   UNL     1     -17.971  39.189 -11.338  0.00  0.00    +0.000 OA
ATOM      8  N   UNL     1     -19.956  39.976 -12.173  0.00  0.00    +0.000 N 
ATOM      9  C   UNL     1     -18.995  39.873 -11.174  0.00  0.00    +0.000 C 
ATOM     10  H   UNL     1     -20.802  40.526 -12.054  0.00  0.00    +0.000 HD
ATOM     11  H   UNL     1     -19.839  39.500 -13.062  0.00  0.00    +0.000 HD
ENDBRANCH   3   9
BRANCH   2  12
ATOM     12  N   UNL     1     -17.327  41.957 -10.235  0.00  0.00    +0.000 N 
ATOM     13  H   UNL     1     -16.435  41.552  -9.968  0.00  0.00    +0.000 HD
BRANCH  12  14
ATOM     14  C   UNL     1     -17.273  43.148 -11.049  0.00  0.00    +0.000 C 
BRANCH  14  15
ATOM     15  C   UNL     1     -16.729  42.829 -12.439  0.00  0.00    +0.000 C 
BRANCH  15  16
ATOM     16  C   UNL     1     -17.821  42.360 -13.407  0.00  0.00    +0.000 C 
BRANCH  16  17
ATOM     17  C   UNL     1     -18.659  43.540 -13.907  0.00  0.00    +0.000 C 
BRANCH  17  18
ATOM     18  C   UNL     1     -19.975  43.115 -14.563  0.00  0.00    +0.000 C 
ATOM     19  C   UNL     1     -19.956  43.209 -16.081  0.00  0.00    +0.000 C 
ENDBRANCH  17  18
ENDBRANCH  16  17
ENDBRANCH  15  16
ENDBRANCH  14  15
ENDBRANCH  12  14
ENDBRANCH   2  12
TORSDOF 7
ENDMDL
MODEL 3
REMARK VINA RESULT:    -5.874      1.960      5.600
REMARK INTER + INTRA:          -8.838
REMARK INTER:                  -8.117
REMARK INTRA:                  -0.721
REMARK UNBOUND:                -0.560
REMARK  Name = 36545212
REMARK  8 active torsions:
REMARK  status: ('A' for Active; 'I' for Inactive)
REMARK    1  A    between atoms: N_2  and  C_8
REMARK    2  A    between atoms: N_2  and  C_11
REMARK    3  A    between atoms: C_5  and  C_6
REMARK    4  A    between atoms: C_5  and  C_7
REMARK    5  A    between atoms: C_6  and  C_8
REMARK    6  A    between atoms: C_7  and  C_9
REMARK    7  A    between atoms: C_9  and  C_10
REMARK    8  A    between atoms: C_12  and  C_14
REMARK                            x       y       z     vdW  Elec       q    Type
REMARK                         _______ _______ _______ _____ _____    ______ ____
ROOT
ATOM      1  N   UNL     1     -18.641  42.302  -8.213  0.00  0.00    +0.000 NA
ATOM      2  C   UNL     1     -18.473  41.666  -9.394  0.00  0.00    +0.000 A 
ATOM      3  C   UNL     1     -19.288  40.641  -9.847  0.00  0.00    +0.000 A 
ATOM      4  C   UNL     1     -20.343  40.243  -9.034  0.00  0.00    +0.000 A 
ATOM      5  C   UNL     1     -20.548  40.872  -7.811  0.00  0.00    +0.000 A 
ATOM      6  C   UNL     1     -19.677  41.886  -7.449  0.00  0.00    +0.000 A 
ENDROOT
BRANCH   3   9
ATOM      7  O   UNL     1     -18.154  39.160 -11.285  0.00  0.00    +0.000 OA
ATOM      8  N   UNL     1     -19.964  40.265 -12.156  0.00  0.00    +0.000 N 
ATOM      9  C   UNL     1     -19.080  39.974 -11.124  0.00  0.00    +0.000 C 
ATOM     10  H   UNL     1     -20.730  40.923 -12.042  0.00  0.00    +0.000 HD
ATOM     11  H   UNL     1     -19.869  39.825 -13.066  0.00  0.00    +0.000 HD
ENDBRANCH   3   9
BRANCH   2  12
ATOM     12  N   UNL     1     -17.417  42.068 -10.198  0.00  0.00    +0.000 N 
ATOM     13  H   UNL     1     -16.504  41.689  -9.968  0.00  0.00    +0.000 HD
BRANCH  12  14
ATOM     14  C   UNL     1     -17.430  43.270 -10.997  0.00  0.00    +0.000 C 
BRANCH  14  15
ATOM     15  C   UNL     1     -17.070  42.959 -12.447  0.00  0.00    +0.000 C 
BRANCH  15  16
ATOM     16  C   UNL     1     -15.662  43.436 -12.822  0.00  0.00    +0.000 C 
BRANCH  16  17
ATOM     17  C   UNL     1     -15.658  44.927 -13.167  0.00  0.00    +0.000 C 
BRANCH  17  18
ATOM     18  C   UNL     1     -14.977  45.795 -12.106  0.00  0.00    +0.000 C 
ATOM     19  C   UNL     1     -15.828  46.967 -11.641  0.00  0.00    +0.000 C 
ENDBRANCH  17  18
ENDBRANCH  16  17
ENDBRANCH  15  16
ENDBRANCH  14  15
ENDBRANCH  12  14
ENDBRANCH   2  12
TORSDOF 7
ENDMDL
MODEL 4
REMARK VINA RESULT:    -5.677      2.087      2.898
REMARK INTER + INTRA:          -8.560
REMARK INTER:                  -7.879
REMARK INTRA:                  -0.681
REMARK UNBOUND:                -0.560
REMARK  Name = 36545212
REMARK  8 active torsions:
REMARK  status: ('A' for Active; 'I' for Inactive)
REMARK    1  A    between atoms: N_2  and  C_8
REMARK    2  A    between atoms: N_2  and  C_11
REMARK    3  A    between atoms: C_5  and  C_6
REMARK    4  A    between atoms: C_5  and  C_7
REMARK    5  A    between atoms: C_6  and  C_8
REMARK    6  A    between atoms: C_7  and  C_9
REMARK    7  A    between atoms: C_9  and  C_10
REMARK    8  A    between atoms: C_12  and  C_14
REMARK                            x       y       z     vdW  Elec       q    Type
REMARK                         _______ _______ _______ _____ _____    ______ ____
ROOT
ATOM      1  N   UNL     1     -19.063  41.772 -13.798  0.00  0.00    +0.000 NA
ATOM      2  C   UNL     1     -17.884  41.878 -13.146  0.00  0.00    +0.000 A 
ATOM      3  C   UNL     1     -17.172  43.060 -13.017  0.00  0.00    +0.000 A 
ATOM      4  C   UNL     1     -17.707  44.207 -13.594  0.00  0.00    +0.000 A 
ATOM      5  C   UNL     1     -18.918  44.138 -14.272  0.00  0.00    +0.000 A 
ATOM      6  C   UNL     1     -19.551  42.908 -14.346  0.00  0.00    +0.000 A 
ENDROOT
BRANCH   3   9
ATOM      7  O   UNL     1     -15.807  42.826 -11.112  0.00  0.00    +0.000 OA
ATOM      8  N   UNL     1     -14.791  43.572 -13.027  0.00  0.00    +0.000 N 
ATOM      9  C   UNL     1     -15.902  43.143 -12.310  0.00  0.00    +0.000 C 
ATOM     10  H   UNL     1     -14.848  43.828 -14.008  0.00  0.00    +0.000 HD
ATOM     11  H   UNL     1     -13.879  43.642 -12.586  0.00  0.00    +0.000 HD
ENDBRANCH   3   9
BRANCH   2  12
ATOM     12  N   UNL     1     -17.357  40.730 -12.576  0.00  0.00    +0.000 N 
ATOM     13  H   UNL     1     -16.692  40.209 -13.139  0.00  0.00    +0.000 HD
BRANCH  12  14
ATOM     14  C   UNL     1     -17.988  40.008 -11.498  0.00  0.00    +0.000 C 
BRANCH  14  15
ATOM     15  C   UNL     1     -18.952  40.911 -10.733  0.00  0.00    +0.000 C 
BRANCH  15  16
ATOM     16  C   UNL     1     -18.386  41.372  -9.386  0.00  0.00    +0.000 C 
BRANCH  16  17
ATOM     17  C   UNL     1     -19.181  40.779  -8.220  0.00  0.00    +0.000 C 
BRANCH  17  18
ATOM     18  C   UNL     1     -20.684  40.688  -8.494  0.00  0.00    +0.000 C 
ATOM     19  C   UNL     1     -21.526  41.539  -7.556  0.00  0.00    +0.000 C 
ENDBRANCH  17  18
ENDBRANCH  16  17
ENDBRANCH  15  16
ENDBRANCH  14  15
ENDBRANCH  12  14
ENDBRANCH   2  12
TORSDOF 7
ENDMDL
MODEL 5
REMARK VINA RESULT:    -5.519      3.225      4.316
REMARK INTER + INTRA:          -8.337
REMARK INTER:                  -7.802
REMARK INTRA:                  -0.535
REMARK UNBOUND:                -0.560
REMARK  Name = 36545212
REMARK  8 active torsions:
REMARK  status: ('A' for Active; 'I' for Inactive)
REMARK    1  A    between atoms: N_2  and  C_8
REMARK    2  A    between atoms: N_2  and  C_11
REMARK    3  A    between atoms: C_5  and  C_6
REMARK    4  A    between atoms: C_5  and  C_7
REMARK    5  A    between atoms: C_6  and  C_8
REMARK    6  A    between atoms: C_7  and  C_9
REMARK    7  A    between atoms: C_9  and  C_10
REMARK    8  A    between atoms: C_12  and  C_14
REMARK                            x       y       z     vdW  Elec       q    Type
REMARK                         _______ _______ _______ _____ _____    ______ ____
ROOT
ATOM      1  N   UNL     1     -18.218  44.086 -13.692  0.00  0.00    +0.000 NA
ATOM      2  C   UNL     1     -19.162  43.425 -14.398  0.00  0.00    +0.000 A 
ATOM      3  C   UNL     1     -19.694  43.875 -15.595  0.00  0.00    +0.000 A 
ATOM      4  C   UNL     1     -19.227  45.083 -16.100  0.00  0.00    +0.000 A 
ATOM      5  C   UNL     1     -18.256  45.793 -15.404  0.00  0.00    +0.000 A 
ATOM      6  C   UNL     1     -17.789  45.257 -14.215  0.00  0.00    +0.000 A 
ENDROOT
BRANCH   3   9
ATOM      7  O   UNL     1     -20.416  42.179 -17.062  0.00  0.00    +0.000 OA
ATOM      8  N   UNL     1     -22.036  43.537 -16.174  0.00  0.00    +0.000 N 
ATOM      9  C   UNL     1     -20.713  43.140 -16.331  0.00  0.00    +0.000 C 
ATOM     10  H   UNL     1     -22.299  44.315 -15.577  0.00  0.00    +0.000 HD
ATOM     11  H   UNL     1     -22.788  43.057 -16.659  0.00  0.00    +0.000 HD
ENDBRANCH   3   9
BRANCH   2  12
ATOM     12  N   UNL     1     -19.625  42.222 -13.885  0.00  0.00    +0.000 N 
ATOM     13  H   UNL     1     -20.494  41.870 -14.272  0.00  0.00    +0.000 HD
BRANCH  12  14
ATOM     14  C   UNL     1     -19.235  41.696 -12.599  0.00  0.00    +0.000 C 
BRANCH  14  15
ATOM     15  C   UNL     1     -18.704  40.271 -12.735  0.00  0.00    +0.000 C 
BRANCH  15  16
ATOM     16  C   UNL     1     -19.058  39.392 -11.531  0.00  0.00    +0.000 C 
BRANCH  16  17
ATOM     17  C   UNL     1     -18.709  40.092 -10.215  0.00  0.00    +0.000 C 
BRANCH  17  18
ATOM     18  C   UNL     1     -19.871  40.130  -9.220  0.00  0.00    +0.000 C 
ATOM     19  C   UNL     1     -19.521  40.799  -7.900  0.00  0.00    +0.000 C 
ENDBRANCH  17  18
ENDBRANCH  16  17
ENDBRANCH  15  16
ENDBRANCH  14  15
ENDBRANCH  12  14
ENDBRANCH   2  12
TORSDOF 7
ENDMDL
