MODEL 1
REMARK VINA RESULT:    -6.311      0.000      0.000
REMARK INTER + INTRA:          -8.811
REMARK INTER:                  -8.155
REMARK INTRA:                  -0.656
REMARK UNBOUND:                -0.656
REMARK  Name = 36832583
REMARK  8 active torsions:
REMARK  status: ('A' for Active; 'I' for Inactive)
REMARK    1  A    between atoms: N_2  and  C_7
REMARK    2  A    between atoms: N_2  and  C_11
REMARK    3  A    between atoms: C_5  and  C_6
REMARK    4  A    between atoms: C_5  and  C_8
REMARK    5  A    between atoms: C_5  and  C_9
REMARK    6  A    between atoms: C_5  and  C_10
REMARK    7  A    between atoms: C_6  and  C_7
REMARK    8  A    between atoms: C_12  and  C_14
REMARK                            x       y       z     vdW  Elec       q    Type
REMARK                         _______ _______ _______ _____ _____    ______ ____
ROOT
ATOM      1  N   UNL     1     -18.499  42.226  -8.290  0.00  0.00    +0.000 NA
ATOM      2  C   UNL     1     -18.425  41.572  -9.471  0.00  0.00    +0.000 A 
ATOM      3  C   UNL     1     -19.382  40.679  -9.924  0.00  0.00    +0.000 A 
ATOM      4  C   UNL     1     -20.486  40.441  -9.113  0.00  0.00    +0.000 A 
ATOM      5  C   UNL     1     -19.587  41.970  -7.529  0.00  0.00    +0.000 A 
ATOM      6  C   UNL     1     -20.598  41.095  -7.891  0.00  0.00    +0.000 A 
ENDROOT
BRANCH   3   9
ATOM      7  O   UNL     1     -18.533  38.998 -11.339  0.00  0.00    +0.000 OA
ATOM      8  N   UNL     1     -20.044  40.458 -12.259  0.00  0.00    +0.000 N 
ATOM      9  C   UNL     1     -19.273  39.986 -11.201  0.00  0.00    +0.000 C 
ATOM     10  H   UNL     1     -20.661  41.258 -12.162  0.00  0.00    +0.000 HD
ATOM     11  H   UNL     1     -20.012  40.009 -13.169  0.00  0.00    +0.000 HD
ENDBRANCH   3   9
BRANCH   2  12
ATOM     12  N   UNL     1     -17.320  41.811 -10.272  0.00  0.00    +0.000 N 
ATOM     13  H   UNL     1     -16.564  41.135 -10.228  0.00  0.00    +0.000 HD
BRANCH  12  14
ATOM     14  C   UNL     1     -17.003  43.104 -10.833  0.00  0.00    +0.000 C 
BRANCH  14  15
ATOM     15  C   UNL     1     -17.639  43.229 -12.219  0.00  0.00    +0.000 C 
BRANCH  15  16
ATOM     16  C   UNL     1     -17.548  44.632 -12.877  0.00  0.00    +0.000 C 
ATOM     17  C   UNL     1     -17.773  45.747 -11.843  0.00  0.00    +0.000 C 
ATOM     18  C   UNL     1     -16.136  44.794 -13.471  0.00  0.00    +0.000 C 
ATOM     19  C   UNL     1     -18.575  44.780 -14.012  0.00  0.00    +0.000 C 
ENDBRANCH  15  16
ENDBRANCH  14  15
ENDBRANCH  12  14
ENDBRANCH   2  12
TORSDOF 5
ENDMDL
MODEL 2
REMARK VINA RESULT:    -5.500      3.191      5.006
REMARK INTER + INTRA:          -7.763
REMARK INTER:                  -7.137
REMARK INTRA:                  -0.626
REMARK UNBOUND:                -0.656
REMARK  Name = 36832583
REMARK  8 active torsions:
REMARK  status: ('A' for Active; 'I' for Inactive)
REMARK    1  A    between atoms: N_2  and  C_7
REMARK    2  A    between atoms: N_2  and  C_11
REMARK    3  A    between atoms: C_5  and  C_6
REMARK    4  A    between atoms: C_5  and  C_8
REMARK    5  A    between atoms: C_5  and  C_9
REMARK    6  A    between atoms: C_5  and  C_10
REMARK    7  A    between atoms: C_6  and  C_7
REMARK    8  A    between atoms: C_12  and  C_14
REMARK                            x       y       z     vdW  Elec       q    Type
REMARK                         _______ _______ _______ _____ _____    ______ ____
ROOT
ATOM      1  N   UNL     1     -18.842  44.523 -13.480  0.00  0.00    +0.000 NA
ATOM      2  C   UNL     1     -19.173  43.214 -13.444  0.00  0.00    +0.000 A 
ATOM      3  C   UNL     1     -18.705  42.321 -12.492  0.00  0.00    +0.000 A 
ATOM      4  C   UNL     1     -17.842  42.805 -11.516  0.00  0.00    +0.000 A 
ATOM      5  C   UNL     1     -18.000  44.957 -12.515  0.00  0.00    +0.000 A 
ATOM      6  C   UNL     1     -17.477  44.147 -11.521  0.00  0.00    +0.000 A 
ENDROOT
BRANCH   3   9
ATOM      7  O   UNL     1     -18.729  40.145 -13.392  0.00  0.00    +0.000 OA
ATOM      8  N   UNL     1     -19.825  40.452 -11.400  0.00  0.00    +0.000 N 
ATOM      9  C   UNL     1     -19.078  40.914 -12.481  0.00  0.00    +0.000 C 
ATOM     10  H   UNL     1     -20.112  41.063 -10.643  0.00  0.00    +0.000 HD
ATOM     11  H   UNL     1     -20.106  39.479 -11.338  0.00  0.00    +0.000 HD
ENDBRANCH   3   9
BRANCH   2  12
ATOM     12  N   UNL     1     -20.032  42.739 -14.422  0.00  0.00    +0.000 N 
ATOM     13  H   UNL     1     -20.597  41.929 -14.185  0.00  0.00    +0.000 HD
BRANCH  12  14
ATOM     14  C   UNL     1     -19.894  43.046 -15.826  0.00  0.00    +0.000 C 
BRANCH  14  15
ATOM     15  C   UNL     1     -21.281  43.151 -16.464  0.00  0.00    +0.000 C 
BRANCH  15  16
ATOM     16  C   UNL     1     -21.521  44.403 -17.351  0.00  0.00    +0.000 C 
ATOM     17  C   UNL     1     -22.930  44.976 -17.132  0.00  0.00    +0.000 C 
ATOM     18  C   UNL     1     -20.489  45.476 -16.956  0.00  0.00    +0.000 C 
ATOM     19  C   UNL     1     -21.335  44.071 -18.841  0.00  0.00    +0.000 C 
ENDBRANCH  15  16
ENDBRANCH  14  15
ENDBRANCH  12  14
ENDBRANCH   2  12
TORSDOF 5
ENDMDL
MODEL 3
REMARK VINA RESULT:    -5.356      3.196      6.276
REMARK INTER + INTRA:          -7.577
REMARK INTER:                  -7.004
REMARK INTRA:                  -0.574
REMARK UNBOUND:                -0.656
REMARK  Name = 36832583
REMARK  8 active torsions:
REMARK  status: ('A' for Active; 'I' for Inactive)
REMARK    1  A    between atoms: N_2  and  C_7
REMARK    2  A    between atoms: N_2  and  C_11
REMARK    3  A    between atoms: C_5  and  C_6
REMARK    4  A    between atoms: C_5  and  C_8
REMARK    5  A    between atoms: C_5  and  C_9
REMARK    6  A    between atoms: C_5  and  C_10
REMARK    7  A    between atoms: C_6  and  C_7
REMARK    8  A    between atoms: C_12  and  C_14
REMARK                            x       y       z     vdW  Elec       q    Type
REMARK                         _______ _______ _______ _____ _____    ______ ____
ROOT
ATOM      1  N   UNL     1     -18.720  44.483 -13.672  0.00  0.00    +0.000 NA
ATOM      2  C   UNL     1     -19.190  43.682 -14.654  0.00  0.00    +0.000 A 
ATOM      3  C   UNL     1     -19.406  44.098 -15.958  0.00  0.00    +0.000 A 
ATOM      4  C   UNL     1     -19.120  45.421 -16.274  0.00  0.00    +0.000 A 
ATOM      5  C   UNL     1     -18.453  45.763 -14.017  0.00  0.00    +0.000 A 
ATOM      6  C   UNL     1     -18.634  46.276 -15.290  0.00  0.00    +0.000 A 
ENDROOT
BRANCH   3   9
ATOM      7  O   UNL     1     -20.960  42.558 -16.829  0.00  0.00    +0.000 OA
ATOM      8  N   UNL     1     -19.206  43.137 -18.188  0.00  0.00    +0.000 N 
ATOM      9  C   UNL     1     -19.917  43.212 -16.994  0.00  0.00    +0.000 C 
ATOM     10  H   UNL     1     -18.356  43.670 -18.345  0.00  0.00    +0.000 HD
ATOM     11  H   UNL     1     -19.520  42.540 -18.947  0.00  0.00    +0.000 HD
ENDBRANCH   3   9
BRANCH   2  12
ATOM     12  N   UNL     1     -19.475  42.365 -14.330  0.00  0.00    +0.000 N 
ATOM     13  H   UNL     1     -20.420  42.040 -14.512  0.00  0.00    +0.000 HD
BRANCH  12  14
ATOM     14  C   UNL     1     -18.682  41.575 -13.418  0.00  0.00    +0.000 C 
BRANCH  14  15
ATOM     15  C   UNL     1     -19.544  41.152 -12.226  0.00  0.00    +0.000 C 
BRANCH  15  16
ATOM     16  C   UNL     1     -18.767  40.755 -10.942  0.00  0.00    +0.000 C 
ATOM     17  C   UNL     1     -17.683  39.709 -11.250  0.00  0.00    +0.000 C 
ATOM     18  C   UNL     1     -18.084  42.017 -10.383  0.00  0.00    +0.000 C 
ATOM     19  C   UNL     1     -19.717  40.198  -9.869  0.00  0.00    +0.000 C 
ENDBRANCH  15  16
ENDBRANCH  14  15
ENDBRANCH  12  14
ENDBRANCH   2  12
TORSDOF 5
ENDMDL
MODEL 4
REMARK VINA RESULT:    -4.730      4.137      7.073
REMARK INTER + INTRA:          -6.769
REMARK INTER:                  -6.129
REMARK INTRA:                  -0.640
REMARK UNBOUND:                -0.656
REMARK  Name = 36832583
REMARK  8 active torsions:
REMARK  status: ('A' for Active; 'I' for Inactive)
REMARK    1  A    between atoms: N_2  and  C_7
REMARK    2  A    between atoms: N_2  and  C_11
REMARK    3  A    between atoms: C_5  and  C_6
REMARK    4  A    between atoms: C_5  and  C_8
REMARK    5  A    between atoms: C_5  and  C_9
REMARK    6  A    between atoms: C_5  and  C_10
REMARK    7  A    between atoms: C_6  and  C_7
REMARK    8  A    between atoms: C_12  and  C_14
REMARK                            x       y       z     vdW  Elec       q    Type
REMARK                         _______ _______ _______ _____ _____    ______ ____
ROOT
ATOM      1  N   UNL     1     -18.913  45.839 -17.605  0.00  0.00    +0.000 NA
ATOM      2  C   UNL     1     -19.623  45.172 -16.668  0.00  0.00    +0.000 A 
ATOM      3  C   UNL     1     -20.519  44.155 -16.951  0.00  0.00    +0.000 A 
ATOM      4  C   UNL     1     -20.700  43.799 -18.283  0.00  0.00    +0.000 A 
ATOM      5  C   UNL     1     -19.115  45.465 -18.889  0.00  0.00    +0.000 A 
ATOM      6  C   UNL     1     -19.988  44.462 -19.276  0.00  0.00    +0.000 A 
ENDROOT
BRANCH   3   9
ATOM      7  O   UNL     1     -20.720  42.655 -15.146  0.00  0.00    +0.000 OA
ATOM      8  N   UNL     1     -22.631  43.734 -15.810  0.00  0.00    +0.000 N 
ATOM      9  C   UNL     1     -21.272  43.457 -15.918  0.00  0.00    +0.000 C 
ATOM     10  H   UNL     1     -23.098  44.392 -16.426  0.00  0.00    +0.000 HD
ATOM     11  H   UNL     1     -23.202  43.281 -15.104  0.00  0.00    +0.000 HD
ENDBRANCH   3   9
BRANCH   2  12
ATOM     12  N   UNL     1     -19.439  45.535 -15.343  0.00  0.00    +0.000 N 
ATOM     13  H   UNL     1     -20.089  46.213 -14.957  0.00  0.00    +0.000 HD
BRANCH  12  14
ATOM     14  C   UNL     1     -18.204  45.337 -14.622  0.00  0.00    +0.000 C 
BRANCH  14  15
ATOM     15  C   UNL     1     -18.488  44.594 -13.315  0.00  0.00    +0.000 C 
BRANCH  15  16
ATOM     16  C   UNL     1     -17.278  44.431 -12.357  0.00  0.00    +0.000 C 
ATOM     17  C   UNL     1     -16.011  44.024 -13.127  0.00  0.00    +0.000 C 
ATOM     18  C   UNL     1     -17.020  45.786 -11.671  0.00  0.00    +0.000 C 
ATOM     19  C   UNL     1     -17.568  43.381 -11.270  0.00  0.00    +0.000 C 
ENDBRANCH  15  16
ENDBRANCH  14  15
ENDBRANCH  12  14
ENDBRANCH   2  12
TORSDOF 5
ENDMDL
MODEL 5
REMARK VINA RESULT:    -4.618      3.216      4.463
REMARK INTER + INTRA:          -6.624
REMARK INTER:                  -6.004
REMARK INTRA:                  -0.620
REMARK UNBOUND:                -0.656
REMARK  Name = 36832583
REMARK  8 active torsions:
REMARK  status: ('A' for Active; 'I' for Inactive)
REMARK    1  A    between atoms: N_2  and  C_7
REMARK    2  A    between atoms: N_2  and  C_11
REMARK    3  A    between atoms: C_5  and  C_6
REMARK    4  A    between atoms: C_5  and  C_8
REMARK    5  A    between atoms: C_5  and  C_9
REMARK    6  A    between atoms: C_5  and  C_10
REMARK    7  A    between atoms: C_6  and  C_7
REMARK    8  A    between atoms: C_12  and  C_14
REMARK                            x       y       z     vdW  Elec       q    Type
REMARK                         _______ _______ _______ _____ _____    ______ ____
ROOT
ATOM      1  N   UNL     1     -16.876  40.466 -11.492  0.00  0.00    +0.000 NA
ATOM      2  C   UNL     1     -17.071  41.607 -12.190  0.00  0.00    +0.000 A 
ATOM      3  C   UNL     1     -18.297  42.006 -12.698  0.00  0.00    +0.000 A 
ATOM      4  C   UNL     1     -19.393  41.181 -12.474  0.00  0.00    +0.000 A 
ATOM      5  C   UNL     1     -17.966  39.689 -11.295  0.00  0.00    +0.000 A 
ATOM      6  C   UNL     1     -19.233  39.999 -11.761  0.00  0.00    +0.000 A 
ENDROOT
BRANCH   3   9
ATOM      7  O   UNL     1     -18.280  44.350 -12.926  0.00  0.00    +0.000 OA
ATOM      8  N   UNL     1     -18.853  43.135 -14.784  0.00  0.00    +0.000 N 
ATOM      9  C   UNL     1     -18.475  43.241 -13.449  0.00  0.00    +0.000 C 
ATOM     10  H   UNL     1     -19.009  42.237 -15.231  0.00  0.00    +0.000 HD
ATOM     11  H   UNL     1     -18.985  43.963 -15.357  0.00  0.00    +0.000 HD
ENDBRANCH   3   9
BRANCH   2  12
ATOM     12  N   UNL     1     -15.973  42.422 -12.411  0.00  0.00    +0.000 N 
ATOM     13  H   UNL     1     -15.478  42.301 -13.289  0.00  0.00    +0.000 HD
BRANCH  12  14
ATOM     14  C   UNL     1     -15.268  43.118 -11.360  0.00  0.00    +0.000 C 
BRANCH  14  15
ATOM     15  C   UNL     1     -13.851  42.552 -11.235  0.00  0.00    +0.000 C 
BRANCH  15  16
ATOM     16  C   UNL     1     -12.746  43.581 -10.874  0.00  0.00    +0.000 C 
ATOM     17  C   UNL     1     -13.161  45.006 -11.274  0.00  0.00    +0.000 C 
ATOM     18  C   UNL     1     -12.534  43.544  -9.349  0.00  0.00    +0.000 C 
ATOM     19  C   UNL     1     -11.415  43.230 -11.561  0.00  0.00    +0.000 C 
ENDBRANCH  15  16
ENDBRANCH  14  15
ENDBRANCH  12  14
ENDBRANCH   2  12
TORSDOF 5
ENDMDL
