MODEL 1
REMARK VINA RESULT:    -5.370      0.000      0.000
REMARK INTER + INTRA:          -5.677
REMARK INTER:                  -5.998
REMARK INTRA:                   0.321
REMARK UNBOUND:                 0.321
REMARK  Name = 39543574
REMARK  7 active torsions:
REMARK  status: ('A' for Active; 'I' for Inactive)
REMARK    1  A    between atoms: N_2  and  C_5
REMARK    2  A    between atoms: N_3  and  C_15
REMARK    3  A    between atoms: N_3  and  C_16
REMARK    4  A    between atoms: C_5  and  C_6
REMARK    5  A    between atoms: C_5  and  C_7
REMARK    6  A    between atoms: C_5  and  C_8
REMARK    7  A    between atoms: C_9  and  C_10
REMARK                            x       y       z     vdW  Elec       q    Type
REMARK                         _______ _______ _______ _____ _____    ______ ____
ROOT
ATOM      1  N   UNL     1     -18.656  40.388 -11.207  0.00  0.00    +0.000 N 
ATOM      2  N   UNL     1     -19.168  41.419 -13.293  0.00  0.00    +0.000 NA
ATOM      3  C   UNL     1     -18.576  43.735 -13.651  0.00  0.00    +0.000 A 
ATOM      4  C   UNL     1     -18.039  43.803 -12.371  0.00  0.00    +0.000 A 
ATOM      5  C   UNL     1     -18.636  41.523 -12.054  0.00  0.00    +0.000 A 
ATOM      6  C   UNL     1     -19.124  42.531 -14.061  0.00  0.00    +0.000 A 
ATOM      7  C   UNL     1     -18.064  42.680 -11.551  0.00  0.00    +0.000 A 
ATOM      8  C   UNL     1     -18.095  40.464  -9.876  0.00  0.00    +0.000 C 
ATOM      9  C   UNL     1     -19.243  39.148 -11.665  0.00  0.00    +0.000 C 
ENDROOT
BRANCH   3  12
ATOM     10  O   UNL     1     -18.360  46.031 -14.077  0.00  0.00    +0.000 OA
ATOM     11  N   UNL     1     -18.763  44.647 -15.893  0.00  0.00    +0.000 N 
ATOM     12  C   UNL     1     -18.563  44.917 -14.552  0.00  0.00    +0.000 C 
ATOM     13  H   UNL     1     -18.863  43.690 -16.215  0.00  0.00    +0.000 HD
BRANCH  11  14
ATOM     14  C   UNL     1     -18.755  45.692 -16.901  0.00  0.00    +0.000 C 
ATOM     15  C   UNL     1     -19.866  46.701 -16.595  0.00  0.00    +0.000 C 
ATOM     16  C   UNL     1     -17.394  46.397 -16.881  0.00  0.00    +0.000 C 
ATOM     17  C   UNL     1     -18.995  45.066 -18.280  0.00  0.00    +0.000 C 
ENDBRANCH  11  14
ENDBRANCH   3  12
TORSDOF 2
ENDMDL
MODEL 2
REMARK VINA RESULT:    -5.026      2.396      3.233
REMARK INTER + INTRA:          -5.293
REMARK INTER:                  -5.588
REMARK INTRA:                   0.295
REMARK UNBOUND:                 0.321
REMARK  Name = 39543574
REMARK  7 active torsions:
REMARK  status: ('A' for Active; 'I' for Inactive)
REMARK    1  A    between atoms: N_2  and  C_5
REMARK    2  A    between atoms: N_3  and  C_15
REMARK    3  A    between atoms: N_3  and  C_16
REMARK    4  A    between atoms: C_5  and  C_6
REMARK    5  A    between atoms: C_5  and  C_7
REMARK    6  A    between atoms: C_5  and  C_8
REMARK    7  A    between atoms: C_9  and  C_10
REMARK                            x       y       z     vdW  Elec       q    Type
REMARK                         _______ _______ _______ _____ _____    ______ ____
ROOT
ATOM      1  N   UNL     1     -16.789  42.771 -11.951  0.00  0.00    +0.000 N 
ATOM      2  N   UNL     1     -18.591  41.989 -13.299  0.00  0.00    +0.000 NA
ATOM      3  C   UNL     1     -19.515  43.435 -15.002  0.00  0.00    +0.000 A 
ATOM      4  C   UNL     1     -18.610  44.432 -14.657  0.00  0.00    +0.000 A 
ATOM      5  C   UNL     1     -17.727  42.982 -12.991  0.00  0.00    +0.000 A 
ATOM      6  C   UNL     1     -19.466  42.242 -14.299  0.00  0.00    +0.000 A 
ATOM      7  C   UNL     1     -17.695  44.209 -13.634  0.00  0.00    +0.000 A 
ATOM      8  C   UNL     1     -15.850  43.811 -11.596  0.00  0.00    +0.000 C 
ATOM      9  C   UNL     1     -16.769  41.515 -11.233  0.00  0.00    +0.000 C 
ENDROOT
BRANCH   3  12
ATOM     10  O   UNL     1     -20.970  42.664 -16.672  0.00  0.00    +0.000 OA
ATOM     11  N   UNL     1     -20.843  44.956 -16.349  0.00  0.00    +0.000 N 
ATOM     12  C   UNL     1     -20.505  43.641 -16.091  0.00  0.00    +0.000 C 
ATOM     13  H   UNL     1     -20.460  45.706 -15.782  0.00  0.00    +0.000 HD
BRANCH  11  14
ATOM     14  C   UNL     1     -21.814  45.320 -17.366  0.00  0.00    +0.000 C 
ATOM     15  C   UNL     1     -21.376  44.739 -18.714  0.00  0.00    +0.000 C 
ATOM     16  C   UNL     1     -23.183  44.754 -16.977  0.00  0.00    +0.000 C 
ATOM     17  C   UNL     1     -21.892  46.848 -17.466  0.00  0.00    +0.000 C 
ENDBRANCH  11  14
ENDBRANCH   3  12
TORSDOF 2
ENDMDL
MODEL 3
REMARK VINA RESULT:    -4.970      2.168      2.925
REMARK INTER + INTRA:          -5.230
REMARK INTER:                  -5.531
REMARK INTRA:                   0.301
REMARK UNBOUND:                 0.321
REMARK  Name = 39543574
REMARK  7 active torsions:
REMARK  status: ('A' for Active; 'I' for Inactive)
REMARK    1  A    between atoms: N_2  and  C_5
REMARK    2  A    between atoms: N_3  and  C_15
REMARK    3  A    between atoms: N_3  and  C_16
REMARK    4  A    between atoms: C_5  and  C_6
REMARK    5  A    between atoms: C_5  and  C_7
REMARK    6  A    between atoms: C_5  and  C_8
REMARK    7  A    between atoms: C_9  and  C_10
REMARK                            x       y       z     vdW  Elec       q    Type
REMARK                         _______ _______ _______ _____ _____    ______ ____
ROOT
ATOM      1  N   UNL     1     -17.750  42.093 -11.573  0.00  0.00    +0.000 N 
ATOM      2  N   UNL     1     -17.695  43.851 -13.181  0.00  0.00    +0.000 NA
ATOM      3  C   UNL     1     -19.344  43.896 -14.948  0.00  0.00    +0.000 A 
ATOM      4  C   UNL     1     -19.922  42.734 -14.449  0.00  0.00    +0.000 A 
ATOM      5  C   UNL     1     -18.283  42.721 -12.725  0.00  0.00    +0.000 A 
ATOM      6  C   UNL     1     -18.242  44.410 -14.284  0.00  0.00    +0.000 A 
ATOM      7  C   UNL     1     -19.387  42.129 -13.316  0.00  0.00    +0.000 A 
ATOM      8  C   UNL     1     -18.354  40.885 -11.058  0.00  0.00    +0.000 C 
ATOM      9  C   UNL     1     -16.593  42.653 -10.908  0.00  0.00    +0.000 C 
ENDROOT
BRANCH   3  12
ATOM     10  O   UNL     1     -19.118  45.076 -16.961  0.00  0.00    +0.000 OA
ATOM     11  N   UNL     1     -21.269  44.539 -16.281  0.00  0.00    +0.000 N 
ATOM     12  C   UNL     1     -19.892  44.567 -16.155  0.00  0.00    +0.000 C 
ATOM     13  H   UNL     1     -21.836  44.044 -15.601  0.00  0.00    +0.000 HD
BRANCH  11  14
ATOM     14  C   UNL     1     -21.953  45.130 -17.417  0.00  0.00    +0.000 C 
ATOM     15  C   UNL     1     -21.608  46.621 -17.497  0.00  0.00    +0.000 C 
ATOM     16  C   UNL     1     -21.500  44.423 -18.699  0.00  0.00    +0.000 C 
ATOM     17  C   UNL     1     -23.467  44.962 -17.238  0.00  0.00    +0.000 C 
ENDBRANCH  11  14
ENDBRANCH   3  12
TORSDOF 2
ENDMDL
MODEL 4
REMARK VINA RESULT:    -4.949      2.063      6.560
REMARK INTER + INTRA:          -5.206
REMARK INTER:                  -5.563
REMARK INTRA:                   0.356
REMARK UNBOUND:                 0.321
REMARK  Name = 39543574
REMARK  7 active torsions:
REMARK  status: ('A' for Active; 'I' for Inactive)
REMARK    1  A    between atoms: N_2  and  C_5
REMARK    2  A    between atoms: N_3  and  C_15
REMARK    3  A    between atoms: N_3  and  C_16
REMARK    4  A    between atoms: C_5  and  C_6
REMARK    5  A    between atoms: C_5  and  C_7
REMARK    6  A    between atoms: C_5  and  C_8
REMARK    7  A    between atoms: C_9  and  C_10
REMARK                            x       y       z     vdW  Elec       q    Type
REMARK                         _______ _______ _______ _____ _____    ______ ____
ROOT
ATOM      1  N   UNL     1     -20.077  46.193 -17.767  0.00  0.00    +0.000 N 
ATOM      2  N   UNL     1     -19.014  45.594 -15.720  0.00  0.00    +0.000 NA
ATOM      3  C   UNL     1     -19.299  43.359 -14.843  0.00  0.00    +0.000 A 
ATOM      4  C   UNL     1     -20.103  43.028 -15.928  0.00  0.00    +0.000 A 
ATOM      5  C   UNL     1     -19.801  45.236 -16.760  0.00  0.00    +0.000 A 
ATOM      6  C   UNL     1     -18.784  44.644 -14.786  0.00  0.00    +0.000 A 
ATOM      7  C   UNL     1     -20.364  43.978 -16.909  0.00  0.00    +0.000 A 
ATOM      8  C   UNL     1     -20.913  45.843 -18.893  0.00  0.00    +0.000 C 
ATOM      9  C   UNL     1     -19.528  47.528 -17.672  0.00  0.00    +0.000 C 
ENDROOT
BRANCH   3  12
ATOM     10  O   UNL     1     -19.843  41.518 -13.497  0.00  0.00    +0.000 OA
ATOM     11  N   UNL     1     -17.752  42.474 -13.195  0.00  0.00    +0.000 N 
ATOM     12  C   UNL     1     -19.001  42.366 -13.779  0.00  0.00    +0.000 C 
ATOM     13  H   UNL     1     -17.088  43.166 -13.527  0.00  0.00    +0.000 HD
BRANCH  11  14
ATOM     14  C   UNL     1     -17.303  41.563 -12.157  0.00  0.00    +0.000 C 
ATOM     15  C   UNL     1     -17.075  40.176 -12.765  0.00  0.00    +0.000 C 
ATOM     16  C   UNL     1     -15.993  42.090 -11.560  0.00  0.00    +0.000 C 
ATOM     17  C   UNL     1     -18.374  41.475 -11.064  0.00  0.00    +0.000 C 
ENDBRANCH  11  14
ENDBRANCH   3  12
TORSDOF 2
ENDMDL
MODEL 5
REMARK VINA RESULT:    -4.809      2.699      6.263
REMARK INTER + INTRA:          -5.051
REMARK INTER:                  -5.390
REMARK INTRA:                   0.339
REMARK UNBOUND:                 0.321
REMARK  Name = 39543574
REMARK  7 active torsions:
REMARK  status: ('A' for Active; 'I' for Inactive)
REMARK    1  A    between atoms: N_2  and  C_5
REMARK    2  A    between atoms: N_3  and  C_15
REMARK    3  A    between atoms: N_3  and  C_16
REMARK    4  A    between atoms: C_5  and  C_6
REMARK    5  A    between atoms: C_5  and  C_7
REMARK    6  A    between atoms: C_5  and  C_8
REMARK    7  A    between atoms: C_9  and  C_10
REMARK                            x       y       z     vdW  Elec       q    Type
REMARK                         _______ _______ _______ _____ _____    ______ ____
ROOT
ATOM      1  N   UNL     1     -17.700  48.294 -12.827  0.00  0.00    +0.000 N 
ATOM      2  N   UNL     1     -18.354  46.360 -14.055  0.00  0.00    +0.000 NA
ATOM      3  C   UNL     1     -18.254  44.190 -12.994  0.00  0.00    +0.000 A 
ATOM      4  C   UNL     1     -17.783  44.775 -11.824  0.00  0.00    +0.000 A 
ATOM      5  C   UNL     1     -17.894  46.893 -12.901  0.00  0.00    +0.000 A 
ATOM      6  C   UNL     1     -18.521  45.018 -14.072  0.00  0.00    +0.000 A 
ATOM      7  C   UNL     1     -17.598  46.152 -11.768  0.00  0.00    +0.000 A 
ATOM      8  C   UNL     1     -17.211  48.898 -11.608  0.00  0.00    +0.000 C 
ATOM      9  C   UNL     1     -17.983  49.129 -13.975  0.00  0.00    +0.000 C 
ENDROOT
BRANCH   3  12
ATOM     10  O   UNL     1     -18.978  42.251 -14.098  0.00  0.00    +0.000 OA
ATOM     11  N   UNL     1     -18.026  41.987 -12.000  0.00  0.00    +0.000 N 
ATOM     12  C   UNL     1     -18.463  42.722 -13.087  0.00  0.00    +0.000 C 
ATOM     13  H   UNL     1     -17.554  42.444 -11.227  0.00  0.00    +0.000 HD
BRANCH  11  14
ATOM     14  C   UNL     1     -18.138  40.540 -11.950  0.00  0.00    +0.000 C 
ATOM     15  C   UNL     1     -17.110  39.919 -12.901  0.00  0.00    +0.000 C 
ATOM     16  C   UNL     1     -17.873  40.066 -10.517  0.00  0.00    +0.000 C 
ATOM     17  C   UNL     1     -19.551  40.127 -12.380  0.00  0.00    +0.000 C 
ENDBRANCH  11  14
ENDBRANCH   3  12
TORSDOF 2
ENDMDL
