MODEL 1
REMARK VINA RESULT:    -6.223      0.000      0.000
REMARK INTER + INTRA:          -7.127
REMARK INTER:                  -6.950
REMARK INTRA:                  -0.177
REMARK UNBOUND:                -0.177
REMARK  Name = 42943682
REMARK  4 active torsions:
REMARK  status: ('A' for Active; 'I' for Inactive)
REMARK    1  A    between atoms: N_2  and  C_12
REMARK    2  A    between atoms: C_5  and  C_10
REMARK    3  A    between atoms: C_6  and  C_11
REMARK    4  A    between atoms: C_13  and  C_15
REMARK                            x       y       z     vdW  Elec       q    Type
REMARK                         _______ _______ _______ _____ _____    ______ ____
ROOT
ATOM      1  N   UNL     1     -18.660  42.254  -8.357  0.00  0.00    +0.000 NA
ATOM      2  C   UNL     1     -18.697  41.627  -9.554  0.00  0.00    +0.000 A 
ATOM      3  C   UNL     1     -19.572  40.598  -9.864  0.00  0.00    +0.000 A 
ATOM      4  C   UNL     1     -20.467  40.187  -8.882  0.00  0.00    +0.000 A 
ATOM      5  C   UNL     1     -19.544  41.827  -7.428  0.00  0.00    +0.000 A 
ATOM      6  C   UNL     1     -20.459  40.809  -7.639  0.00  0.00    +0.000 A 
ENDROOT
BRANCH   2   7
ATOM      7  N   UNL     1     -17.792  42.045 -10.535  0.00  0.00    +0.000 N 
ATOM      8  C   UNL     1     -17.209  43.604 -12.359  0.00  0.00    +0.000 C 
ATOM      9  C   UNL     1     -15.981  41.390 -12.092  0.00  0.00    +0.000 C 
ATOM     10  C   UNL     1     -15.882  42.857 -12.531  0.00  0.00    +0.000 C 
ATOM     11  C   UNL     1     -17.745  43.458 -10.926  0.00  0.00    +0.000 C 
ATOM     12  C   UNL     1     -16.537  41.290 -10.666  0.00  0.00    +0.000 C 
ATOM     13  C   UNL     1     -17.048  45.080 -12.723  0.00  0.00    +0.000 C 
ATOM     14  C   UNL     1     -16.808  40.550 -13.071  0.00  0.00    +0.000 C 
ENDBRANCH   2   7
BRANCH   3  17
ATOM     15  O   UNL     1     -19.152  38.784 -11.306  0.00  0.00    +0.000 OA
ATOM     16  N   UNL     1     -20.119  40.642 -12.238  0.00  0.00    +0.000 N 
ATOM     17  C   UNL     1     -19.586  39.939 -11.163  0.00  0.00    +0.000 C 
ATOM     18  H   UNL     1     -20.488  41.583 -12.138  0.00  0.00    +0.000 HD
ATOM     19  H   UNL     1     -20.158  40.229 -13.164  0.00  0.00    +0.000 HD
ENDBRANCH   3  17
TORSDOF 2
ENDMDL
MODEL 2
REMARK VINA RESULT:    -6.214      1.143      2.202
REMARK INTER + INTRA:          -7.118
REMARK INTER:                  -7.592
REMARK INTRA:                   0.474
REMARK UNBOUND:                -0.177
REMARK  Name = 42943682
REMARK  4 active torsions:
REMARK  status: ('A' for Active; 'I' for Inactive)
REMARK    1  A    between atoms: N_2  and  C_12
REMARK    2  A    between atoms: C_5  and  C_10
REMARK    3  A    between atoms: C_6  and  C_11
REMARK    4  A    between atoms: C_13  and  C_15
REMARK                            x       y       z     vdW  Elec       q    Type
REMARK                         _______ _______ _______ _____ _____    ______ ____
ROOT
ATOM      1  N   UNL     1     -18.417  42.266  -8.753  0.00  0.00    +0.000 NA
ATOM      2  C   UNL     1     -18.314  41.816 -10.023  0.00  0.00    +0.000 A 
ATOM      3  C   UNL     1     -18.928  40.664 -10.489  0.00  0.00    +0.000 A 
ATOM      4  C   UNL     1     -19.699  39.930  -9.595  0.00  0.00    +0.000 A 
ATOM      5  C   UNL     1     -19.173  41.526  -7.912  0.00  0.00    +0.000 A 
ATOM      6  C   UNL     1     -19.829  40.362  -8.280  0.00  0.00    +0.000 A 
ENDROOT
BRANCH   2   7
ATOM      7  N   UNL     1     -17.535  42.559 -10.915  0.00  0.00    +0.000 N 
ATOM      8  C   UNL     1     -15.330  43.462 -11.563  0.00  0.00    +0.000 C 
ATOM      9  C   UNL     1     -17.473  44.403 -12.566  0.00  0.00    +0.000 C 
ATOM     10  C   UNL     1     -15.987  44.096 -12.795  0.00  0.00    +0.000 C 
ATOM     11  C   UNL     1     -16.115  42.230 -11.090  0.00  0.00    +0.000 C 
ATOM     12  C   UNL     1     -18.214  43.152 -12.076  0.00  0.00    +0.000 C 
ATOM     13  C   UNL     1     -13.878  43.091 -11.860  0.00  0.00    +0.000 C 
ATOM     14  C   UNL     1     -17.677  45.581 -11.607  0.00  0.00    +0.000 C 
ENDBRANCH   2   7
BRANCH   3  17
ATOM     15  O   UNL     1     -17.757  39.649 -12.262  0.00  0.00    +0.000 OA
ATOM     16  N   UNL     1     -19.881  40.386 -12.715  0.00  0.00    +0.000 N 
ATOM     17  C   UNL     1     -18.796  40.202 -11.864  0.00  0.00    +0.000 C 
ATOM     18  H   UNL     1     -20.741  40.827 -12.404  0.00  0.00    +0.000 HD
ATOM     19  H   UNL     1     -19.845  40.079 -13.681  0.00  0.00    +0.000 HD
ENDBRANCH   3  17
TORSDOF 2
ENDMDL
MODEL 3
REMARK VINA RESULT:    -6.177      2.640      5.373
REMARK INTER + INTRA:          -7.076
REMARK INTER:                  -6.545
REMARK INTRA:                  -0.531
REMARK UNBOUND:                -0.177
REMARK  Name = 42943682
REMARK  4 active torsions:
REMARK  status: ('A' for Active; 'I' for Inactive)
REMARK    1  A    between atoms: N_2  and  C_12
REMARK    2  A    between atoms: C_5  and  C_10
REMARK    3  A    between atoms: C_6  and  C_11
REMARK    4  A    between atoms: C_13  and  C_15
REMARK                            x       y       z     vdW  Elec       q    Type
REMARK                         _______ _______ _______ _____ _____    ______ ____
ROOT
ATOM      1  N   UNL     1     -19.710  42.388 -14.777  0.00  0.00    +0.000 NA
ATOM      2  C   UNL     1     -18.855  42.706 -13.779  0.00  0.00    +0.000 A 
ATOM      3  C   UNL     1     -18.242  43.942 -13.648  0.00  0.00    +0.000 A 
ATOM      4  C   UNL     1     -18.525  44.914 -14.601  0.00  0.00    +0.000 A 
ATOM      5  C   UNL     1     -19.960  43.358 -15.685  0.00  0.00    +0.000 A 
ATOM      6  C   UNL     1     -19.399  44.624 -15.642  0.00  0.00    +0.000 A 
ENDROOT
BRANCH   2   7
ATOM      7  N   UNL     1     -18.575  41.722 -12.825  0.00  0.00    +0.000 N 
ATOM      8  C   UNL     1     -18.943  40.787 -10.570  0.00  0.00    +0.000 C 
ATOM      9  C   UNL     1     -16.923  40.096 -11.957  0.00  0.00    +0.000 C 
ATOM     10  C   UNL     1     -17.958  39.663 -10.910  0.00  0.00    +0.000 C 
ATOM     11  C   UNL     1     -19.597  41.353 -11.840  0.00  0.00    +0.000 C 
ATOM     12  C   UNL     1     -17.618  40.671 -13.197  0.00  0.00    +0.000 C 
ATOM     13  C   UNL     1     -20.009  40.292  -9.593  0.00  0.00    +0.000 C 
ATOM     14  C   UNL     1     -15.902  41.084 -11.383  0.00  0.00    +0.000 C 
ENDBRANCH   2   7
BRANCH   3  17
ATOM     15  O   UNL     1     -17.735  44.468 -11.409  0.00  0.00    +0.000 OA
ATOM     16  N   UNL     1     -15.964  44.288 -12.854  0.00  0.00    +0.000 N 
ATOM     17  C   UNL     1     -17.323  44.254 -12.562  0.00  0.00    +0.000 C 
ATOM     18  H   UNL     1     -15.608  44.107 -13.788  0.00  0.00    +0.000 HD
ATOM     19  H   UNL     1     -15.280  44.497 -12.135  0.00  0.00    +0.000 HD
ENDBRANCH   3  17
TORSDOF 2
ENDMDL
MODEL 4
REMARK VINA RESULT:    -5.360      5.545      7.244
REMARK INTER + INTRA:          -6.164
REMARK INTER:                  -5.790
REMARK INTRA:                  -0.374
REMARK UNBOUND:                -0.177
REMARK  Name = 42943682
REMARK  4 active torsions:
REMARK  status: ('A' for Active; 'I' for Inactive)
REMARK    1  A    between atoms: N_2  and  C_12
REMARK    2  A    between atoms: C_5  and  C_10
REMARK    3  A    between atoms: C_6  and  C_11
REMARK    4  A    between atoms: C_13  and  C_15
REMARK                            x       y       z     vdW  Elec       q    Type
REMARK                         _______ _______ _______ _____ _____    ______ ____
ROOT
ATOM      1  N   UNL     1     -19.875  42.352 -14.592  0.00  0.00    +0.000 NA
ATOM      2  C   UNL     1     -19.557  43.537 -15.159  0.00  0.00    +0.000 A 
ATOM      3  C   UNL     1     -18.744  44.488 -14.562  0.00  0.00    +0.000 A 
ATOM      4  C   UNL     1     -18.224  44.203 -13.305  0.00  0.00    +0.000 A 
ATOM      5  C   UNL     1     -19.352  42.111 -13.369  0.00  0.00    +0.000 A 
ATOM      6  C   UNL     1     -18.529  42.994 -12.690  0.00  0.00    +0.000 A 
ENDROOT
BRANCH   2   7
ATOM      7  N   UNL     1     -20.086  43.817 -16.423  0.00  0.00    +0.000 N 
ATOM      8  C   UNL     1     -19.727  44.489 -18.771  0.00  0.00    +0.000 C 
ATOM      9  C   UNL     1     -22.042  44.610 -17.717  0.00  0.00    +0.000 C 
ATOM     10  C   UNL     1     -21.239  44.371 -19.002  0.00  0.00    +0.000 C 
ATOM     11  C   UNL     1     -19.271  43.580 -17.620  0.00  0.00    +0.000 C 
ATOM     12  C   UNL     1     -21.541  43.697 -16.590  0.00  0.00    +0.000 C 
ATOM     13  C   UNL     1     -18.960  44.159 -20.051  0.00  0.00    +0.000 C 
ATOM     14  C   UNL     1     -22.022  46.082 -17.290  0.00  0.00    +0.000 C 
ENDBRANCH   2   7
BRANCH   3  17
ATOM     15  O   UNL     1     -19.171  46.743 -15.090  0.00  0.00    +0.000 OA
ATOM     16  N   UNL     1     -17.232  45.838 -15.915  0.00  0.00    +0.000 N 
ATOM     17  C   UNL     1     -18.420  45.759 -15.197  0.00  0.00    +0.000 C 
ATOM     18  H   UNL     1     -16.602  45.047 -16.005  0.00  0.00    +0.000 HD
ATOM     19  H   UNL     1     -16.956  46.700 -16.373  0.00  0.00    +0.000 HD
ENDBRANCH   3  17
TORSDOF 2
ENDMDL
MODEL 5
REMARK VINA RESULT:    -5.245      1.730      2.360
REMARK INTER + INTRA:          -6.035
REMARK INTER:                  -5.748
REMARK INTRA:                  -0.287
REMARK UNBOUND:                -0.177
REMARK  Name = 42943682
REMARK  4 active torsions:
REMARK  status: ('A' for Active; 'I' for Inactive)
REMARK    1  A    between atoms: N_2  and  C_12
REMARK    2  A    between atoms: C_5  and  C_10
REMARK    3  A    between atoms: C_6  and  C_11
REMARK    4  A    between atoms: C_13  and  C_15
REMARK                            x       y       z     vdW  Elec       q    Type
REMARK                         _______ _______ _______ _____ _____    ______ ____
ROOT
ATOM      1  N   UNL     1     -18.348  42.373  -9.415  0.00  0.00    +0.000 NA
ATOM      2  C   UNL     1     -18.077  42.110 -10.712  0.00  0.00    +0.000 A 
ATOM      3  C   UNL     1     -18.296  40.882 -11.317  0.00  0.00    +0.000 A 
ATOM      4  C   UNL     1     -18.831  39.860 -10.539  0.00  0.00    +0.000 A 
ATOM      5  C   UNL     1     -18.865  41.355  -8.691  0.00  0.00    +0.000 A 
ATOM      6  C   UNL     1     -19.123  40.094  -9.200  0.00  0.00    +0.000 A 
ENDROOT
BRANCH   2   7
ATOM      7  N   UNL     1     -17.538  43.142 -11.487  0.00  0.00    +0.000 N 
ATOM      8  C   UNL     1     -17.571  44.475 -13.565  0.00  0.00    +0.000 C 
ATOM      9  C   UNL     1     -15.528  44.475 -12.046  0.00  0.00    +0.000 C 
ATOM     10  C   UNL     1     -16.386  45.285 -13.027  0.00  0.00    +0.000 C 
ATOM     11  C   UNL     1     -18.400  43.879 -12.417  0.00  0.00    +0.000 C 
ATOM     12  C   UNL     1     -16.398  43.883 -10.929  0.00  0.00    +0.000 C 
ATOM     13  C   UNL     1     -18.449  45.341 -14.467  0.00  0.00    +0.000 C 
ATOM     14  C   UNL     1     -14.715  43.386 -12.755  0.00  0.00    +0.000 C 
ENDBRANCH   2   7
BRANCH   3  17
ATOM     15  O   UNL     1     -18.855  40.762 -13.601  0.00  0.00    +0.000 OA
ATOM     16  N   UNL     1     -16.694  40.244 -13.038  0.00  0.00    +0.000 N 
ATOM     17  C   UNL     1     -17.991  40.627 -12.718  0.00  0.00    +0.000 C 
ATOM     18  H   UNL     1     -15.972  40.139 -12.330  0.00  0.00    +0.000 HD
ATOM     19  H   UNL     1     -16.426  40.058 -13.998  0.00  0.00    +0.000 HD
ENDBRANCH   3  17
TORSDOF 2
ENDMDL
