MODEL 1
REMARK VINA RESULT:    -6.107      0.000      0.000
REMARK INTER + INTRA:         -10.286
REMARK INTER:                  -9.320
REMARK INTRA:                  -0.966
REMARK UNBOUND:                -0.966
REMARK  Name = 43093725
REMARK  12 active torsions:
REMARK  status: ('A' for Active; 'I' for Inactive)
REMARK    1  A    between atoms: N_2  and  C_9
REMARK    2  A    between atoms: N_2  and  C_10
REMARK    3  A    between atoms: N_2  and  C_11
REMARK    4  A    between atoms: N_3  and  C_8
REMARK    5  A    between atoms: N_3  and  C_13
REMARK    6  A    between atoms: C_6  and  C_7
REMARK    7  A    between atoms: C_6  and  C_8
REMARK    8  A    between atoms: C_7  and  C_9
REMARK    9  A    between atoms: C_8  and  C_12
REMARK   10  A    between atoms: C_10  and  C_14
REMARK   11  A    between atoms: C_11  and  C_15
REMARK   12  A    between atoms: C_16  and  C_18
REMARK                            x       y       z     vdW  Elec       q    Type
REMARK                         _______ _______ _______ _____ _____    ______ ____
ROOT
ATOM      1  N   UNL     1     -17.393  41.948 -10.314  0.00  0.00    +0.000 N 
ATOM      2  H   UNL     1     -16.557  41.378 -10.231  0.00  0.00    +0.000 HD
ENDROOT
BRANCH   1   4
ATOM      3  N   UNL     1     -18.591  42.302  -8.334  0.00  0.00    +0.000 NA
ATOM      4  C   UNL     1     -18.457  41.620  -9.494  0.00  0.00    +0.000 A 
ATOM      5  C   UNL     1     -19.318  40.616  -9.906  0.00  0.00    +0.000 A 
ATOM      6  C   UNL     1     -20.384  40.290  -9.075  0.00  0.00    +0.000 A 
ATOM      7  C   UNL     1     -19.638  41.958  -7.552  0.00  0.00    +0.000 A 
ATOM      8  C   UNL     1     -20.555  40.969  -7.873  0.00  0.00    +0.000 A 
BRANCH   5  11
ATOM      9  O   UNL     1     -18.263  39.032 -11.294  0.00  0.00    +0.000 OA
ATOM     10  N   UNL     1     -20.020  40.195 -12.202  0.00  0.00    +0.000 N 
ATOM     11  C   UNL     1     -19.146  39.896 -11.161  0.00  0.00    +0.000 C 
ATOM     12  H   UNL     1     -20.753  40.891 -12.106  0.00  0.00    +0.000 HD
ATOM     13  H   UNL     1     -19.950  39.718 -13.094  0.00  0.00    +0.000 HD
ENDBRANCH   5  11
ENDBRANCH   1   4
BRANCH   1  14
ATOM     14  C   UNL     1     -17.534  42.692 -11.549  0.00  0.00    +0.000 C 
ATOM     15  C   UNL     1     -16.413  42.279 -12.497  0.00  0.00    +0.000 C 
BRANCH  14  16
ATOM     16  C   UNL     1     -17.488  44.200 -11.269  0.00  0.00    +0.000 C 
BRANCH  16  17
ATOM     17  C   UNL     1     -17.137  45.019 -12.516  0.00  0.00    +0.000 C 
BRANCH  17  18
ATOM     18  C   UNL     1     -18.399  45.463 -13.255  0.00  0.00    +0.000 C 
BRANCH  18  19
ATOM     19  N   UNL     1     -18.487  44.801 -14.552  0.00  0.00    +0.000 NA
BRANCH  19  20
ATOM     20  C   UNL     1     -18.906  45.751 -15.586  0.00  0.00    +0.000 C 
ATOM     21  C   UNL     1     -18.721  47.185 -15.120  0.00  0.00    +0.000 C 
ENDBRANCH  19  20
BRANCH  19  22
ATOM     22  C   UNL     1     -19.416  43.672 -14.493  0.00  0.00    +0.000 C 
ATOM     23  C   UNL     1     -19.764  43.174 -15.885  0.00  0.00    +0.000 C 
ENDBRANCH  19  22
ENDBRANCH  18  19
ENDBRANCH  17  18
ENDBRANCH  16  17
ENDBRANCH  14  16
ENDBRANCH   1  14
TORSDOF 9
ENDMDL
MODEL 2
REMARK VINA RESULT:    -6.077      1.893      2.570
REMARK INTER + INTRA:         -10.240
REMARK INTER:                  -9.016
REMARK INTRA:                  -1.225
REMARK UNBOUND:                -0.966
REMARK  Name = 43093725
REMARK  12 active torsions:
REMARK  status: ('A' for Active; 'I' for Inactive)
REMARK    1  A    between atoms: N_2  and  C_9
REMARK    2  A    between atoms: N_2  and  C_10
REMARK    3  A    between atoms: N_2  and  C_11
REMARK    4  A    between atoms: N_3  and  C_8
REMARK    5  A    between atoms: N_3  and  C_13
REMARK    6  A    between atoms: C_6  and  C_7
REMARK    7  A    between atoms: C_6  and  C_8
REMARK    8  A    between atoms: C_7  and  C_9
REMARK    9  A    between atoms: C_8  and  C_12
REMARK   10  A    between atoms: C_10  and  C_14
REMARK   11  A    between atoms: C_11  and  C_15
REMARK   12  A    between atoms: C_16  and  C_18
REMARK                            x       y       z     vdW  Elec       q    Type
REMARK                         _______ _______ _______ _____ _____    ______ ____
ROOT
ATOM      1  N   UNL     1     -17.336  41.722 -10.353  0.00  0.00    +0.000 N 
ATOM      2  H   UNL     1     -16.968  40.900 -10.822  0.00  0.00    +0.000 HD
ENDROOT
BRANCH   1   4
ATOM      3  N   UNL     1     -18.466  42.227  -8.366  0.00  0.00    +0.000 NA
ATOM      4  C   UNL     1     -18.428  41.535  -9.527  0.00  0.00    +0.000 A 
ATOM      5  C   UNL     1     -19.414  40.650  -9.934  0.00  0.00    +0.000 A 
ATOM      6  C   UNL     1     -20.509  40.464  -9.097  0.00  0.00    +0.000 A 
ATOM      7  C   UNL     1     -19.545  42.021  -7.578  0.00  0.00    +0.000 A 
ATOM      8  C   UNL     1     -20.583  41.159  -7.894  0.00  0.00    +0.000 A 
BRANCH   5  11
ATOM      9  O   UNL     1     -18.668  38.878 -11.294  0.00  0.00    +0.000 OA
ATOM     10  N   UNL     1     -20.079  40.403 -12.266  0.00  0.00    +0.000 N 
ATOM     11  C   UNL     1     -19.344  39.915 -11.189  0.00  0.00    +0.000 C 
ATOM     12  H   UNL     1     -20.644  41.243 -12.195  0.00  0.00    +0.000 HD
ATOM     13  H   UNL     1     -20.072  39.926 -13.161  0.00  0.00    +0.000 HD
ENDBRANCH   5  11
ENDBRANCH   1   4
BRANCH   1  14
ATOM     14  C   UNL     1     -16.989  42.998 -10.945  0.00  0.00    +0.000 C 
ATOM     15  C   UNL     1     -17.902  43.243 -12.142  0.00  0.00    +0.000 C 
BRANCH  14  16
ATOM     16  C   UNL     1     -15.514  43.003 -11.370  0.00  0.00    +0.000 C 
BRANCH  16  17
ATOM     17  C   UNL     1     -15.279  43.788 -12.665  0.00  0.00    +0.000 C 
BRANCH  17  18
ATOM     18  C   UNL     1     -14.842  45.222 -12.367  0.00  0.00    +0.000 C 
BRANCH  18  19
ATOM     19  N   UNL     1     -15.887  46.162 -12.756  0.00  0.00    +0.000 NA
BRANCH  19  20
ATOM     20  C   UNL     1     -15.416  47.039 -13.832  0.00  0.00    +0.000 C 
ATOM     21  C   UNL     1     -15.823  46.501 -15.194  0.00  0.00    +0.000 C 
ENDBRANCH  19  20
BRANCH  19  22
ATOM     22  C   UNL     1     -16.320  46.958 -11.607  0.00  0.00    +0.000 C 
ATOM     23  C   UNL     1     -17.822  46.853 -11.401  0.00  0.00    +0.000 C 
ENDBRANCH  19  22
ENDBRANCH  18  19
ENDBRANCH  17  18
ENDBRANCH  16  17
ENDBRANCH  14  16
ENDBRANCH   1  14
TORSDOF 9
ENDMDL
MODEL 3
REMARK VINA RESULT:    -5.670      2.685      4.563
REMARK INTER + INTRA:          -9.619
REMARK INTER:                  -8.651
REMARK INTRA:                  -0.968
REMARK UNBOUND:                -0.966
REMARK  Name = 43093725
REMARK  12 active torsions:
REMARK  status: ('A' for Active; 'I' for Inactive)
REMARK    1  A    between atoms: N_2  and  C_9
REMARK    2  A    between atoms: N_2  and  C_10
REMARK    3  A    between atoms: N_2  and  C_11
REMARK    4  A    between atoms: N_3  and  C_8
REMARK    5  A    between atoms: N_3  and  C_13
REMARK    6  A    between atoms: C_6  and  C_7
REMARK    7  A    between atoms: C_6  and  C_8
REMARK    8  A    between atoms: C_7  and  C_9
REMARK    9  A    between atoms: C_8  and  C_12
REMARK   10  A    between atoms: C_10  and  C_14
REMARK   11  A    between atoms: C_11  and  C_15
REMARK   12  A    between atoms: C_16  and  C_18
REMARK                            x       y       z     vdW  Elec       q    Type
REMARK                         _______ _______ _______ _____ _____    ______ ____
ROOT
ATOM      1  N   UNL     1     -17.243  42.027 -10.774  0.00  0.00    +0.000 N 
ATOM      2  H   UNL     1     -16.490  41.373 -10.964  0.00  0.00    +0.000 HD
ENDROOT
BRANCH   1   4
ATOM      3  N   UNL     1     -18.319  42.335  -8.719  0.00  0.00    +0.000 NA
ATOM      4  C   UNL     1     -18.205  41.629  -9.865  0.00  0.00    +0.000 A 
ATOM      5  C   UNL     1     -18.990  40.531 -10.181  0.00  0.00    +0.000 A 
ATOM      6  C   UNL     1     -19.954  40.133  -9.261  0.00  0.00    +0.000 A 
ATOM      7  C   UNL     1     -19.267  41.920  -7.848  0.00  0.00    +0.000 A 
ATOM      8  C   UNL     1     -20.102  40.836  -8.069  0.00  0.00    +0.000 A 
BRANCH   5  11
ATOM      9  O   UNL     1     -17.786  39.188 -11.696  0.00  0.00    +0.000 OA
ATOM     10  N   UNL     1     -19.930  39.750 -12.289  0.00  0.00    +0.000 N 
ATOM     11  C   UNL     1     -18.841  39.786 -11.423  0.00  0.00    +0.000 C 
ATOM     12  H   UNL     1     -20.802  40.224 -12.078  0.00  0.00    +0.000 HD
ATOM     13  H   UNL     1     -19.883  39.239 -13.164  0.00  0.00    +0.000 HD
ENDBRANCH   5  11
ENDBRANCH   1   4
BRANCH   1  14
ATOM     14  C   UNL     1     -17.466  43.046 -11.780  0.00  0.00    +0.000 C 
ATOM     15  C   UNL     1     -17.449  42.385 -13.155  0.00  0.00    +0.000 C 
BRANCH  14  16
ATOM     16  C   UNL     1     -16.388  44.134 -11.682  0.00  0.00    +0.000 C 
BRANCH  16  17
ATOM     17  C   UNL     1     -15.115  43.772 -12.455  0.00  0.00    +0.000 C 
BRANCH  17  18
ATOM     18  C   UNL     1     -13.870  44.302 -11.744  0.00  0.00    +0.000 C 
BRANCH  18  19
ATOM     19  N   UNL     1     -12.804  43.307 -11.779  0.00  0.00    +0.000 NA
BRANCH  19  20
ATOM     20  C   UNL     1     -13.126  42.177 -10.905  0.00  0.00    +0.000 C 
ATOM     21  C   UNL     1     -11.984  41.175 -10.861  0.00  0.00    +0.000 C 
ENDBRANCH  19  20
BRANCH  19  22
ATOM     22  C   UNL     1     -11.527  43.905 -11.386  0.00  0.00    +0.000 C 
ATOM     23  C   UNL     1     -11.718  44.932 -10.283  0.00  0.00    +0.000 C 
ENDBRANCH  19  22
ENDBRANCH  18  19
ENDBRANCH  17  18
ENDBRANCH  16  17
ENDBRANCH  14  16
ENDBRANCH   1  14
TORSDOF 9
ENDMDL
MODEL 4
REMARK VINA RESULT:    -5.442      2.369      7.013
REMARK INTER + INTRA:          -9.272
REMARK INTER:                  -8.157
REMARK INTRA:                  -1.115
REMARK UNBOUND:                -0.966
REMARK  Name = 43093725
REMARK  12 active torsions:
REMARK  status: ('A' for Active; 'I' for Inactive)
REMARK    1  A    between atoms: N_2  and  C_9
REMARK    2  A    between atoms: N_2  and  C_10
REMARK    3  A    between atoms: N_2  and  C_11
REMARK    4  A    between atoms: N_3  and  C_8
REMARK    5  A    between atoms: N_3  and  C_13
REMARK    6  A    between atoms: C_6  and  C_7
REMARK    7  A    between atoms: C_6  and  C_8
REMARK    8  A    between atoms: C_7  and  C_9
REMARK    9  A    between atoms: C_8  and  C_12
REMARK   10  A    between atoms: C_10  and  C_14
REMARK   11  A    between atoms: C_11  and  C_15
REMARK   12  A    between atoms: C_16  and  C_18
REMARK                            x       y       z     vdW  Elec       q    Type
REMARK                         _______ _______ _______ _____ _____    ______ ____
ROOT
ATOM      1  N   UNL     1     -18.336  44.504 -15.122  0.00  0.00    +0.000 N 
ATOM      2  H   UNL     1     -17.428  44.224 -15.479  0.00  0.00    +0.000 HD
ENDROOT
BRANCH   1   4
ATOM      3  N   UNL     1     -19.191  46.641 -15.547  0.00  0.00    +0.000 NA
ATOM      4  C   UNL     1     -19.090  45.345 -15.919  0.00  0.00    +0.000 A 
ATOM      5  C   UNL     1     -19.697  44.812 -17.045  0.00  0.00    +0.000 A 
ATOM      6  C   UNL     1     -20.456  45.664 -17.840  0.00  0.00    +0.000 A 
ATOM      7  C   UNL     1     -19.937  47.439 -16.344  0.00  0.00    +0.000 A 
ATOM      8  C   UNL     1     -20.583  47.004 -17.490  0.00  0.00    +0.000 A 
BRANCH   5  11
ATOM      9  O   UNL     1     -20.132  42.515 -16.764  0.00  0.00    +0.000 OA
ATOM     10  N   UNL     1     -18.820  43.108 -18.550  0.00  0.00    +0.000 N 
ATOM     11  C   UNL     1     -19.572  43.410 -17.419  0.00  0.00    +0.000 C 
ATOM     12  H   UNL     1     -18.364  43.827 -19.102  0.00  0.00    +0.000 HD
ATOM     13  H   UNL     1     -18.707  42.148 -18.859  0.00  0.00    +0.000 HD
ENDBRANCH   5  11
ENDBRANCH   1   4
BRANCH   1  14
ATOM     14  C   UNL     1     -18.520  44.379 -13.690  0.00  0.00    +0.000 C 
ATOM     15  C   UNL     1     -17.149  44.355 -13.024  0.00  0.00    +0.000 C 
BRANCH  14  16
ATOM     16  C   UNL     1     -19.311  43.104 -13.365  0.00  0.00    +0.000 C 
BRANCH  16  17
ATOM     17  C   UNL     1     -18.406  41.878 -13.199  0.00  0.00    +0.000 C 
BRANCH  17  18
ATOM     18  C   UNL     1     -19.113  40.775 -12.413  0.00  0.00    +0.000 C 
BRANCH  18  19
ATOM     19  N   UNL     1     -19.073  41.064 -10.984  0.00  0.00    +0.000 NA
BRANCH  19  20
ATOM     20  C   UNL     1     -17.711  41.410 -10.568  0.00  0.00    +0.000 C 
ATOM     21  C   UNL     1     -17.694  42.706  -9.774  0.00  0.00    +0.000 C 
ENDBRANCH  19  20
BRANCH  19  22
ATOM     22  C   UNL     1     -19.565  39.923 -10.212  0.00  0.00    +0.000 C 
ATOM     23  C   UNL     1     -20.310  40.381  -8.970  0.00  0.00    +0.000 C 
ENDBRANCH  19  22
ENDBRANCH  18  19
ENDBRANCH  17  18
ENDBRANCH  16  17
ENDBRANCH  14  16
ENDBRANCH   1  14
TORSDOF 9
ENDMDL
MODEL 5
REMARK VINA RESULT:    -5.239      2.495      3.452
REMARK INTER + INTRA:          -8.962
REMARK INTER:                  -8.015
REMARK INTRA:                  -0.947
REMARK UNBOUND:                -0.966
REMARK  Name = 43093725
REMARK  12 active torsions:
REMARK  status: ('A' for Active; 'I' for Inactive)
REMARK    1  A    between atoms: N_2  and  C_9
REMARK    2  A    between atoms: N_2  and  C_10
REMARK    3  A    between atoms: N_2  and  C_11
REMARK    4  A    between atoms: N_3  and  C_8
REMARK    5  A    between atoms: N_3  and  C_13
REMARK    6  A    between atoms: C_6  and  C_7
REMARK    7  A    between atoms: C_6  and  C_8
REMARK    8  A    between atoms: C_7  and  C_9
REMARK    9  A    between atoms: C_8  and  C_12
REMARK   10  A    between atoms: C_10  and  C_14
REMARK   11  A    between atoms: C_11  and  C_15
REMARK   12  A    between atoms: C_16  and  C_18
REMARK                            x       y       z     vdW  Elec       q    Type
REMARK                         _______ _______ _______ _____ _____    ______ ____
ROOT
ATOM      1  N   UNL     1     -17.362  42.267 -10.947  0.00  0.00    +0.000 N 
ATOM      2  H   UNL     1     -16.554  41.719 -11.226  0.00  0.00    +0.000 HD
ENDROOT
BRANCH   1   4
ATOM      3  N   UNL     1     -18.352  42.363  -8.828  0.00  0.00    +0.000 NA
ATOM      4  C   UNL     1     -18.200  41.707 -10.000  0.00  0.00    +0.000 A 
ATOM      5  C   UNL     1     -18.829  40.511 -10.307  0.00  0.00    +0.000 A 
ATOM      6  C   UNL     1     -19.669  39.953  -9.349  0.00  0.00    +0.000 A 
ATOM      7  C   UNL     1     -19.176  41.791  -7.922  0.00  0.00    +0.000 A 
ATOM      8  C   UNL     1     -19.851  40.599  -8.130  0.00  0.00    +0.000 A 
BRANCH   5  11
ATOM      9  O   UNL     1     -17.515  39.475 -11.963  0.00  0.00    +0.000 OA
ATOM     10  N   UNL     1     -19.776  39.557 -12.339  0.00  0.00    +0.000 N 
ATOM     11  C   UNL     1     -18.643  39.825 -11.578  0.00  0.00    +0.000 C 
ATOM     12  H   UNL     1     -20.706  39.828 -12.035  0.00  0.00    +0.000 HD
ATOM     13  H   UNL     1     -19.704  39.075 -13.229  0.00  0.00    +0.000 HD
ENDBRANCH   5  11
ENDBRANCH   1   4
BRANCH   1  14
ATOM     14  C   UNL     1     -17.776  43.302 -11.872  0.00  0.00    +0.000 C 
ATOM     15  C   UNL     1     -17.565  42.796 -13.295  0.00  0.00    +0.000 C 
BRANCH  14  16
ATOM     16  C   UNL     1     -16.977  44.588 -11.622  0.00  0.00    +0.000 C 
BRANCH  16  17
ATOM     17  C   UNL     1     -17.852  45.846 -11.691  0.00  0.00    +0.000 C 
BRANCH  17  18
ATOM     18  C   UNL     1     -17.063  47.035 -12.238  0.00  0.00    +0.000 C 
BRANCH  18  19
ATOM     19  N   UNL     1     -16.683  47.934 -11.155  0.00  0.00    +0.000 NA
BRANCH  19  20
ATOM     20  C   UNL     1     -17.134  49.299 -11.437  0.00  0.00    +0.000 C 
ATOM     21  C   UNL     1     -18.467  49.585 -10.765  0.00  0.00    +0.000 C 
ENDBRANCH  19  20
BRANCH  19  22
ATOM     22  C   UNL     1     -15.234  47.911 -10.949  0.00  0.00    +0.000 C 
ATOM     23  C   UNL     1     -14.734  49.243 -10.415  0.00  0.00    +0.000 C 
ENDBRANCH  19  22
ENDBRANCH  18  19
ENDBRANCH  17  18
ENDBRANCH  16  17
ENDBRANCH  14  16
ENDBRANCH   1  14
TORSDOF 9
ENDMDL
