MODEL 1
REMARK VINA RESULT:    -6.225      0.000      0.000
REMARK INTER + INTRA:          -8.263
REMARK INTER:                  -7.680
REMARK INTRA:                  -0.583
REMARK UNBOUND:                -0.583
REMARK  Name = 43093671
REMARK  6 active torsions:
REMARK  status: ('A' for Active; 'I' for Inactive)
REMARK    1  A    between atoms: N_2  and  C_5
REMARK    2  A    between atoms: N_2  and  C_8
REMARK    3  A    between atoms: C_5  and  C_6
REMARK    4  A    between atoms: C_5  and  C_7
REMARK    5  A    between atoms: C_6  and  C_9
REMARK    6  A    between atoms: C_10  and  C_12
REMARK                            x       y       z     vdW  Elec       q    Type
REMARK                         _______ _______ _______ _____ _____    ______ ____
ROOT
ATOM      1  N   UNL     1     -18.492  42.242  -8.311  0.00  0.00    +0.000 NA
ATOM      2  C   UNL     1     -18.422  41.549  -9.469  0.00  0.00    +0.000 A 
ATOM      3  C   UNL     1     -19.395  40.662  -9.901  0.00  0.00    +0.000 A 
ATOM      4  C   UNL     1     -20.510  40.474  -9.093  0.00  0.00    +0.000 A 
ATOM      5  C   UNL     1     -20.618  41.170  -7.894  0.00  0.00    +0.000 A 
ATOM      6  C   UNL     1     -19.592  42.035  -7.551  0.00  0.00    +0.000 A 
ENDROOT
BRANCH   3   9
ATOM      7  O   UNL     1     -18.555  38.929 -11.258  0.00  0.00    +0.000 OA
ATOM      8  N   UNL     1     -20.055  40.366 -12.229  0.00  0.00    +0.000 N 
ATOM      9  C   UNL     1     -19.289  39.926 -11.154  0.00  0.00    +0.000 C 
ATOM     10  H   UNL     1     -20.667  41.174 -12.160  0.00  0.00    +0.000 HD
ATOM     11  H   UNL     1     -20.025  39.887 -13.122  0.00  0.00    +0.000 HD
ENDBRANCH   3   9
BRANCH   2  12
ATOM     12  N   UNL     1     -17.308  41.739 -10.266  0.00  0.00    +0.000 N 
ATOM     13  H   UNL     1     -16.916  40.915 -10.711  0.00  0.00    +0.000 HD
BRANCH  12  14
ATOM     14  C   UNL     1     -16.956  43.010 -10.862  0.00  0.00    +0.000 C 
ATOM     15  C   UNL     1     -17.954  43.319 -11.973  0.00  0.00    +0.000 C 
BRANCH  14  16
ATOM     16  C   UNL     1     -15.524  42.964 -11.408  0.00  0.00    +0.000 C 
ATOM     17  C   UNL     1     -15.376  43.708 -12.729  0.00  0.00    +0.000 C 
ENDBRANCH  14  16
ENDBRANCH  12  14
ENDBRANCH   2  12
TORSDOF 4
ENDMDL
MODEL 2
REMARK VINA RESULT:    -5.304      1.740      4.146
REMARK INTER + INTRA:          -7.127
REMARK INTER:                  -6.851
REMARK INTRA:                  -0.275
REMARK UNBOUND:                -0.583
REMARK  Name = 43093671
REMARK  6 active torsions:
REMARK  status: ('A' for Active; 'I' for Inactive)
REMARK    1  A    between atoms: N_2  and  C_5
REMARK    2  A    between atoms: N_2  and  C_8
REMARK    3  A    between atoms: C_5  and  C_6
REMARK    4  A    between atoms: C_5  and  C_7
REMARK    5  A    between atoms: C_6  and  C_9
REMARK    6  A    between atoms: C_10  and  C_12
REMARK                            x       y       z     vdW  Elec       q    Type
REMARK                         _______ _______ _______ _____ _____    ______ ____
ROOT
ATOM      1  N   UNL     1     -17.596  43.097 -10.435  0.00  0.00    +0.000 NA
ATOM      2  C   UNL     1     -17.629  41.861 -10.981  0.00  0.00    +0.000 A 
ATOM      3  C   UNL     1     -17.680  41.618 -12.345  0.00  0.00    +0.000 A 
ATOM      4  C   UNL     1     -17.699  42.713 -13.201  0.00  0.00    +0.000 A 
ATOM      5  C   UNL     1     -17.666  44.000 -12.676  0.00  0.00    +0.000 A 
ATOM      6  C   UNL     1     -17.615  44.137 -11.299  0.00  0.00    +0.000 A 
ENDROOT
BRANCH   3   9
ATOM      7  O   UNL     1     -18.795  39.684 -13.097  0.00  0.00    +0.000 OA
ATOM      8  N   UNL     1     -16.506  39.676 -13.234  0.00  0.00    +0.000 N 
ATOM      9  C   UNL     1     -17.718  40.273 -12.904  0.00  0.00    +0.000 C 
ATOM     10  H   UNL     1     -15.617  40.146 -13.092  0.00  0.00    +0.000 HD
ATOM     11  H   UNL     1     -16.474  38.744 -13.633  0.00  0.00    +0.000 HD
ENDBRANCH   3   9
BRANCH   2  12
ATOM     12  N   UNL     1     -17.613  40.777 -10.123  0.00  0.00    +0.000 N 
ATOM     13  H   UNL     1     -16.710  40.498  -9.752  0.00  0.00    +0.000 HD
BRANCH  12  14
ATOM     14  C   UNL     1     -18.771  40.326  -9.380  0.00  0.00    +0.000 C 
ATOM     15  C   UNL     1     -20.027  40.775 -10.117  0.00  0.00    +0.000 C 
BRANCH  14  16
ATOM     16  C   UNL     1     -18.740  40.890  -7.954  0.00  0.00    +0.000 C 
ATOM     17  C   UNL     1     -19.997  41.678  -7.608  0.00  0.00    +0.000 C 
ENDBRANCH  14  16
ENDBRANCH  12  14
ENDBRANCH   2  12
TORSDOF 4
ENDMDL
MODEL 3
REMARK VINA RESULT:    -5.223      1.882      2.455
REMARK INTER + INTRA:          -7.026
REMARK INTER:                  -6.351
REMARK INTRA:                  -0.676
REMARK UNBOUND:                -0.583
REMARK  Name = 43093671
REMARK  6 active torsions:
REMARK  status: ('A' for Active; 'I' for Inactive)
REMARK    1  A    between atoms: N_2  and  C_5
REMARK    2  A    between atoms: N_2  and  C_8
REMARK    3  A    between atoms: C_5  and  C_6
REMARK    4  A    between atoms: C_5  and  C_7
REMARK    5  A    between atoms: C_6  and  C_9
REMARK    6  A    between atoms: C_10  and  C_12
REMARK                            x       y       z     vdW  Elec       q    Type
REMARK                         _______ _______ _______ _____ _____    ______ ____
ROOT
ATOM      1  N   UNL     1     -17.921  42.843 -10.224  0.00  0.00    +0.000 NA
ATOM      2  C   UNL     1     -18.087  42.040 -11.299  0.00  0.00    +0.000 A 
ATOM      3  C   UNL     1     -18.465  40.709 -11.220  0.00  0.00    +0.000 A 
ATOM      4  C   UNL     1     -18.687  40.169  -9.958  0.00  0.00    +0.000 A 
ATOM      5  C   UNL     1     -18.526  40.964  -8.830  0.00  0.00    +0.000 A 
ATOM      6  C   UNL     1     -18.146  42.283  -9.014  0.00  0.00    +0.000 A 
ENDROOT
BRANCH   3   9
ATOM      7  O   UNL     1     -17.712  39.711 -13.217  0.00  0.00    +0.000 OA
ATOM      8  N   UNL     1     -19.856  39.225 -12.563  0.00  0.00    +0.000 N 
ATOM      9  C   UNL     1     -18.633  39.867 -12.397  0.00  0.00    +0.000 C 
ATOM     10  H   UNL     1     -20.617  39.334 -11.899  0.00  0.00    +0.000 HD
ATOM     11  H   UNL     1     -20.025  38.622 -13.361  0.00  0.00    +0.000 HD
ENDBRANCH   3   9
BRANCH   2  12
ATOM     12  N   UNL     1     -17.862  42.584 -12.550  0.00  0.00    +0.000 N 
ATOM     13  H   UNL     1     -17.246  42.069 -13.171  0.00  0.00    +0.000 HD
BRANCH  12  14
ATOM     14  C   UNL     1     -18.754  43.531 -13.184  0.00  0.00    +0.000 C 
ATOM     15  C   UNL     1     -19.247  42.932 -14.497  0.00  0.00    +0.000 C 
BRANCH  14  16
ATOM     16  C   UNL     1     -18.033  44.863 -13.425  0.00  0.00    +0.000 C 
ATOM     17  C   UNL     1     -18.386  45.918 -12.385  0.00  0.00    +0.000 C 
ENDBRANCH  14  16
ENDBRANCH  12  14
ENDBRANCH   2  12
TORSDOF 4
ENDMDL
MODEL 4
REMARK VINA RESULT:    -5.105      1.437      1.844
REMARK INTER + INTRA:          -6.882
REMARK INTER:                  -6.955
REMARK INTRA:                   0.073
REMARK UNBOUND:                -0.583
REMARK  Name = 43093671
REMARK  6 active torsions:
REMARK  status: ('A' for Active; 'I' for Inactive)
REMARK    1  A    between atoms: N_2  and  C_5
REMARK    2  A    between atoms: N_2  and  C_8
REMARK    3  A    between atoms: C_5  and  C_6
REMARK    4  A    between atoms: C_5  and  C_7
REMARK    5  A    between atoms: C_6  and  C_9
REMARK    6  A    between atoms: C_10  and  C_12
REMARK                            x       y       z     vdW  Elec       q    Type
REMARK                         _______ _______ _______ _____ _____    ______ ____
ROOT
ATOM      1  N   UNL     1     -18.159  42.221  -8.939  0.00  0.00    +0.000 NA
ATOM      2  C   UNL     1     -17.801  41.652 -10.112  0.00  0.00    +0.000 A 
ATOM      3  C   UNL     1     -18.442  40.557 -10.670  0.00  0.00    +0.000 A 
ATOM      4  C   UNL     1     -19.519  40.012  -9.980  0.00  0.00    +0.000 A 
ATOM      5  C   UNL     1     -19.916  40.570  -8.770  0.00  0.00    +0.000 A 
ATOM      6  C   UNL     1     -19.210  41.664  -8.297  0.00  0.00    +0.000 A 
ENDROOT
BRANCH   3   9
ATOM      7  O   UNL     1     -18.753  40.028 -12.944  0.00  0.00    +0.000 OA
ATOM      8  N   UNL     1     -16.791  39.336 -11.981  0.00  0.00    +0.000 N 
ATOM      9  C   UNL     1     -18.031  39.964 -11.935  0.00  0.00    +0.000 C 
ATOM     10  H   UNL     1     -16.183  39.281 -11.169  0.00  0.00    +0.000 HD
ATOM     11  H   UNL     1     -16.451  38.911 -12.837  0.00  0.00    +0.000 HD
ENDBRANCH   3   9
BRANCH   2  12
ATOM     12  N   UNL     1     -16.727  42.198 -10.791  0.00  0.00    +0.000 N 
ATOM     13  H   UNL     1     -15.830  41.737 -10.681  0.00  0.00    +0.000 HD
BRANCH  12  14
ATOM     14  C   UNL     1     -16.864  43.047 -11.956  0.00  0.00    +0.000 C 
ATOM     15  C   UNL     1     -15.476  43.503 -12.392  0.00  0.00    +0.000 C 
BRANCH  14  16
ATOM     16  C   UNL     1     -17.761  44.250 -11.636  0.00  0.00    +0.000 C 
ATOM     17  C   UNL     1     -17.020  45.577 -11.735  0.00  0.00    +0.000 C 
ENDBRANCH  14  16
ENDBRANCH  12  14
ENDBRANCH   2  12
TORSDOF 4
ENDMDL
MODEL 5
REMARK VINA RESULT:    -4.827      2.097      3.290
REMARK INTER + INTRA:          -6.539
REMARK INTER:                  -6.177
REMARK INTRA:                  -0.362
REMARK UNBOUND:                -0.583
REMARK  Name = 43093671
REMARK  6 active torsions:
REMARK  status: ('A' for Active; 'I' for Inactive)
REMARK    1  A    between atoms: N_2  and  C_5
REMARK    2  A    between atoms: N_2  and  C_8
REMARK    3  A    between atoms: C_5  and  C_6
REMARK    4  A    between atoms: C_5  and  C_7
REMARK    5  A    between atoms: C_6  and  C_9
REMARK    6  A    between atoms: C_10  and  C_12
REMARK                            x       y       z     vdW  Elec       q    Type
REMARK                         _______ _______ _______ _____ _____    ______ ____
ROOT
ATOM      1  N   UNL     1     -19.888  41.010 -11.017  0.00  0.00    +0.000 NA
ATOM      2  C   UNL     1     -18.639  40.847 -11.507  0.00  0.00    +0.000 A 
ATOM      3  C   UNL     1     -17.534  40.546 -10.727  0.00  0.00    +0.000 A 
ATOM      4  C   UNL     1     -17.724  40.404  -9.357  0.00  0.00    +0.000 A 
ATOM      5  C   UNL     1     -18.994  40.563  -8.816  0.00  0.00    +0.000 A 
ATOM      6  C   UNL     1     -20.035  40.863  -9.681  0.00  0.00    +0.000 A 
ENDROOT
BRANCH   3   9
ATOM      7  O   UNL     1     -15.891  39.368 -11.936  0.00  0.00    +0.000 OA
ATOM      8  N   UNL     1     -15.280  41.405 -11.076  0.00  0.00    +0.000 N 
ATOM      9  C   UNL     1     -16.198  40.381 -11.284  0.00  0.00    +0.000 C 
ATOM     10  H   UNL     1     -15.516  42.243 -10.553  0.00  0.00    +0.000 HD
ATOM     11  H   UNL     1     -14.338  41.345 -11.447  0.00  0.00    +0.000 HD
ENDBRANCH   3   9
BRANCH   2  12
ATOM     12  N   UNL     1     -18.458  40.994 -12.870  0.00  0.00    +0.000 N 
ATOM     13  H   UNL     1     -18.692  40.197 -13.453  0.00  0.00    +0.000 HD
BRANCH  12  14
ATOM     14  C   UNL     1     -18.414  42.277 -13.540  0.00  0.00    +0.000 C 
ATOM     15  C   UNL     1     -17.939  43.329 -12.544  0.00  0.00    +0.000 C 
BRANCH  14  16
ATOM     16  C   UNL     1     -19.797  42.634 -14.097  0.00  0.00    +0.000 C 
ATOM     17  C   UNL     1     -19.731  43.209 -15.506  0.00  0.00    +0.000 C 
ENDBRANCH  14  16
ENDBRANCH  12  14
ENDBRANCH   2  12
TORSDOF 4
ENDMDL
