MODEL 1
REMARK VINA RESULT:    -6.106      0.000      0.000
REMARK INTER + INTRA:          -8.592
REMARK INTER:                  -7.891
REMARK INTRA:                  -0.701
REMARK UNBOUND:                -0.701
REMARK  Name = 43107908
REMARK  7 active torsions:
REMARK  status: ('A' for Active; 'I' for Inactive)
REMARK    1  A    between atoms: N_2  and  C_5
REMARK    2  A    between atoms: N_2  and  C_9
REMARK    3  A    between atoms: C_5  and  C_6
REMARK    4  A    between atoms: C_5  and  C_8
REMARK    5  A    between atoms: C_6  and  C_7
REMARK    6  A    between atoms: C_7  and  C_10
REMARK    7  A    between atoms: C_11  and  C_13
REMARK                            x       y       z     vdW  Elec       q    Type
REMARK                         _______ _______ _______ _____ _____    ______ ____
ROOT
ATOM      1  N   UNL     1     -18.469  42.219  -8.336  0.00  0.00    +0.000 NA
ATOM      2  C   UNL     1     -18.400  41.534  -9.499  0.00  0.00    +0.000 A 
ATOM      3  C   UNL     1     -19.374  40.652  -9.939  0.00  0.00    +0.000 A 
ATOM      4  C   UNL     1     -20.491  40.461  -9.133  0.00  0.00    +0.000 A 
ATOM      5  C   UNL     1     -19.570  42.008  -7.579  0.00  0.00    +0.000 A 
ATOM      6  C   UNL     1     -20.599  41.149  -7.930  0.00  0.00    +0.000 A 
ENDROOT
BRANCH   3   9
ATOM      7  O   UNL     1     -18.526  38.936 -11.312  0.00  0.00    +0.000 OA
ATOM      8  N   UNL     1     -20.048  40.364 -12.262  0.00  0.00    +0.000 N 
ATOM      9  C   UNL     1     -19.269  39.925 -11.196  0.00  0.00    +0.000 C 
ATOM     10  H   UNL     1     -20.667  41.164 -12.183  0.00  0.00    +0.000 HD
ATOM     11  H   UNL     1     -20.020  39.890 -13.159  0.00  0.00    +0.000 HD
ENDBRANCH   3   9
BRANCH   2  12
ATOM     12  N   UNL     1     -17.284  41.726 -10.293  0.00  0.00    +0.000 N 
ATOM     13  H   UNL     1     -16.902  40.907 -10.755  0.00  0.00    +0.000 HD
BRANCH  12  14
ATOM     14  C   UNL     1     -16.920  43.005 -10.866  0.00  0.00    +0.000 C 
ATOM     15  C   UNL     1     -17.895  43.330 -11.993  0.00  0.00    +0.000 C 
BRANCH  14  16
ATOM     16  C   UNL     1     -15.475  42.963 -11.384  0.00  0.00    +0.000 C 
BRANCH  16  17
ATOM     17  C   UNL     1     -15.243  43.926 -12.552  0.00  0.00    +0.000 C 
ATOM     18  C   UNL     1     -14.639  45.239 -12.077  0.00  0.00    +0.000 C 
ENDBRANCH  16  17
ENDBRANCH  14  16
ENDBRANCH  12  14
ENDBRANCH   2  12
TORSDOF 5
ENDMDL
MODEL 2
REMARK VINA RESULT:    -5.523      1.885      5.023
REMARK INTER + INTRA:          -7.838
REMARK INTER:                  -7.121
REMARK INTRA:                  -0.717
REMARK UNBOUND:                -0.701
REMARK  Name = 43107908
REMARK  7 active torsions:
REMARK  status: ('A' for Active; 'I' for Inactive)
REMARK    1  A    between atoms: N_2  and  C_5
REMARK    2  A    between atoms: N_2  and  C_9
REMARK    3  A    between atoms: C_5  and  C_6
REMARK    4  A    between atoms: C_5  and  C_8
REMARK    5  A    between atoms: C_6  and  C_7
REMARK    6  A    between atoms: C_7  and  C_10
REMARK    7  A    between atoms: C_11  and  C_13
REMARK                            x       y       z     vdW  Elec       q    Type
REMARK                         _______ _______ _______ _____ _____    ______ ____
ROOT
ATOM      1  N   UNL     1     -16.600  42.214 -10.907  0.00  0.00    +0.000 NA
ATOM      2  C   UNL     1     -17.711  42.253 -11.677  0.00  0.00    +0.000 A 
ATOM      3  C   UNL     1     -17.806  42.957 -12.867  0.00  0.00    +0.000 A 
ATOM      4  C   UNL     1     -16.689  43.667 -13.293  0.00  0.00    +0.000 A 
ATOM      5  C   UNL     1     -15.535  42.917 -11.354  0.00  0.00    +0.000 A 
ATOM      6  C   UNL     1     -15.528  43.652 -12.527  0.00  0.00    +0.000 A 
ENDROOT
BRANCH   3   9
ATOM      7  O   UNL     1     -19.545  41.934 -14.081  0.00  0.00    +0.000 OA
ATOM      8  N   UNL     1     -19.577  44.223 -13.959  0.00  0.00    +0.000 N 
ATOM      9  C   UNL     1     -19.017  42.982 -13.674  0.00  0.00    +0.000 C 
ATOM     10  H   UNL     1     -19.165  45.090 -13.628  0.00  0.00    +0.000 HD
ATOM     11  H   UNL     1     -20.425  44.299 -14.511  0.00  0.00    +0.000 HD
ENDBRANCH   3   9
BRANCH   2  12
ATOM     12  N   UNL     1     -18.819  41.546 -11.245  0.00  0.00    +0.000 N 
ATOM     13  H   UNL     1     -19.705  41.767 -11.687  0.00  0.00    +0.000 HD
BRANCH  12  14
ATOM     14  C   UNL     1     -18.740  40.258 -10.588  0.00  0.00    +0.000 C 
ATOM     15  C   UNL     1     -19.248  39.189 -11.550  0.00  0.00    +0.000 C 
BRANCH  14  16
ATOM     16  C   UNL     1     -19.567  40.270  -9.294  0.00  0.00    +0.000 C 
BRANCH  16  17
ATOM     17  C   UNL     1     -19.020  41.255  -8.258  0.00  0.00    +0.000 C 
ATOM     18  C   UNL     1     -20.049  41.554  -7.179  0.00  0.00    +0.000 C 
ENDBRANCH  16  17
ENDBRANCH  14  16
ENDBRANCH  12  14
ENDBRANCH   2  12
TORSDOF 5
ENDMDL
MODEL 3
REMARK VINA RESULT:    -5.447      2.026      3.502
REMARK INTER + INTRA:          -7.741
REMARK INTER:                  -6.810
REMARK INTRA:                  -0.931
REMARK UNBOUND:                -0.701
REMARK  Name = 43107908
REMARK  7 active torsions:
REMARK  status: ('A' for Active; 'I' for Inactive)
REMARK    1  A    between atoms: N_2  and  C_5
REMARK    2  A    between atoms: N_2  and  C_9
REMARK    3  A    between atoms: C_5  and  C_6
REMARK    4  A    between atoms: C_5  and  C_8
REMARK    5  A    between atoms: C_6  and  C_7
REMARK    6  A    between atoms: C_7  and  C_10
REMARK    7  A    between atoms: C_11  and  C_13
REMARK                            x       y       z     vdW  Elec       q    Type
REMARK                         _______ _______ _______ _____ _____    ______ ____
ROOT
ATOM      1  N   UNL     1     -17.134  40.534 -12.629  0.00  0.00    +0.000 NA
ATOM      2  C   UNL     1     -17.203  41.032 -11.374  0.00  0.00    +0.000 A 
ATOM      3  C   UNL     1     -18.244  40.780 -10.495  0.00  0.00    +0.000 A 
ATOM      4  C   UNL     1     -19.283  39.966 -10.933  0.00  0.00    +0.000 A 
ATOM      5  C   UNL     1     -18.162  39.746 -13.019  0.00  0.00    +0.000 A 
ATOM      6  C   UNL     1     -19.248  39.435 -12.218  0.00  0.00    +0.000 A 
ENDROOT
BRANCH   3   9
ATOM      7  O   UNL     1     -18.037  42.530  -8.932  0.00  0.00    +0.000 OA
ATOM      8  N   UNL     1     -18.653  40.479  -8.113  0.00  0.00    +0.000 N 
ATOM      9  C   UNL     1     -18.292  41.333  -9.149  0.00  0.00    +0.000 C 
ATOM     10  H   UNL     1     -18.873  39.501  -8.272  0.00  0.00    +0.000 HD
ATOM     11  H   UNL     1     -18.709  40.813  -7.156  0.00  0.00    +0.000 HD
ENDBRANCH   3   9
BRANCH   2  12
ATOM     12  N   UNL     1     -16.167  41.844 -10.946  0.00  0.00    +0.000 N 
ATOM     13  H   UNL     1     -15.576  41.482 -10.205  0.00  0.00    +0.000 HD
BRANCH  12  14
ATOM     14  C   UNL     1     -15.599  42.905 -11.750  0.00  0.00    +0.000 C 
ATOM     15  C   UNL     1     -14.247  43.293 -11.160  0.00  0.00    +0.000 C 
BRANCH  14  16
ATOM     16  C   UNL     1     -16.549  44.111 -11.786  0.00  0.00    +0.000 C 
BRANCH  16  17
ATOM     17  C   UNL     1     -17.177  44.323 -13.166  0.00  0.00    +0.000 C 
ATOM     18  C   UNL     1     -18.633  43.884 -13.186  0.00  0.00    +0.000 C 
ENDBRANCH  16  17
ENDBRANCH  14  16
ENDBRANCH  12  14
ENDBRANCH   2  12
TORSDOF 5
ENDMDL
MODEL 4
REMARK VINA RESULT:    -5.062      1.833      3.053
REMARK INTER + INTRA:          -7.243
REMARK INTER:                  -6.875
REMARK INTRA:                  -0.368
REMARK UNBOUND:                -0.701
REMARK  Name = 43107908
REMARK  7 active torsions:
REMARK  status: ('A' for Active; 'I' for Inactive)
REMARK    1  A    between atoms: N_2  and  C_5
REMARK    2  A    between atoms: N_2  and  C_9
REMARK    3  A    between atoms: C_5  and  C_6
REMARK    4  A    between atoms: C_5  and  C_8
REMARK    5  A    between atoms: C_6  and  C_7
REMARK    6  A    between atoms: C_7  and  C_10
REMARK    7  A    between atoms: C_11  and  C_13
REMARK                            x       y       z     vdW  Elec       q    Type
REMARK                         _______ _______ _______ _____ _____    ______ ____
ROOT
ATOM      1  N   UNL     1     -17.271  40.743 -12.403  0.00  0.00    +0.000 NA
ATOM      2  C   UNL     1     -17.419  41.182 -11.133  0.00  0.00    +0.000 A 
ATOM      3  C   UNL     1     -18.415  40.746 -10.273  0.00  0.00    +0.000 A 
ATOM      4  C   UNL     1     -19.316  39.799 -10.747  0.00  0.00    +0.000 A 
ATOM      5  C   UNL     1     -18.166  39.822 -12.828  0.00  0.00    +0.000 A 
ATOM      6  C   UNL     1     -19.196  39.324 -12.048  0.00  0.00    +0.000 A 
ENDROOT
BRANCH   3   9
ATOM      7  O   UNL     1     -18.422  42.446  -8.643  0.00  0.00    +0.000 OA
ATOM      8  N   UNL     1     -18.853  40.315  -7.916  0.00  0.00    +0.000 N 
ATOM      9  C   UNL     1     -18.551  41.240  -8.910  0.00  0.00    +0.000 C 
ATOM     10  H   UNL     1     -18.971  39.327  -8.116  0.00  0.00    +0.000 HD
ATOM     11  H   UNL     1     -18.967  40.605  -6.950  0.00  0.00    +0.000 HD
ENDBRANCH   3   9
BRANCH   2  12
ATOM     12  N   UNL     1     -16.521  42.126 -10.669  0.00  0.00    +0.000 N 
ATOM     13  H   UNL     1     -15.726  41.782 -10.139  0.00  0.00    +0.000 HD
BRANCH  12  14
ATOM     14  C   UNL     1     -16.374  43.444 -11.250  0.00  0.00    +0.000 C 
ATOM     15  C   UNL     1     -17.726  43.890 -11.796  0.00  0.00    +0.000 C 
BRANCH  14  16
ATOM     16  C   UNL     1     -15.314  43.420 -12.361  0.00  0.00    +0.000 C 
BRANCH  16  17
ATOM     17  C   UNL     1     -13.901  43.676 -11.829  0.00  0.00    +0.000 C 
ATOM     18  C   UNL     1     -13.630  45.164 -11.667  0.00  0.00    +0.000 C 
ENDBRANCH  16  17
ENDBRANCH  14  16
ENDBRANCH  12  14
ENDBRANCH   2  12
TORSDOF 5
ENDMDL
MODEL 5
REMARK VINA RESULT:    -4.899      2.585      5.439
REMARK INTER + INTRA:          -7.031
REMARK INTER:                  -6.268
REMARK INTRA:                  -0.763
REMARK UNBOUND:                -0.701
REMARK  Name = 43107908
REMARK  7 active torsions:
REMARK  status: ('A' for Active; 'I' for Inactive)
REMARK    1  A    between atoms: N_2  and  C_5
REMARK    2  A    between atoms: N_2  and  C_9
REMARK    3  A    between atoms: C_5  and  C_6
REMARK    4  A    between atoms: C_5  and  C_8
REMARK    5  A    between atoms: C_6  and  C_7
REMARK    6  A    between atoms: C_7  and  C_10
REMARK    7  A    between atoms: C_11  and  C_13
REMARK                            x       y       z     vdW  Elec       q    Type
REMARK                         _______ _______ _______ _____ _____    ______ ____
ROOT
ATOM      1  N   UNL     1     -19.930  42.301 -14.120  0.00  0.00    +0.000 NA
ATOM      2  C   UNL     1     -19.093  42.667 -13.123  0.00  0.00    +0.000 A 
ATOM      3  C   UNL     1     -18.297  43.802 -13.155  0.00  0.00    +0.000 A 
ATOM      4  C   UNL     1     -18.365  44.612 -14.283  0.00  0.00    +0.000 A 
ATOM      5  C   UNL     1     -19.968  43.114 -15.200  0.00  0.00    +0.000 A 
ATOM      6  C   UNL     1     -19.214  44.268 -15.329  0.00  0.00    +0.000 A 
ENDROOT
BRANCH   3   9
ATOM      7  O   UNL     1     -16.395  43.493 -11.801  0.00  0.00    +0.000 OA
ATOM      8  N   UNL     1     -17.704  45.318 -11.344  0.00  0.00    +0.000 N 
ATOM      9  C   UNL     1     -17.403  44.169 -12.067  0.00  0.00    +0.000 C 
ATOM     10  H   UNL     1     -18.518  45.888 -11.552  0.00  0.00    +0.000 HD
ATOM     11  H   UNL     1     -17.111  45.625 -10.580  0.00  0.00    +0.000 HD
ENDBRANCH   3   9
BRANCH   2  12
ATOM     12  N   UNL     1     -19.029  41.855 -12.005  0.00  0.00    +0.000 N 
ATOM     13  H   UNL     1     -19.784  41.938 -11.333  0.00  0.00    +0.000 HD
BRANCH  12  14
ATOM     14  C   UNL     1     -18.265  40.626 -11.952  0.00  0.00    +0.000 C 
ATOM     15  C   UNL     1     -19.180  39.465 -12.327  0.00  0.00    +0.000 C 
BRANCH  14  16
ATOM     16  C   UNL     1     -17.674  40.428 -10.549  0.00  0.00    +0.000 C 
BRANCH  16  17
ATOM     17  C   UNL     1     -18.205  41.450  -9.540  0.00  0.00    +0.000 C 
ATOM     18  C   UNL     1     -18.840  40.765  -8.339  0.00  0.00    +0.000 C 
ENDBRANCH  16  17
ENDBRANCH  14  16
ENDBRANCH  12  14
ENDBRANCH   2  12
TORSDOF 5
ENDMDL
