MODEL 1
REMARK VINA RESULT:    -5.575      0.000      0.000
REMARK INTER + INTRA:          -8.251
REMARK INTER:                  -7.693
REMARK INTRA:                  -0.558
REMARK UNBOUND:                -0.558
REMARK  Name = 43137124
REMARK  8 active torsions:
REMARK  status: ('A' for Active; 'I' for Inactive)
REMARK    1  A    between atoms: N_2  and  C_6
REMARK    2  A    between atoms: N_2  and  C_8
REMARK    3  A    between atoms: N_2  and  C_9
REMARK    4  A    between atoms: N_4  and  C_10
REMARK    5  A    between atoms: C_6  and  C_7
REMARK    6  A    between atoms: C_7  and  C_10
REMARK    7  A    between atoms: C_8  and  C_12
REMARK    8  A    between atoms: C_11  and  C_14
REMARK                            x       y       z     vdW  Elec       q    Type
REMARK                         _______ _______ _______ _____ _____    ______ ____
ROOT
ATOM      1  N   UNL     1     -18.182  42.383  -8.971  0.00  0.00    +0.000 NA
ATOM      2  C   UNL     1     -18.225  41.821 -10.199  0.00  0.00    +0.000 A 
ATOM      3  C   UNL     1     -18.976  40.700 -10.515  0.00  0.00    +0.000 A 
ATOM      4  C   UNL     1     -19.733  40.118  -9.504  0.00  0.00    +0.000 A 
ATOM      5  C   UNL     1     -18.931  41.789  -8.014  0.00  0.00    +0.000 A 
ATOM      6  C   UNL     1     -19.715  40.667  -8.227  0.00  0.00    +0.000 A 
ENDROOT
BRANCH   3   9
ATOM      7  O   UNL     1     -18.080  39.380 -12.248  0.00  0.00    +0.000 OA
ATOM      8  N   UNL     1     -20.095  40.395 -12.658  0.00  0.00    +0.000 N 
ATOM      9  C   UNL     1     -18.999  40.116 -11.849  0.00  0.00    +0.000 C 
ATOM     10  H   UNL     1     -20.860  40.985 -12.345  0.00  0.00    +0.000 HD
ATOM     11  H   UNL     1     -20.165  40.011 -13.593  0.00  0.00    +0.000 HD
ENDBRANCH   3   9
BRANCH   2  12
ATOM     12  N   UNL     1     -17.457  42.411 -11.214  0.00  0.00    +0.000 N 
BRANCH  12  13
ATOM     13  C   UNL     1     -16.091  41.946 -11.461  0.00  0.00    +0.000 C 
ATOM     14  C   UNL     1     -15.112  43.094 -11.305  0.00  0.00    +0.000 C 
ENDBRANCH  12  13
BRANCH  12  15
ATOM     15  C   UNL     1     -17.986  43.473 -12.038  0.00  0.00    +0.000 C 
BRANCH  15  16
ATOM     16  C   UNL     1     -17.939  43.093 -13.516  0.00  0.00    +0.000 C 
BRANCH  16  17
ATOM     17  C   UNL     1     -19.110  43.680 -14.308  0.00  0.00    +0.000 C 
BRANCH  17  18
ATOM     18  N   UNL     1     -19.926  42.610 -14.869  0.00  0.00    +0.000 NA
ATOM     19  H   UNL     1     -19.358  41.771 -14.986  0.00  0.00    +0.000 HD
ATOM     20  H   UNL     1     -20.237  42.877 -15.803  0.00  0.00    +0.000 HD
ENDBRANCH  17  18
ENDBRANCH  16  17
ENDBRANCH  15  16
ENDBRANCH  12  15
ENDBRANCH   2  12
TORSDOF 7
ENDMDL
MODEL 2
REMARK VINA RESULT:    -4.946      1.919      5.057
REMARK INTER + INTRA:          -7.384
REMARK INTER:                  -7.013
REMARK INTRA:                  -0.371
REMARK UNBOUND:                -0.558
REMARK  Name = 43137124
REMARK  8 active torsions:
REMARK  status: ('A' for Active; 'I' for Inactive)
REMARK    1  A    between atoms: N_2  and  C_6
REMARK    2  A    between atoms: N_2  and  C_8
REMARK    3  A    between atoms: N_2  and  C_9
REMARK    4  A    between atoms: N_4  and  C_10
REMARK    5  A    between atoms: C_6  and  C_7
REMARK    6  A    between atoms: C_7  and  C_10
REMARK    7  A    between atoms: C_8  and  C_12
REMARK    8  A    between atoms: C_11  and  C_14
REMARK                            x       y       z     vdW  Elec       q    Type
REMARK                         _______ _______ _______ _____ _____    ______ ____
ROOT
ATOM      1  N   UNL     1     -19.608  41.954 -13.899  0.00  0.00    +0.000 NA
ATOM      2  C   UNL     1     -18.506  42.154 -13.141  0.00  0.00    +0.000 A 
ATOM      3  C   UNL     1     -17.728  43.299 -13.190  0.00  0.00    +0.000 A 
ATOM      4  C   UNL     1     -18.105  44.305 -14.073  0.00  0.00    +0.000 A 
ATOM      5  C   UNL     1     -19.943  42.954 -14.745  0.00  0.00    +0.000 A 
ATOM      6  C   UNL     1     -19.232  44.137 -14.869  0.00  0.00    +0.000 A 
ENDROOT
BRANCH   3   9
ATOM      7  O   UNL     1     -16.618  43.993 -11.231  0.00  0.00    +0.000 OA
ATOM      8  N   UNL     1     -15.324  43.052 -12.875  0.00  0.00    +0.000 N 
ATOM      9  C   UNL     1     -16.543  43.483 -12.363  0.00  0.00    +0.000 C 
ATOM     10  H   UNL     1     -15.245  42.624 -13.792  0.00  0.00    +0.000 HD
ATOM     11  H   UNL     1     -14.469  43.152 -12.339  0.00  0.00    +0.000 HD
ENDBRANCH   3   9
BRANCH   2  12
ATOM     12  N   UNL     1     -18.130  41.134 -12.255  0.00  0.00    +0.000 N 
BRANCH  12  13
ATOM     13  C   UNL     1     -17.348  39.996 -12.741  0.00  0.00    +0.000 C 
ATOM     14  C   UNL     1     -16.207  39.701 -11.786  0.00  0.00    +0.000 C 
ENDBRANCH  12  13
BRANCH  12  15
ATOM     15  C   UNL     1     -18.488  41.181 -10.857  0.00  0.00    +0.000 C 
BRANCH  15  16
ATOM     16  C   UNL     1     -19.559  40.143 -10.532  0.00  0.00    +0.000 C 
BRANCH  16  17
ATOM     17  C   UNL     1     -19.959  40.157  -9.055  0.00  0.00    +0.000 C 
BRANCH  17  18
ATOM     18  N   UNL     1     -18.794  40.421  -8.220  0.00  0.00    +0.000 NA
ATOM     19  H   UNL     1     -18.795  41.399  -7.928  0.00  0.00    +0.000 HD
ATOM     20  H   UNL     1     -17.946  40.290  -8.771  0.00  0.00    +0.000 HD
ENDBRANCH  17  18
ENDBRANCH  16  17
ENDBRANCH  15  16
ENDBRANCH  12  15
ENDBRANCH   2  12
TORSDOF 7
ENDMDL
MODEL 3
REMARK VINA RESULT:    -4.146     13.437     14.642
REMARK INTER + INTRA:          -6.279
REMARK INTER:                  -5.760
REMARK INTRA:                  -0.519
REMARK UNBOUND:                -0.558
REMARK  Name = 43137124
REMARK  8 active torsions:
REMARK  status: ('A' for Active; 'I' for Inactive)
REMARK    1  A    between atoms: N_2  and  C_6
REMARK    2  A    between atoms: N_2  and  C_8
REMARK    3  A    between atoms: N_2  and  C_9
REMARK    4  A    between atoms: N_4  and  C_10
REMARK    5  A    between atoms: C_6  and  C_7
REMARK    6  A    between atoms: C_7  and  C_10
REMARK    7  A    between atoms: C_8  and  C_12
REMARK    8  A    between atoms: C_11  and  C_14
REMARK                            x       y       z     vdW  Elec       q    Type
REMARK                         _______ _______ _______ _____ _____    ______ ____
ROOT
ATOM      1  N   UNL     1     -33.021  42.561 -15.010  0.00  0.00    +0.000 NA
ATOM      2  C   UNL     1     -32.145  43.495 -15.444  0.00  0.00    +0.000 A 
ATOM      3  C   UNL     1     -31.677  44.541 -14.665  0.00  0.00    +0.000 A 
ATOM      4  C   UNL     1     -32.135  44.634 -13.356  0.00  0.00    +0.000 A 
ATOM      5  C   UNL     1     -33.445  42.685 -13.732  0.00  0.00    +0.000 A 
ATOM      6  C   UNL     1     -33.037  43.693 -12.873  0.00  0.00    +0.000 A 
ENDROOT
BRANCH   3   9
ATOM      7  O   UNL     1     -31.118  46.515 -15.823  0.00  0.00    +0.000 OA
ATOM      8  N   UNL     1     -29.389  45.356 -14.860  0.00  0.00    +0.000 N 
ATOM      9  C   UNL     1     -30.734  45.534 -15.163  0.00  0.00    +0.000 C 
ATOM     10  H   UNL     1     -29.058  44.567 -14.314  0.00  0.00    +0.000 HD
ATOM     11  H   UNL     1     -28.691  46.020 -15.177  0.00  0.00    +0.000 HD
ENDBRANCH   3   9
BRANCH   2  12
ATOM     12  N   UNL     1     -31.689  43.396 -16.766  0.00  0.00    +0.000 N 
BRANCH  12  13
ATOM     13  C   UNL     1     -32.423  44.060 -17.844  0.00  0.00    +0.000 C 
ATOM     14  C   UNL     1     -31.458  44.560 -18.902  0.00  0.00    +0.000 C 
ENDBRANCH  12  13
BRANCH  12  15
ATOM     15  C   UNL     1     -30.494  42.656 -17.097  0.00  0.00    +0.000 C 
BRANCH  15  16
ATOM     16  C   UNL     1     -30.808  41.178 -17.316  0.00  0.00    +0.000 C 
BRANCH  16  17
ATOM     17  C   UNL     1     -31.006  40.834 -18.793  0.00  0.00    +0.000 C 
BRANCH  17  18
ATOM     18  N   UNL     1     -32.422  40.635 -19.080  0.00  0.00    +0.000 NA
ATOM     19  H   UNL     1     -32.915  40.390 -18.222  0.00  0.00    +0.000 HD
ATOM     20  H   UNL     1     -32.530  39.838 -19.708  0.00  0.00    +0.000 HD
ENDBRANCH  17  18
ENDBRANCH  16  17
ENDBRANCH  15  16
ENDBRANCH  12  15
ENDBRANCH   2  12
TORSDOF 7
ENDMDL
MODEL 4
REMARK VINA RESULT:    -3.925     19.313     21.882
REMARK INTER + INTRA:          -5.975
REMARK INTER:                  -5.305
REMARK INTRA:                  -0.670
REMARK UNBOUND:                -0.558
REMARK  Name = 43137124
REMARK  8 active torsions:
REMARK  status: ('A' for Active; 'I' for Inactive)
REMARK    1  A    between atoms: N_2  and  C_6
REMARK    2  A    between atoms: N_2  and  C_8
REMARK    3  A    between atoms: N_2  and  C_9
REMARK    4  A    between atoms: N_4  and  C_10
REMARK    5  A    between atoms: C_6  and  C_7
REMARK    6  A    between atoms: C_7  and  C_10
REMARK    7  A    between atoms: C_8  and  C_12
REMARK    8  A    between atoms: C_11  and  C_14
REMARK                            x       y       z     vdW  Elec       q    Type
REMARK                         _______ _______ _______ _____ _____    ______ ____
ROOT
ATOM      1  N   UNL     1     -21.083  31.214   5.820  0.00  0.00    +0.000 NA
ATOM      2  C   UNL     1     -21.804  30.081   5.674  0.00  0.00    +0.000 A 
ATOM      3  C   UNL     1     -21.805  29.304   4.527  0.00  0.00    +0.000 A 
ATOM      4  C   UNL     1     -21.012  29.715   3.461  0.00  0.00    +0.000 A 
ATOM      5  C   UNL     1     -20.324  31.582   4.763  0.00  0.00    +0.000 A 
ATOM      6  C   UNL     1     -20.255  30.875   3.573  0.00  0.00    +0.000 A 
ENDROOT
BRANCH   3   9
ATOM      7  O   UNL     1     -23.690  28.088   3.805  0.00  0.00    +0.000 OA
ATOM      8  N   UNL     1     -22.081  26.919   4.948  0.00  0.00    +0.000 N 
ATOM      9  C   UNL     1     -22.598  28.088   4.399  0.00  0.00    +0.000 C 
ATOM     10  H   UNL     1     -21.187  26.898   5.427  0.00  0.00    +0.000 HD
ATOM     11  H   UNL     1     -22.589  26.044   4.883  0.00  0.00    +0.000 HD
ENDBRANCH   3   9
BRANCH   2  12
ATOM     12  N   UNL     1     -22.604  29.674   6.751  0.00  0.00    +0.000 N 
BRANCH  12  13
ATOM     13  C   UNL     1     -21.996  29.001   7.900  0.00  0.00    +0.000 C 
ATOM     14  C   UNL     1     -21.651  30.015   8.975  0.00  0.00    +0.000 C 
ENDBRANCH  12  13
BRANCH  12  15
ATOM     15  C   UNL     1     -24.029  29.909   6.763  0.00  0.00    +0.000 C 
BRANCH  15  16
ATOM     16  C   UNL     1     -24.757  28.824   7.552  0.00  0.00    +0.000 C 
BRANCH  16  17
ATOM     17  C   UNL     1     -25.749  28.039   6.691  0.00  0.00    +0.000 C 
BRANCH  17  18
ATOM     18  N   UNL     1     -25.100  26.869   6.111  0.00  0.00    +0.000 NA
ATOM     19  H   UNL     1     -25.387  26.032   6.618  0.00  0.00    +0.000 HD
ATOM     20  H   UNL     1     -24.090  26.947   6.237  0.00  0.00    +0.000 HD
ENDBRANCH  17  18
ENDBRANCH  16  17
ENDBRANCH  15  16
ENDBRANCH  12  15
ENDBRANCH   2  12
TORSDOF 7
ENDMDL
MODEL 5
REMARK VINA RESULT:    -3.842     21.752     23.571
REMARK INTER + INTRA:          -5.859
REMARK INTER:                  -5.273
REMARK INTRA:                  -0.586
REMARK UNBOUND:                -0.558
REMARK  Name = 43137124
REMARK  8 active torsions:
REMARK  status: ('A' for Active; 'I' for Inactive)
REMARK    1  A    between atoms: N_2  and  C_6
REMARK    2  A    between atoms: N_2  and  C_8
REMARK    3  A    between atoms: N_2  and  C_9
REMARK    4  A    between atoms: N_4  and  C_10
REMARK    5  A    between atoms: C_6  and  C_7
REMARK    6  A    between atoms: C_7  and  C_10
REMARK    7  A    between atoms: C_8  and  C_12
REMARK    8  A    between atoms: C_11  and  C_14
REMARK                            x       y       z     vdW  Elec       q    Type
REMARK                         _______ _______ _______ _____ _____    ______ ____
ROOT
ATOM      1  N   UNL     1     -35.100  41.871   7.217  0.00  0.00    +0.000 NA
ATOM      2  C   UNL     1     -34.612  42.764   6.327  0.00  0.00    +0.000 A 
ATOM      3  C   UNL     1     -33.436  42.587   5.616  0.00  0.00    +0.000 A 
ATOM      4  C   UNL     1     -32.715  41.418   5.831  0.00  0.00    +0.000 A 
ATOM      5  C   UNL     1     -34.372  40.747   7.399  0.00  0.00    +0.000 A 
ATOM      6  C   UNL     1     -33.185  40.476   6.738  0.00  0.00    +0.000 A 
ENDROOT
BRANCH   3   9
ATOM      7  O   UNL     1     -33.373  43.631   3.505  0.00  0.00    +0.000 OA
ATOM      8  N   UNL     1     -31.955  44.455   5.107  0.00  0.00    +0.000 N 
ATOM      9  C   UNL     1     -32.933  43.570   4.666  0.00  0.00    +0.000 C 
ATOM     10  H   UNL     1     -31.592  44.427   6.055  0.00  0.00    +0.000 HD
ATOM     11  H   UNL     1     -31.574  45.162   4.489  0.00  0.00    +0.000 HD
ENDBRANCH   3   9
BRANCH   2  12
ATOM     12  N   UNL     1     -35.342  43.942   6.117  0.00  0.00    +0.000 N 
BRANCH  12  13
ATOM     13  C   UNL     1     -34.941  45.181   6.787  0.00  0.00    +0.000 C 
ATOM     14  C   UNL     1     -34.603  44.902   8.240  0.00  0.00    +0.000 C 
ENDBRANCH  12  13
BRANCH  12  15
ATOM     15  C   UNL     1     -36.488  43.972   5.240  0.00  0.00    +0.000 C 
BRANCH  15  16
ATOM     16  C   UNL     1     -36.573  45.300   4.494  0.00  0.00    +0.000 C 
BRANCH  16  17
ATOM     17  C   UNL     1     -36.752  45.115   2.985  0.00  0.00    +0.000 C 
BRANCH  17  18
ATOM     18  N   UNL     1     -36.191  43.837   2.564  0.00  0.00    +0.000 NA
ATOM     19  H   UNL     1     -35.449  43.996   1.882  0.00  0.00    +0.000 HD
ATOM     20  H   UNL     1     -36.909  43.295   2.083  0.00  0.00    +0.000 HD
ENDBRANCH  17  18
ENDBRANCH  16  17
ENDBRANCH  15  16
ENDBRANCH  12  15
ENDBRANCH   2  12
TORSDOF 7
ENDMDL
