MODEL 1
REMARK VINA RESULT:    -6.047      0.000      0.000
REMARK INTER + INTRA:          -9.215
REMARK INTER:                  -8.168
REMARK INTRA:                  -1.046
REMARK UNBOUND:                -1.046
REMARK  Name = 43132057
REMARK  7 active torsions:
REMARK  status: ('A' for Active; 'I' for Inactive)
REMARK    1  A    between atoms: O_1  and  C_8
REMARK    2  A    between atoms: O_1  and  C_15
REMARK    3  A    between atoms: N_3  and  C_7
REMARK    4  A    between atoms: N_3  and  C_9
REMARK    5  A    between atoms: C_6  and  C_7
REMARK    6  A    between atoms: C_6  and  C_8
REMARK    7  A    between atoms: C_10  and  C_13
REMARK                            x       y       z     vdW  Elec       q    Type
REMARK                         _______ _______ _______ _____ _____    ______ ____
ROOT
ATOM      1  N   UNL     1     -18.591  42.248  -8.336  0.00  0.00    +0.000 NA
ATOM      2  C   UNL     1     -18.410  41.568  -9.491  0.00  0.00    +0.000 A 
ATOM      3  C   UNL     1     -19.250  40.561  -9.938  0.00  0.00    +0.000 A 
ATOM      4  C   UNL     1     -20.346  40.230  -9.151  0.00  0.00    +0.000 A 
ATOM      5  C   UNL     1     -20.567  40.907  -7.956  0.00  0.00    +0.000 A 
ATOM      6  C   UNL     1     -19.668  41.898  -7.597  0.00  0.00    +0.000 A 
ENDROOT
BRANCH   3   9
ATOM      7  O   UNL     1     -18.038  39.106 -11.341  0.00  0.00    +0.000 OA
ATOM      8  N   UNL     1     -19.970  39.998 -12.197  0.00  0.00    +0.000 N 
ATOM      9  C   UNL     1     -19.026  39.844 -11.186  0.00  0.00    +0.000 C 
ATOM     10  H   UNL     1     -20.786  40.589 -12.086  0.00  0.00    +0.000 HD
ATOM     11  H   UNL     1     -19.867  39.516 -13.084  0.00  0.00    +0.000 HD
ENDBRANCH   3   9
BRANCH   2  12
ATOM     12  N   UNL     1     -17.313  41.902 -10.270  0.00  0.00    +0.000 N 
ATOM     13  H   UNL     1     -16.808  41.129 -10.693  0.00  0.00    +0.000 HD
BRANCH  12  14
ATOM     14  C   UNL     1     -17.127  43.196 -10.879  0.00  0.00    +0.000 C 
BRANCH  14  15
ATOM     15  C   UNL     1     -17.976  43.334 -12.138  0.00  0.00    +0.000 C 
BRANCH  15  16
ATOM     16  C   UNL     1     -17.538  42.393 -13.256  0.00  0.00    +0.000 C 
BRANCH  16  17
ATOM     17  O   UNL     1     -18.689  41.977 -13.979  0.00  0.00    +0.000 OA
ATOM     18  C   UNL     1     -19.630  43.033 -14.112  0.00  0.00    +0.000 C 
ENDBRANCH  16  17
ENDBRANCH  15  16
ENDBRANCH  14  15
ENDBRANCH  12  14
ENDBRANCH   2  12
TORSDOF 6
ENDMDL
MODEL 2
REMARK VINA RESULT:    -5.533      1.953      4.439
REMARK INTER + INTRA:          -8.521
REMARK INTER:                  -7.870
REMARK INTRA:                  -0.651
REMARK UNBOUND:                -1.046
REMARK  Name = 43132057
REMARK  7 active torsions:
REMARK  status: ('A' for Active; 'I' for Inactive)
REMARK    1  A    between atoms: O_1  and  C_8
REMARK    2  A    between atoms: O_1  and  C_15
REMARK    3  A    between atoms: N_3  and  C_7
REMARK    4  A    between atoms: N_3  and  C_9
REMARK    5  A    between atoms: C_6  and  C_7
REMARK    6  A    between atoms: C_6  and  C_8
REMARK    7  A    between atoms: C_10  and  C_13
REMARK                            x       y       z     vdW  Elec       q    Type
REMARK                         _______ _______ _______ _____ _____    ______ ____
ROOT
ATOM      1  N   UNL     1     -17.468  43.086 -10.243  0.00  0.00    +0.000 NA
ATOM      2  C   UNL     1     -17.941  41.832 -10.423  0.00  0.00    +0.000 A 
ATOM      3  C   UNL     1     -18.370  41.333 -11.643  0.00  0.00    +0.000 A 
ATOM      4  C   UNL     1     -18.308  42.173 -12.748  0.00  0.00    +0.000 A 
ATOM      5  C   UNL     1     -17.827  43.470 -12.603  0.00  0.00    +0.000 A 
ATOM      6  C   UNL     1     -17.423  43.874 -11.341  0.00  0.00    +0.000 A 
ENDROOT
BRANCH   3   9
ATOM      7  O   UNL     1     -18.324  39.009 -11.259  0.00  0.00    +0.000 OA
ATOM      8  N   UNL     1     -20.022  39.805 -12.580  0.00  0.00    +0.000 N 
ATOM      9  C   UNL     1     -18.879  39.978 -11.805  0.00  0.00    +0.000 C 
ATOM     10  H   UNL     1     -20.492  40.585 -13.026  0.00  0.00    +0.000 HD
ATOM     11  H   UNL     1     -20.422  38.884 -12.720  0.00  0.00    +0.000 HD
ENDBRANCH   3   9
BRANCH   2  12
ATOM     12  N   UNL     1     -18.003  41.001  -9.316  0.00  0.00    +0.000 N 
ATOM     13  H   UNL     1     -17.177  40.442  -9.124  0.00  0.00    +0.000 HD
BRANCH  12  14
ATOM     14  C   UNL     1     -18.907  41.205  -8.210  0.00  0.00    +0.000 C 
BRANCH  14  15
ATOM     15  C   UNL     1     -20.137  40.314  -8.339  0.00  0.00    +0.000 C 
BRANCH  15  16
ATOM     16  C   UNL     1     -21.434  41.040  -8.003  0.00  0.00    +0.000 C 
BRANCH  16  17
ATOM     17  O   UNL     1     -21.125  42.194  -7.232  0.00  0.00    +0.000 OA
ATOM     18  C   UNL     1     -22.282  42.724  -6.599  0.00  0.00    +0.000 C 
ENDBRANCH  16  17
ENDBRANCH  15  16
ENDBRANCH  14  15
ENDBRANCH  12  14
ENDBRANCH   2  12
TORSDOF 6
ENDMDL
MODEL 3
REMARK VINA RESULT:    -5.223      2.203      4.890
REMARK INTER + INTRA:          -8.101
REMARK INTER:                  -7.537
REMARK INTRA:                  -0.564
REMARK UNBOUND:                -1.046
REMARK  Name = 43132057
REMARK  7 active torsions:
REMARK  status: ('A' for Active; 'I' for Inactive)
REMARK    1  A    between atoms: O_1  and  C_8
REMARK    2  A    between atoms: O_1  and  C_15
REMARK    3  A    between atoms: N_3  and  C_7
REMARK    4  A    between atoms: N_3  and  C_9
REMARK    5  A    between atoms: C_6  and  C_7
REMARK    6  A    between atoms: C_6  and  C_8
REMARK    7  A    between atoms: C_10  and  C_13
REMARK                            x       y       z     vdW  Elec       q    Type
REMARK                         _______ _______ _______ _____ _____    ______ ____
ROOT
ATOM      1  N   UNL     1     -19.621  41.527 -11.884  0.00  0.00    +0.000 NA
ATOM      2  C   UNL     1     -18.483  40.947 -11.444  0.00  0.00    +0.000 A 
ATOM      3  C   UNL     1     -17.251  41.089 -12.062  0.00  0.00    +0.000 A 
ATOM      4  C   UNL     1     -17.182  41.879 -13.204  0.00  0.00    +0.000 A 
ATOM      5  C   UNL     1     -18.332  42.494 -13.687  0.00  0.00    +0.000 A 
ATOM      6  C   UNL     1     -19.516  42.288 -12.997  0.00  0.00    +0.000 A 
ENDROOT
BRANCH   3   9
ATOM      7  O   UNL     1     -15.872  39.220 -11.664  0.00  0.00    +0.000 OA
ATOM      8  N   UNL     1     -15.067  41.259 -10.993  0.00  0.00    +0.000 N 
ATOM      9  C   UNL     1     -16.041  40.447 -11.566  0.00  0.00    +0.000 C 
ATOM     10  H   UNL     1     -15.184  42.264 -10.912  0.00  0.00    +0.000 HD
ATOM     11  H   UNL     1     -14.203  40.866 -10.638  0.00  0.00    +0.000 HD
ENDBRANCH   3   9
BRANCH   2  12
ATOM     12  N   UNL     1     -18.559  40.158 -10.307  0.00  0.00    +0.000 N 
ATOM     13  H   UNL     1     -17.714  39.659 -10.046  0.00  0.00    +0.000 HD
BRANCH  12  14
ATOM     14  C   UNL     1     -19.535  40.351  -9.262  0.00  0.00    +0.000 C 
BRANCH  14  15
ATOM     15  C   UNL     1     -19.047  41.374  -8.242  0.00  0.00    +0.000 C 
BRANCH  15  16
ATOM     16  C   UNL     1     -20.076  41.666  -7.156  0.00  0.00    +0.000 C 
BRANCH  16  17
ATOM     17  O   UNL     1     -21.378  41.521  -7.709  0.00  0.00    +0.000 OA
ATOM     18  C   UNL     1     -22.345  42.245  -6.961  0.00  0.00    +0.000 C 
ENDBRANCH  16  17
ENDBRANCH  15  16
ENDBRANCH  14  15
ENDBRANCH  12  14
ENDBRANCH   2  12
TORSDOF 6
ENDMDL
MODEL 4
REMARK VINA RESULT:    -5.217      1.933      2.531
REMARK INTER + INTRA:          -8.093
REMARK INTER:                  -7.313
REMARK INTRA:                  -0.780
REMARK UNBOUND:                -1.046
REMARK  Name = 43132057
REMARK  7 active torsions:
REMARK  status: ('A' for Active; 'I' for Inactive)
REMARK    1  A    between atoms: O_1  and  C_8
REMARK    2  A    between atoms: O_1  and  C_15
REMARK    3  A    between atoms: N_3  and  C_7
REMARK    4  A    between atoms: N_3  and  C_9
REMARK    5  A    between atoms: C_6  and  C_7
REMARK    6  A    between atoms: C_6  and  C_8
REMARK    7  A    between atoms: C_10  and  C_13
REMARK                            x       y       z     vdW  Elec       q    Type
REMARK                         _______ _______ _______ _____ _____    ______ ____
ROOT
ATOM      1  N   UNL     1     -18.592  42.274  -8.250  0.00  0.00    +0.000 NA
ATOM      2  C   UNL     1     -18.349  41.772  -9.482  0.00  0.00    +0.000 A 
ATOM      3  C   UNL     1     -19.053  40.718 -10.042  0.00  0.00    +0.000 A 
ATOM      4  C   UNL     1     -20.071  40.143  -9.291  0.00  0.00    +0.000 A 
ATOM      5  C   UNL     1     -20.351  40.632  -8.020  0.00  0.00    +0.000 A 
ATOM      6  C   UNL     1     -19.590  41.689  -7.550  0.00  0.00    +0.000 A 
ENDROOT
BRANCH   3   9
ATOM      7  O   UNL     1     -17.656  39.711 -11.650  0.00  0.00    +0.000 OA
ATOM      8  N   UNL     1     -19.785  40.242 -12.317  0.00  0.00    +0.000 N 
ATOM      9  C   UNL     1     -18.766  40.197 -11.371  0.00  0.00    +0.000 C 
ATOM     10  H   UNL     1     -20.699  40.626 -12.105  0.00  0.00    +0.000 HD
ATOM     11  H   UNL     1     -19.642  39.886 -13.256  0.00  0.00    +0.000 HD
ENDBRANCH   3   9
BRANCH   2  12
ATOM     12  N   UNL     1     -17.331  42.349 -10.224  0.00  0.00    +0.000 N 
ATOM     13  H   UNL     1     -16.545  41.748 -10.455  0.00  0.00    +0.000 HD
BRANCH  12  14
ATOM     14  C   UNL     1     -17.504  43.520 -11.048  0.00  0.00    +0.000 C 
BRANCH  14  15
ATOM     15  C   UNL     1     -16.321  43.702 -11.994  0.00  0.00    +0.000 C 
BRANCH  15  16
ATOM     16  C   UNL     1     -15.241  42.643 -11.804  0.00  0.00    +0.000 C 
BRANCH  16  17
ATOM     17  O   UNL     1     -14.288  43.127 -10.867  0.00  0.00    +0.000 OA
ATOM     18  C   UNL     1     -13.092  42.359 -10.897  0.00  0.00    +0.000 C 
ENDBRANCH  16  17
ENDBRANCH  15  16
ENDBRANCH  14  15
ENDBRANCH  12  14
ENDBRANCH   2  12
TORSDOF 6
ENDMDL
MODEL 5
REMARK VINA RESULT:    -5.078      2.806      5.427
REMARK INTER + INTRA:          -7.906
REMARK INTER:                  -7.485
REMARK INTRA:                  -0.421
REMARK UNBOUND:                -1.046
REMARK  Name = 43132057
REMARK  7 active torsions:
REMARK  status: ('A' for Active; 'I' for Inactive)
REMARK    1  A    between atoms: O_1  and  C_8
REMARK    2  A    between atoms: O_1  and  C_15
REMARK    3  A    between atoms: N_3  and  C_7
REMARK    4  A    between atoms: N_3  and  C_9
REMARK    5  A    between atoms: C_6  and  C_7
REMARK    6  A    between atoms: C_6  and  C_8
REMARK    7  A    between atoms: C_10  and  C_13
REMARK                            x       y       z     vdW  Elec       q    Type
REMARK                         _______ _______ _______ _____ _____    ______ ____
ROOT
ATOM      1  N   UNL     1     -19.390  39.615 -11.049  0.00  0.00    +0.000 NA
ATOM      2  C   UNL     1     -19.008  40.782 -10.484  0.00  0.00    +0.000 A 
ATOM      3  C   UNL     1     -18.124  41.674 -11.070  0.00  0.00    +0.000 A 
ATOM      4  C   UNL     1     -17.600  41.348 -12.316  0.00  0.00    +0.000 A 
ATOM      5  C   UNL     1     -17.971  40.156 -12.929  0.00  0.00    +0.000 A 
ATOM      6  C   UNL     1     -18.860  39.332 -12.260  0.00  0.00    +0.000 A 
ENDROOT
BRANCH   3   9
ATOM      7  O   UNL     1     -17.524  42.991  -9.211  0.00  0.00    +0.000 OA
ATOM      8  N   UNL     1     -17.565  44.039 -11.250  0.00  0.00    +0.000 N 
ATOM      9  C   UNL     1     -17.728  42.923 -10.435  0.00  0.00    +0.000 C 
ATOM     10  H   UNL     1     -17.719  44.001 -12.252  0.00  0.00    +0.000 HD
ATOM     11  H   UNL     1     -17.284  44.933 -10.861  0.00  0.00    +0.000 HD
ENDBRANCH   3   9
BRANCH   2  12
ATOM     12  N   UNL     1     -19.532  41.099  -9.241  0.00  0.00    +0.000 N 
ATOM     13  H   UNL     1     -19.248  41.990  -8.845  0.00  0.00    +0.000 HD
BRANCH  12  14
ATOM     14  C   UNL     1     -20.744  40.522  -8.712  0.00  0.00    +0.000 C 
BRANCH  14  15
ATOM     15  C   UNL     1     -21.192  41.254  -7.451  0.00  0.00    +0.000 C 
BRANCH  15  16
ATOM     16  C   UNL     1     -22.708  41.309  -7.304  0.00  0.00    +0.000 C 
BRANCH  16  17
ATOM     17  O   UNL     1     -23.045  42.402  -6.459  0.00  0.00    +0.000 OA
ATOM     18  C   UNL     1     -22.007  42.681  -5.530  0.00  0.00    +0.000 C 
ENDBRANCH  16  17
ENDBRANCH  15  16
ENDBRANCH  14  15
ENDBRANCH  12  14
ENDBRANCH   2  12
TORSDOF 6
ENDMDL
