MODEL 1
REMARK VINA RESULT:    -5.831      0.000      0.000
REMARK INTER + INTRA:          -8.170
REMARK INTER:                  -8.046
REMARK INTRA:                  -0.123
REMARK UNBOUND:                -0.123
REMARK  Name = 43137144
REMARK  9 active torsions:
REMARK  status: ('A' for Active; 'I' for Inactive)
REMARK    1  A    between atoms: N_2  and  C_6
REMARK    2  A    between atoms: N_2  and  C_7
REMARK    3  A    between atoms: N_2  and  C_9
REMARK    4  A    between atoms: N_4  and  C_12
REMARK    5  A    between atoms: C_6  and  C_10
REMARK    6  A    between atoms: C_6  and  C_11
REMARK    7  A    between atoms: C_7  and  C_8
REMARK    8  A    between atoms: C_8  and  C_12
REMARK    9  A    between atoms: C_13  and  C_15
REMARK                            x       y       z     vdW  Elec       q    Type
REMARK                         _______ _______ _______ _____ _____    ______ ____
ROOT
ATOM      1  N   UNL     1     -18.139  42.457  -9.014  0.00  0.00    +0.000 NA
ATOM      2  C   UNL     1     -18.233  41.877 -10.232  0.00  0.00    +0.000 A 
ATOM      3  C   UNL     1     -18.975  40.735 -10.492  0.00  0.00    +0.000 A 
ATOM      4  C   UNL     1     -19.665  40.153  -9.435  0.00  0.00    +0.000 A 
ATOM      5  C   UNL     1     -18.823  41.862  -8.011  0.00  0.00    +0.000 A 
ATOM      6  C   UNL     1     -19.592  40.720  -8.168  0.00  0.00    +0.000 A 
ENDROOT
BRANCH   3   9
ATOM      7  O   UNL     1     -18.199  39.329 -12.215  0.00  0.00    +0.000 OA
ATOM      8  N   UNL     1     -20.144  40.477 -12.614  0.00  0.00    +0.000 N 
ATOM      9  C   UNL     1     -19.057  40.134 -11.816  0.00  0.00    +0.000 C 
ATOM     10  H   UNL     1     -20.857  41.127 -12.302  0.00  0.00    +0.000 HD
ATOM     11  H   UNL     1     -20.253  40.084 -13.544  0.00  0.00    +0.000 HD
ENDBRANCH   3   9
BRANCH   2  12
ATOM     12  N   UNL     1     -17.534  42.470 -11.292  0.00  0.00    +0.000 N 
BRANCH  12  13
ATOM     13  C   UNL     1     -18.181  43.498 -12.109  0.00  0.00    +0.000 C 
ATOM     14  C   UNL     1     -17.859  43.249 -13.578  0.00  0.00    +0.000 C 
ATOM     15  C   UNL     1     -17.707  44.875 -11.664  0.00  0.00    +0.000 C 
ENDBRANCH  12  13
BRANCH  12  16
ATOM     16  C   UNL     1     -16.180  42.085 -11.610  0.00  0.00    +0.000 C 
BRANCH  16  17
ATOM     17  C   UNL     1     -15.189  43.163 -11.178  0.00  0.00    +0.000 C 
BRANCH  17  18
ATOM     18  C   UNL     1     -13.756  42.637 -11.085  0.00  0.00    +0.000 C 
BRANCH  18  19
ATOM     19  N   UNL     1     -13.758  41.181 -10.981  0.00  0.00    +0.000 NA
ATOM     20  H   UNL     1     -13.500  40.906 -10.034  0.00  0.00    +0.000 HD
ATOM     21  H   UNL     1     -13.042  40.798 -11.595  0.00  0.00    +0.000 HD
ENDBRANCH  18  19
ENDBRANCH  17  18
ENDBRANCH  16  17
ENDBRANCH  12  16
ENDBRANCH   2  12
TORSDOF 7
ENDMDL
MODEL 2
REMARK VINA RESULT:    -5.576      1.559      2.646
REMARK INTER + INTRA:          -7.818
REMARK INTER:                  -7.667
REMARK INTRA:                  -0.152
REMARK UNBOUND:                -0.123
REMARK  Name = 43137144
REMARK  9 active torsions:
REMARK  status: ('A' for Active; 'I' for Inactive)
REMARK    1  A    between atoms: N_2  and  C_6
REMARK    2  A    between atoms: N_2  and  C_7
REMARK    3  A    between atoms: N_2  and  C_9
REMARK    4  A    between atoms: N_4  and  C_12
REMARK    5  A    between atoms: C_6  and  C_10
REMARK    6  A    between atoms: C_6  and  C_11
REMARK    7  A    between atoms: C_7  and  C_8
REMARK    8  A    between atoms: C_8  and  C_12
REMARK    9  A    between atoms: C_13  and  C_15
REMARK                            x       y       z     vdW  Elec       q    Type
REMARK                         _______ _______ _______ _____ _____    ______ ____
ROOT
ATOM      1  N   UNL     1     -18.053  42.046  -9.129  0.00  0.00    +0.000 NA
ATOM      2  C   UNL     1     -18.246  41.836 -10.451  0.00  0.00    +0.000 A 
ATOM      3  C   UNL     1     -19.182  40.954 -10.968  0.00  0.00    +0.000 A 
ATOM      4  C   UNL     1     -19.969  40.241 -10.070  0.00  0.00    +0.000 A 
ATOM      5  C   UNL     1     -18.837  41.336  -8.288  0.00  0.00    +0.000 A 
ATOM      6  C   UNL     1     -19.799  40.430  -8.703  0.00  0.00    +0.000 A 
ENDROOT
BRANCH   3   9
ATOM      7  O   UNL     1     -20.061  41.523 -13.078  0.00  0.00    +0.000 OA
ATOM      8  N   UNL     1     -18.721  39.664 -12.983  0.00  0.00    +0.000 N 
ATOM      9  C   UNL     1     -19.366  40.749 -12.398  0.00  0.00    +0.000 C 
ATOM     10  H   UNL     1     -18.145  39.026 -12.444  0.00  0.00    +0.000 HD
ATOM     11  H   UNL     1     -18.812  39.477 -13.976  0.00  0.00    +0.000 HD
ENDBRANCH   3   9
BRANCH   2  12
ATOM     12  N   UNL     1     -17.448  42.558 -11.349  0.00  0.00    +0.000 N 
BRANCH  12  13
ATOM     13  C   UNL     1     -16.146  42.029 -11.757  0.00  0.00    +0.000 C 
ATOM     14  C   UNL     1     -15.965  40.632 -11.175  0.00  0.00    +0.000 C 
ATOM     15  C   UNL     1     -15.045  42.971 -11.288  0.00  0.00    +0.000 C 
ENDBRANCH  12  13
BRANCH  12  16
ATOM     16  C   UNL     1     -17.876  43.828 -11.884  0.00  0.00    +0.000 C 
BRANCH  16  17
ATOM     17  C   UNL     1     -17.633  43.898 -13.390  0.00  0.00    +0.000 C 
BRANCH  17  18
ATOM     18  C   UNL     1     -16.998  45.222 -13.819  0.00  0.00    +0.000 C 
BRANCH  18  19
ATOM     19  N   UNL     1     -15.630  45.000 -14.276  0.00  0.00    +0.000 NA
ATOM     20  H   UNL     1     -14.976  45.295 -13.553  0.00  0.00    +0.000 HD
ATOM     21  H   UNL     1     -15.446  45.590 -15.086  0.00  0.00    +0.000 HD
ENDBRANCH  18  19
ENDBRANCH  17  18
ENDBRANCH  16  17
ENDBRANCH  12  16
ENDBRANCH   2  12
TORSDOF 7
ENDMDL
MODEL 3
REMARK VINA RESULT:    -5.297      1.786      4.593
REMARK INTER + INTRA:          -7.433
REMARK INTER:                  -7.297
REMARK INTRA:                  -0.136
REMARK UNBOUND:                -0.123
REMARK  Name = 43137144
REMARK  9 active torsions:
REMARK  status: ('A' for Active; 'I' for Inactive)
REMARK    1  A    between atoms: N_2  and  C_6
REMARK    2  A    between atoms: N_2  and  C_7
REMARK    3  A    between atoms: N_2  and  C_9
REMARK    4  A    between atoms: N_4  and  C_12
REMARK    5  A    between atoms: C_6  and  C_10
REMARK    6  A    between atoms: C_6  and  C_11
REMARK    7  A    between atoms: C_7  and  C_8
REMARK    8  A    between atoms: C_8  and  C_12
REMARK    9  A    between atoms: C_13  and  C_15
REMARK                            x       y       z     vdW  Elec       q    Type
REMARK                         _______ _______ _______ _____ _____    ______ ____
ROOT
ATOM      1  N   UNL     1     -15.769  42.217 -11.261  0.00  0.00    +0.000 NA
ATOM      2  C   UNL     1     -16.993  42.174 -11.835  0.00  0.00    +0.000 A 
ATOM      3  C   UNL     1     -17.387  42.990 -12.884  0.00  0.00    +0.000 A 
ATOM      4  C   UNL     1     -16.466  43.908 -13.375  0.00  0.00    +0.000 A 
ATOM      5  C   UNL     1     -14.901  43.122 -11.765  0.00  0.00    +0.000 A 
ATOM      6  C   UNL     1     -15.198  43.982 -12.810  0.00  0.00    +0.000 A 
ENDROOT
BRANCH   3   9
ATOM      7  O   UNL     1     -19.045  41.970 -14.211  0.00  0.00    +0.000 OA
ATOM      8  N   UNL     1     -19.606  43.946 -13.192  0.00  0.00    +0.000 N 
ATOM      9  C   UNL     1     -18.713  42.919 -13.481  0.00  0.00    +0.000 C 
ATOM     10  H   UNL     1     -19.355  44.725 -12.593  0.00  0.00    +0.000 HD
ATOM     11  H   UNL     1     -20.545  43.945 -13.578  0.00  0.00    +0.000 HD
ENDBRANCH   3   9
BRANCH   2  12
ATOM     12  N   UNL     1     -17.915  41.245 -11.334  0.00  0.00    +0.000 N 
BRANCH  12  13
ATOM     13  C   UNL     1     -17.818  39.837 -11.721  0.00  0.00    +0.000 C 
ATOM     14  C   UNL     1     -16.965  39.718 -12.977  0.00  0.00    +0.000 C 
ATOM     15  C   UNL     1     -19.216  39.273 -11.945  0.00  0.00    +0.000 C 
ENDBRANCH  12  13
BRANCH  12  16
ATOM     16  C   UNL     1     -18.978  41.645 -10.442  0.00  0.00    +0.000 C 
BRANCH  16  17
ATOM     17  C   UNL     1     -18.433  41.975  -9.055  0.00  0.00    +0.000 C 
BRANCH  17  18
ATOM     18  C   UNL     1     -19.368  41.516  -7.935  0.00  0.00    +0.000 C 
BRANCH  18  19
ATOM     19  N   UNL     1     -19.218  40.083  -7.707  0.00  0.00    +0.000 NA
ATOM     20  H   UNL     1     -19.703  39.567  -8.440  0.00  0.00    +0.000 HD
ATOM     21  H   UNL     1     -19.673  39.831  -6.832  0.00  0.00    +0.000 HD
ENDBRANCH  18  19
ENDBRANCH  17  18
ENDBRANCH  16  17
ENDBRANCH  12  16
ENDBRANCH   2  12
TORSDOF 7
ENDMDL
MODEL 4
REMARK VINA RESULT:    -4.519     14.094     15.526
REMARK INTER + INTRA:          -6.359
REMARK INTER:                  -5.891
REMARK INTRA:                  -0.468
REMARK UNBOUND:                -0.123
REMARK  Name = 43137144
REMARK  9 active torsions:
REMARK  status: ('A' for Active; 'I' for Inactive)
REMARK    1  A    between atoms: N_2  and  C_6
REMARK    2  A    between atoms: N_2  and  C_7
REMARK    3  A    between atoms: N_2  and  C_9
REMARK    4  A    between atoms: N_4  and  C_12
REMARK    5  A    between atoms: C_6  and  C_10
REMARK    6  A    between atoms: C_6  and  C_11
REMARK    7  A    between atoms: C_7  and  C_8
REMARK    8  A    between atoms: C_8  and  C_12
REMARK    9  A    between atoms: C_13  and  C_15
REMARK                            x       y       z     vdW  Elec       q    Type
REMARK                         _______ _______ _______ _____ _____    ______ ____
ROOT
ATOM      1  N   UNL     1     -32.986  42.631 -15.098  0.00  0.00    +0.000 NA
ATOM      2  C   UNL     1     -32.085  43.576 -15.449  0.00  0.00    +0.000 A 
ATOM      3  C   UNL     1     -31.638  44.575 -14.598  0.00  0.00    +0.000 A 
ATOM      4  C   UNL     1     -32.148  44.605 -13.305  0.00  0.00    +0.000 A 
ATOM      5  C   UNL     1     -33.460  42.692 -13.834  0.00  0.00    +0.000 A 
ATOM      6  C   UNL     1     -33.078  43.650 -12.908  0.00  0.00    +0.000 A 
ENDROOT
BRANCH   3   9
ATOM      7  O   UNL     1     -31.021  46.657 -15.512  0.00  0.00    +0.000 OA
ATOM      8  N   UNL     1     -29.320  45.300 -14.788  0.00  0.00    +0.000 N 
ATOM      9  C   UNL     1     -30.666  45.580 -15.005  0.00  0.00    +0.000 C 
ATOM     10  H   UNL     1     -29.012  44.430 -14.368  0.00  0.00    +0.000 HD
ATOM     11  H   UNL     1     -28.600  45.967 -15.048  0.00  0.00    +0.000 HD
ENDBRANCH   3   9
BRANCH   2  12
ATOM     12  N   UNL     1     -31.575  43.539 -16.753  0.00  0.00    +0.000 N 
BRANCH  12  13
ATOM     13  C   UNL     1     -32.158  44.392 -17.791  0.00  0.00    +0.000 C 
ATOM     14  C   UNL     1     -33.468  43.778 -18.269  0.00  0.00    +0.000 C 
ATOM     15  C   UNL     1     -31.168  44.548 -18.937  0.00  0.00    +0.000 C 
ENDBRANCH  12  13
BRANCH  12  16
ATOM     16  C   UNL     1     -30.482  42.666 -17.111  0.00  0.00    +0.000 C 
BRANCH  16  17
ATOM     17  C   UNL     1     -30.968  41.232 -17.304  0.00  0.00    +0.000 C 
BRANCH  17  18
ATOM     18  C   UNL     1     -31.028  40.829 -18.778  0.00  0.00    +0.000 C 
BRANCH  18  19
ATOM     19  N   UNL     1     -32.408  40.563 -19.173  0.00  0.00    +0.000 NA
ATOM     20  H   UNL     1     -32.669  41.179 -19.942  0.00  0.00    +0.000 HD
ATOM     21  H   UNL     1     -33.030  40.791 -18.400  0.00  0.00    +0.000 HD
ENDBRANCH  18  19
ENDBRANCH  17  18
ENDBRANCH  16  17
ENDBRANCH  12  16
ENDBRANCH   2  12
TORSDOF 7
ENDMDL
MODEL 5
REMARK VINA RESULT:    -4.403     21.977     23.709
REMARK INTER + INTRA:          -6.199
REMARK INTER:                  -5.642
REMARK INTRA:                  -0.557
REMARK UNBOUND:                -0.123
REMARK  Name = 43137144
REMARK  9 active torsions:
REMARK  status: ('A' for Active; 'I' for Inactive)
REMARK    1  A    between atoms: N_2  and  C_6
REMARK    2  A    between atoms: N_2  and  C_7
REMARK    3  A    between atoms: N_2  and  C_9
REMARK    4  A    between atoms: N_4  and  C_12
REMARK    5  A    between atoms: C_6  and  C_10
REMARK    6  A    between atoms: C_6  and  C_11
REMARK    7  A    between atoms: C_7  and  C_8
REMARK    8  A    between atoms: C_8  and  C_12
REMARK    9  A    between atoms: C_13  and  C_15
REMARK                            x       y       z     vdW  Elec       q    Type
REMARK                         _______ _______ _______ _____ _____    ______ ____
ROOT
ATOM      1  N   UNL     1     -33.048  42.937   4.721  0.00  0.00    +0.000 NA
ATOM      2  C   UNL     1     -34.081  43.276   5.524  0.00  0.00    +0.000 A 
ATOM      3  C   UNL     1     -34.521  42.506   6.589  0.00  0.00    +0.000 A 
ATOM      4  C   UNL     1     -33.857  41.312   6.847  0.00  0.00    +0.000 A 
ATOM      5  C   UNL     1     -32.427  41.769   5.002  0.00  0.00    +0.000 A 
ATOM      6  C   UNL     1     -32.790  40.929   6.042  0.00  0.00    +0.000 A 
ENDROOT
BRANCH   3   9
ATOM      7  O   UNL     1     -36.810  42.615   7.136  0.00  0.00    +0.000 OA
ATOM      8  N   UNL     1     -35.347  43.588   8.610  0.00  0.00    +0.000 N 
ATOM      9  C   UNL     1     -35.638  42.898   7.437  0.00  0.00    +0.000 C 
ATOM     10  H   UNL     1     -34.396  43.822   8.875  0.00  0.00    +0.000 HD
ATOM     11  H   UNL     1     -36.087  43.882   9.240  0.00  0.00    +0.000 HD
ENDBRANCH   3   9
BRANCH   2  12
ATOM     12  N   UNL     1     -34.745  44.481   5.258  0.00  0.00    +0.000 N 
BRANCH  12  13
ATOM     13  C   UNL     1     -35.822  44.519   4.266  0.00  0.00    +0.000 C 
ATOM     14  C   UNL     1     -35.312  45.191   2.997  0.00  0.00    +0.000 C 
ATOM     15  C   UNL     1     -37.019  45.262   4.843  0.00  0.00    +0.000 C 
ENDBRANCH  12  13
BRANCH  12  16
ATOM     16  C   UNL     1     -34.388  45.704   5.937  0.00  0.00    +0.000 C 
BRANCH  16  17
ATOM     17  C   UNL     1     -32.872  45.861   6.021  0.00  0.00    +0.000 C 
BRANCH  17  18
ATOM     18  C   UNL     1     -32.283  46.529   4.778  0.00  0.00    +0.000 C 
BRANCH  18  19
ATOM     19  N   UNL     1     -30.826  46.540   4.854  0.00  0.00    +0.000 NA
ATOM     20  H   UNL     1     -30.452  45.720   4.378  0.00  0.00    +0.000 HD
ATOM     21  H   UNL     1     -30.538  46.463   5.828  0.00  0.00    +0.000 HD
ENDBRANCH  18  19
ENDBRANCH  17  18
ENDBRANCH  16  17
ENDBRANCH  12  16
ENDBRANCH   2  12
TORSDOF 7
ENDMDL
