MODEL 1
REMARK VINA RESULT:    -4.190      0.000      0.000
REMARK INTER + INTRA:          -6.305
REMARK INTER:                  -5.781
REMARK INTRA:                  -0.523
REMARK UNBOUND:                -0.523
REMARK  Name = 43137154
REMARK  7 active torsions:
REMARK  status: ('A' for Active; 'I' for Inactive)
REMARK    1  A    between atoms: N_2  and  C_6
REMARK    2  A    between atoms: N_2  and  C_9
REMARK    3  A    between atoms: N_2  and  C_10
REMARK    4  A    between atoms: N_4  and  C_13
REMARK    5  A    between atoms: C_9  and  C_11
REMARK    6  A    between atoms: C_11  and  C_13
REMARK    7  A    between atoms: C_12  and  C_15
REMARK                            x       y       z     vdW  Elec       q    Type
REMARK                         _______ _______ _______ _____ _____    ______ ____
ROOT
ATOM      1  N   UNL     1     -33.063  42.633 -14.994  0.00  0.00    +0.000 NA
ATOM      2  C   UNL     1     -32.149  43.555 -15.370  0.00  0.00    +0.000 A 
ATOM      3  C   UNL     1     -31.664  44.553 -14.539  0.00  0.00    +0.000 A 
ATOM      4  C   UNL     1     -32.149  44.607 -13.237  0.00  0.00    +0.000 A 
ATOM      5  C   UNL     1     -33.510  42.717 -13.720  0.00  0.00    +0.000 A 
ATOM      6  C   UNL     1     -33.090  43.674 -12.811  0.00  0.00    +0.000 A 
ENDROOT
BRANCH   3   9
ATOM      7  O   UNL     1     -31.020  46.587 -15.535  0.00  0.00    +0.000 OA
ATOM      8  N   UNL     1     -29.339  45.257 -14.721  0.00  0.00    +0.000 N 
ATOM      9  C   UNL     1     -30.679  45.533 -14.974  0.00  0.00    +0.000 C 
ATOM     10  H   UNL     1     -29.042  44.409 -14.248  0.00  0.00    +0.000 HD
ATOM     11  H   UNL     1     -28.611  45.906 -15.000  0.00  0.00    +0.000 HD
ENDBRANCH   3   9
BRANCH   2  12
ATOM     12  N   UNL     1     -31.658  43.493 -16.700  0.00  0.00    +0.000 N 
BRANCH  12  13
ATOM     13  C   UNL     1     -32.266  44.307 -17.784  0.00  0.00    +0.000 C 
ATOM     14  C   UNL     1     -33.529  43.875 -18.469  0.00  0.00    +0.000 C 
ATOM     15  C   UNL     1     -33.538  45.072 -17.564  0.00  0.00    +0.000 C 
ENDBRANCH  12  13
BRANCH  12  16
ATOM     16  C   UNL     1     -30.541  42.641 -17.032  0.00  0.00    +0.000 C 
BRANCH  16  17
ATOM     17  C   UNL     1     -31.011  41.230 -17.375  0.00  0.00    +0.000 C 
BRANCH  17  18
ATOM     18  C   UNL     1     -31.119  41.000 -18.883  0.00  0.00    +0.000 C 
BRANCH  18  19
ATOM     19  N   UNL     1     -32.456  40.532 -19.229  0.00  0.00    +0.000 NA
ATOM     20  H   UNL     1     -32.489  40.286 -20.218  0.00  0.00    +0.000 HD
ATOM     21  H   UNL     1     -33.124  41.291 -19.101  0.00  0.00    +0.000 HD
ENDBRANCH  18  19
ENDBRANCH  17  18
ENDBRANCH  16  17
ENDBRANCH  12  16
ENDBRANCH   2  12
TORSDOF 7
ENDMDL
MODEL 2
REMARK VINA RESULT:    -4.172     24.682     26.358
REMARK INTER + INTRA:          -6.280
REMARK INTER:                  -5.673
REMARK INTRA:                  -0.607
REMARK UNBOUND:                -0.523
REMARK  Name = 43137154
REMARK  7 active torsions:
REMARK  status: ('A' for Active; 'I' for Inactive)
REMARK    1  A    between atoms: N_2  and  C_6
REMARK    2  A    between atoms: N_2  and  C_9
REMARK    3  A    between atoms: N_2  and  C_10
REMARK    4  A    between atoms: N_4  and  C_13
REMARK    5  A    between atoms: C_9  and  C_11
REMARK    6  A    between atoms: C_11  and  C_13
REMARK    7  A    between atoms: C_12  and  C_15
REMARK                            x       y       z     vdW  Elec       q    Type
REMARK                         _______ _______ _______ _____ _____    ______ ____
ROOT
ATOM      1  N   UNL     1     -22.547  31.375   2.364  0.00  0.00    +0.000 NA
ATOM      2  C   UNL     1     -22.727  31.115   3.677  0.00  0.00    +0.000 A 
ATOM      3  C   UNL     1     -23.347  31.981   4.563  0.00  0.00    +0.000 A 
ATOM      4  C   UNL     1     -23.814  33.194   4.067  0.00  0.00    +0.000 A 
ATOM      5  C   UNL     1     -23.013  32.562   1.917  0.00  0.00    +0.000 A 
ATOM      6  C   UNL     1     -23.648  33.498   2.719  0.00  0.00    +0.000 A 
ENDROOT
BRANCH   3   9
ATOM      7  O   UNL     1     -22.633  31.905   6.806  0.00  0.00    +0.000 OA
ATOM      8  N   UNL     1     -24.744  31.124   6.366  0.00  0.00    +0.000 N 
ATOM      9  C   UNL     1     -23.527  31.672   5.974  0.00  0.00    +0.000 C 
ATOM     10  H   UNL     1     -25.492  30.943   5.704  0.00  0.00    +0.000 HD
ATOM     11  H   UNL     1     -24.924  30.893   7.337  0.00  0.00    +0.000 HD
ENDBRANCH   3   9
BRANCH   2  12
ATOM     12  N   UNL     1     -22.249  29.875   4.176  0.00  0.00    +0.000 N 
BRANCH  12  13
ATOM     13  C   UNL     1     -20.879  29.746   4.735  0.00  0.00    +0.000 C 
ATOM     14  C   UNL     1     -19.684  29.583   3.841  0.00  0.00    +0.000 C 
ATOM     15  C   UNL     1     -19.879  30.857   4.608  0.00  0.00    +0.000 C 
ENDBRANCH  12  13
BRANCH  12  16
ATOM     16  C   UNL     1     -23.094  28.704   4.164  0.00  0.00    +0.000 C 
BRANCH  16  17
ATOM     17  C   UNL     1     -22.675  27.715   5.250  0.00  0.00    +0.000 C 
BRANCH  17  18
ATOM     18  C   UNL     1     -23.697  27.626   6.385  0.00  0.00    +0.000 C 
BRANCH  18  19
ATOM     19  N   UNL     1     -24.831  26.804   5.980  0.00  0.00    +0.000 NA
ATOM     20  H   UNL     1     -24.537  25.830   5.902  0.00  0.00    +0.000 HD
ATOM     21  H   UNL     1     -25.138  27.085   5.051  0.00  0.00    +0.000 HD
ENDBRANCH  18  19
ENDBRANCH  17  18
ENDBRANCH  16  17
ENDBRANCH  12  16
ENDBRANCH   2  12
TORSDOF 7
ENDMDL
MODEL 3
REMARK VINA RESULT:    -4.079     20.722     22.836
REMARK INTER + INTRA:          -6.152
REMARK INTER:                  -5.288
REMARK INTRA:                  -0.864
REMARK UNBOUND:                -0.523
REMARK  Name = 43137154
REMARK  7 active torsions:
REMARK  status: ('A' for Active; 'I' for Inactive)
REMARK    1  A    between atoms: N_2  and  C_6
REMARK    2  A    between atoms: N_2  and  C_9
REMARK    3  A    between atoms: N_2  and  C_10
REMARK    4  A    between atoms: N_4  and  C_13
REMARK    5  A    between atoms: C_9  and  C_11
REMARK    6  A    between atoms: C_11  and  C_13
REMARK    7  A    between atoms: C_12  and  C_15
REMARK                            x       y       z     vdW  Elec       q    Type
REMARK                         _______ _______ _______ _____ _____    ______ ____
ROOT
ATOM      1  N   UNL     1     -34.184  44.655   4.208  0.00  0.00    +0.000 NA
ATOM      2  C   UNL     1     -34.148  44.388   5.532  0.00  0.00    +0.000 A 
ATOM      3  C   UNL     1     -35.050  44.899   6.452  0.00  0.00    +0.000 A 
ATOM      4  C   UNL     1     -36.054  45.738   5.981  0.00  0.00    +0.000 A 
ATOM      5  C   UNL     1     -35.174  45.474   3.787  0.00  0.00    +0.000 A 
ATOM      6  C   UNL     1     -36.125  46.036   4.624  0.00  0.00    +0.000 A 
ENDROOT
BRANCH   3   9
ATOM      7  O   UNL     1     -34.347  45.309   8.662  0.00  0.00    +0.000 OA
ATOM      8  N   UNL     1     -35.682  43.475   8.326  0.00  0.00    +0.000 N 
ATOM      9  C   UNL     1     -34.986  44.592   7.874  0.00  0.00    +0.000 C 
ATOM     10  H   UNL     1     -36.223  42.887   7.700  0.00  0.00    +0.000 HD
ATOM     11  H   UNL     1     -35.674  43.217   9.307  0.00  0.00    +0.000 HD
ENDBRANCH   3   9
BRANCH   2  12
ATOM     12  N   UNL     1     -33.122  43.530   6.005  0.00  0.00    +0.000 N 
BRANCH  12  13
ATOM     13  C   UNL     1     -31.841  44.075   6.524  0.00  0.00    +0.000 C 
ATOM     14  C   UNL     1     -30.770  44.569   5.597  0.00  0.00    +0.000 C 
ATOM     15  C   UNL     1     -31.531  45.541   6.449  0.00  0.00    +0.000 C 
ENDBRANCH  12  13
BRANCH  12  16
ATOM     16  C   UNL     1     -33.303  42.097   6.003  0.00  0.00    +0.000 C 
BRANCH  16  17
ATOM     17  C   UNL     1     -32.774  41.477   7.294  0.00  0.00    +0.000 C 
BRANCH  17  18
ATOM     18  C   UNL     1     -33.738  40.448   7.886  0.00  0.00    +0.000 C 
BRANCH  18  19
ATOM     19  N   UNL     1     -35.067  40.610   7.308  0.00  0.00    +0.000 NA
ATOM     20  H   UNL     1     -35.087  40.200   6.373  0.00  0.00    +0.000 HD
ATOM     21  H   UNL     1     -35.265  41.602   7.188  0.00  0.00    +0.000 HD
ENDBRANCH  18  19
ENDBRANCH  17  18
ENDBRANCH  16  17
ENDBRANCH  12  16
ENDBRANCH   2  12
TORSDOF 7
ENDMDL
MODEL 4
REMARK VINA RESULT:    -3.954     20.314     22.143
REMARK INTER + INTRA:          -5.979
REMARK INTER:                  -5.163
REMARK INTRA:                  -0.816
REMARK UNBOUND:                -0.523
REMARK  Name = 43137154
REMARK  7 active torsions:
REMARK  status: ('A' for Active; 'I' for Inactive)
REMARK    1  A    between atoms: N_2  and  C_6
REMARK    2  A    between atoms: N_2  and  C_9
REMARK    3  A    between atoms: N_2  and  C_10
REMARK    4  A    between atoms: N_4  and  C_13
REMARK    5  A    between atoms: C_9  and  C_11
REMARK    6  A    between atoms: C_11  and  C_13
REMARK    7  A    between atoms: C_12  and  C_15
REMARK                            x       y       z     vdW  Elec       q    Type
REMARK                         _______ _______ _______ _____ _____    ______ ____
ROOT
ATOM      1  N   UNL     1     -34.192  43.977   4.182  0.00  0.00    +0.000 NA
ATOM      2  C   UNL     1     -34.101  44.016   5.530  0.00  0.00    +0.000 A 
ATOM      3  C   UNL     1     -35.155  44.335   6.371  0.00  0.00    +0.000 A 
ATOM      4  C   UNL     1     -36.383  44.632   5.791  0.00  0.00    +0.000 A 
ATOM      5  C   UNL     1     -35.402  44.271   3.654  0.00  0.00    +0.000 A 
ATOM      6  C   UNL     1     -36.517  44.602   4.407  0.00  0.00    +0.000 A 
ENDROOT
BRANCH   3   9
ATOM      7  O   UNL     1     -34.601  45.378   8.409  0.00  0.00    +0.000 OA
ATOM      8  N   UNL     1     -35.411  43.236   8.531  0.00  0.00    +0.000 N 
ATOM      9  C   UNL     1     -35.025  44.368   7.821  0.00  0.00    +0.000 C 
ATOM     10  H   UNL     1     -35.775  42.409   8.069  0.00  0.00    +0.000 HD
ATOM     11  H   UNL     1     -35.344  43.206   9.542  0.00  0.00    +0.000 HD
ENDBRANCH   3   9
BRANCH   2  12
ATOM     12  N   UNL     1     -32.844  43.710   6.115  0.00  0.00    +0.000 N 
BRANCH  12  13
ATOM     13  C   UNL     1     -31.845  44.773   6.392  0.00  0.00    +0.000 C 
ATOM     14  C   UNL     1     -30.997  45.352   5.296  0.00  0.00    +0.000 C 
ATOM     15  C   UNL     1     -32.065  46.186   5.940  0.00  0.00    +0.000 C 
ENDBRANCH  12  13
BRANCH  12  16
ATOM     16  C   UNL     1     -32.511  42.351   6.469  0.00  0.00    +0.000 C 
BRANCH  16  17
ATOM     17  C   UNL     1     -31.348  41.834   5.624  0.00  0.00    +0.000 C 
BRANCH  17  18
ATOM     18  C   UNL     1     -31.816  41.197   4.314  0.00  0.00    +0.000 C 
BRANCH  18  19
ATOM     19  N   UNL     1     -31.783  42.179   3.236  0.00  0.00    +0.000 NA
ATOM     20  H   UNL     1     -31.433  43.069   3.593  0.00  0.00    +0.000 HD
ATOM     21  H   UNL     1     -32.732  42.356   2.910  0.00  0.00    +0.000 HD
ENDBRANCH  18  19
ENDBRANCH  17  18
ENDBRANCH  16  17
ENDBRANCH  12  16
ENDBRANCH   2  12
TORSDOF 7
ENDMDL
MODEL 5
REMARK VINA RESULT:    -3.755     20.777     23.122
REMARK INTER + INTRA:          -5.705
REMARK INTER:                  -4.743
REMARK INTRA:                  -0.962
REMARK UNBOUND:                -0.523
REMARK  Name = 43137154
REMARK  7 active torsions:
REMARK  status: ('A' for Active; 'I' for Inactive)
REMARK    1  A    between atoms: N_2  and  C_6
REMARK    2  A    between atoms: N_2  and  C_9
REMARK    3  A    between atoms: N_2  and  C_10
REMARK    4  A    between atoms: N_4  and  C_13
REMARK    5  A    between atoms: C_9  and  C_11
REMARK    6  A    between atoms: C_11  and  C_13
REMARK    7  A    between atoms: C_12  and  C_15
REMARK                            x       y       z     vdW  Elec       q    Type
REMARK                         _______ _______ _______ _____ _____    ______ ____
ROOT
ATOM      1  N   UNL     1     -31.201  44.255   7.200  0.00  0.00    +0.000 NA
ATOM      2  C   UNL     1     -32.503  43.909   7.096  0.00  0.00    +0.000 A 
ATOM      3  C   UNL     1     -33.187  43.164   8.043  0.00  0.00    +0.000 A 
ATOM      4  C   UNL     1     -32.489  42.750   9.172  0.00  0.00    +0.000 A 
ATOM      5  C   UNL     1     -30.555  43.835   8.311  0.00  0.00    +0.000 A 
ATOM      6  C   UNL     1     -31.147  43.087   9.316  0.00  0.00    +0.000 A 
ENDROOT
BRANCH   3   9
ATOM      7  O   UNL     1     -34.941  41.796   7.271  0.00  0.00    +0.000 OA
ATOM      8  N   UNL     1     -35.532  43.627   8.518  0.00  0.00    +0.000 N 
ATOM      9  C   UNL     1     -34.591  42.807   7.903  0.00  0.00    +0.000 C 
ATOM     10  H   UNL     1     -35.264  44.448   9.052  0.00  0.00    +0.000 HD
ATOM     11  H   UNL     1     -36.523  43.423   8.454  0.00  0.00    +0.000 HD
ENDBRANCH   3   9
BRANCH   2  12
ATOM     12  N   UNL     1     -33.209  44.337   5.942  0.00  0.00    +0.000 N 
BRANCH  12  13
ATOM     13  C   UNL     1     -33.277  43.491   4.723  0.00  0.00    +0.000 C 
ATOM     14  C   UNL     1     -32.178  43.505   3.701  0.00  0.00    +0.000 C 
ATOM     15  C   UNL     1     -32.392  42.291   4.557  0.00  0.00    +0.000 C 
ENDBRANCH  12  13
BRANCH  12  16
ATOM     16  C   UNL     1     -33.893  45.608   5.929  0.00  0.00    +0.000 C 
BRANCH  16  17
ATOM     17  C   UNL     1     -35.046  45.600   4.927  0.00  0.00    +0.000 C 
BRANCH  17  18
ATOM     18  C   UNL     1     -36.408  45.439   5.604  0.00  0.00    +0.000 C 
BRANCH  18  19
ATOM     19  N   UNL     1     -36.812  44.037   5.597  0.00  0.00    +0.000 NA
ATOM     20  H   UNL     1     -37.684  43.935   5.077  0.00  0.00    +0.000 HD
ATOM     21  H   UNL     1     -37.012  43.738   6.550  0.00  0.00    +0.000 HD
ENDBRANCH  18  19
ENDBRANCH  17  18
ENDBRANCH  16  17
ENDBRANCH  12  16
ENDBRANCH   2  12
TORSDOF 7
ENDMDL
