MODEL 1
REMARK VINA RESULT:    -5.350      0.000      0.000
REMARK INTER + INTRA:          -8.323
REMARK INTER:                  -7.696
REMARK INTRA:                  -0.627
REMARK UNBOUND:                -0.627
REMARK  Name = 43252545
REMARK  8 active torsions:
REMARK  status: ('A' for Active; 'I' for Inactive)
REMARK    1  A    between atoms: N_2  and  C_11
REMARK    2  A    between atoms: N_3  and  C_14
REMARK    3  A    between atoms: N_5  and  C_17
REMARK    4  A    between atoms: C_11  and  C_12
REMARK    5  A    between atoms: C_12  and  C_13
REMARK    6  A    between atoms: C_13  and  C_15
REMARK    7  A    between atoms: C_15  and  C_17
REMARK    8  A    between atoms: C_16  and  C_19
REMARK                            x       y       z     vdW  Elec       q    Type
REMARK                         _______ _______ _______ _____ _____    ______ ____
ROOT
ATOM      1  N   UNL     1     -16.352  45.134 -13.540  0.00  0.00    +0.000 NA
ATOM      2  N   UNL     1     -17.350  43.099 -11.802  0.00  0.00    +0.000 N 
ATOM      3  C   UNL     1     -15.463  44.076 -13.046  0.00  0.00    +0.000 C 
ATOM      4  C   UNL     1     -17.708  44.601 -13.724  0.00  0.00    +0.000 C 
ATOM      5  C   UNL     1     -15.952  43.528 -11.703  0.00  0.00    +0.000 C 
ATOM      6  C   UNL     1     -18.272  44.071 -12.403  0.00  0.00    +0.000 C 
ENDROOT
BRANCH   2   8
ATOM      7  N   UNL     1     -18.023  42.625  -9.596  0.00  0.00    +0.000 NA
ATOM      8  C   UNL     1     -17.866  42.194 -10.868  0.00  0.00    +0.000 A 
ATOM      9  C   UNL     1     -18.187  40.917 -11.299  0.00  0.00    +0.000 A 
ATOM     10  C   UNL     1     -18.701  40.025 -10.365  0.00  0.00    +0.000 A 
ATOM     11  C   UNL     1     -18.525  41.730  -8.716  0.00  0.00    +0.000 A 
ATOM     12  C   UNL     1     -18.877  40.430  -9.047  0.00  0.00    +0.000 A 
BRANCH   9  15
ATOM     13  O   UNL     1     -18.912  40.612 -13.518  0.00  0.00    +0.000 OA
ATOM     14  N   UNL     1     -16.778  39.932 -13.026  0.00  0.00    +0.000 N 
ATOM     15  C   UNL     1     -18.008  40.482 -12.677  0.00  0.00    +0.000 C 
ATOM     16  H   UNL     1     -16.025  39.827 -12.354  0.00  0.00    +0.000 HD
ATOM     17  H   UNL     1     -16.597  39.619 -13.974  0.00  0.00    +0.000 HD
ENDBRANCH   9  15
ENDBRANCH   2   8
BRANCH   1  18
ATOM     18  C   UNL     1     -15.845  45.686 -14.796  0.00  0.00    +0.000 C 
BRANCH  18  19
ATOM     19  C   UNL     1     -16.974  46.360 -15.574  0.00  0.00    +0.000 C 
BRANCH  19  20
ATOM     20  C   UNL     1     -16.430  47.155 -16.762  0.00  0.00    +0.000 C 
BRANCH  20  21
ATOM     21  C   UNL     1     -15.379  46.354 -17.534  0.00  0.00    +0.000 C 
BRANCH  21  22
ATOM     22  C   UNL     1     -14.249  47.256 -18.027  0.00  0.00    +0.000 C 
BRANCH  22  23
ATOM     23  N   UNL     1     -13.074  47.107 -17.178  0.00  0.00    +0.000 NA
ATOM     24  H   UNL     1     -13.170  46.271 -16.603  0.00  0.00    +0.000 HD
ATOM     25  H   UNL     1     -13.022  47.894 -16.532  0.00  0.00    +0.000 HD
ENDBRANCH  22  23
ENDBRANCH  21  22
ENDBRANCH  20  21
ENDBRANCH  19  20
ENDBRANCH  18  19
ENDBRANCH   1  18
TORSDOF 8
ENDMDL
MODEL 2
REMARK VINA RESULT:    -5.284      1.923      2.425
REMARK INTER + INTRA:          -8.227
REMARK INTER:                  -7.615
REMARK INTRA:                  -0.612
REMARK UNBOUND:                -0.627
REMARK  Name = 43252545
REMARK  8 active torsions:
REMARK  status: ('A' for Active; 'I' for Inactive)
REMARK    1  A    between atoms: N_2  and  C_11
REMARK    2  A    between atoms: N_3  and  C_14
REMARK    3  A    between atoms: N_5  and  C_17
REMARK    4  A    between atoms: C_11  and  C_12
REMARK    5  A    between atoms: C_12  and  C_13
REMARK    6  A    between atoms: C_13  and  C_15
REMARK    7  A    between atoms: C_15  and  C_17
REMARK    8  A    between atoms: C_16  and  C_19
REMARK                            x       y       z     vdW  Elec       q    Type
REMARK                         _______ _______ _______ _____ _____    ______ ____
ROOT
ATOM      1  N   UNL     1     -15.951  44.804 -12.740  0.00  0.00    +0.000 NA
ATOM      2  N   UNL     1     -17.442  42.872 -11.256  0.00  0.00    +0.000 N 
ATOM      3  C   UNL     1     -15.620  43.377 -12.834  0.00  0.00    +0.000 C 
ATOM      4  C   UNL     1     -17.398  44.969 -12.550  0.00  0.00    +0.000 C 
ATOM      5  C   UNL     1     -16.028  42.632 -11.561  0.00  0.00    +0.000 C 
ATOM      6  C   UNL     1     -17.865  44.277 -11.267  0.00  0.00    +0.000 C 
ENDROOT
BRANCH   2   8
ATOM      7  N   UNL     1     -18.139  42.242  -9.096  0.00  0.00    +0.000 NA
ATOM      8  C   UNL     1     -18.132  41.984 -10.424  0.00  0.00    +0.000 A 
ATOM      9  C   UNL     1     -18.767  40.898 -11.005  0.00  0.00    +0.000 A 
ATOM     10  C   UNL     1     -19.453  40.022 -10.171  0.00  0.00    +0.000 A 
ATOM     11  C   UNL     1     -18.815  41.368  -8.317  0.00  0.00    +0.000 A 
ATOM     12  C   UNL     1     -19.482  40.254  -8.801  0.00  0.00    +0.000 A 
BRANCH   9  15
ATOM     13  O   UNL     1     -17.941  39.843 -12.941  0.00  0.00    +0.000 OA
ATOM     14  N   UNL     1     -19.666  41.326 -13.229  0.00  0.00    +0.000 N 
ATOM     15  C   UNL     1     -18.743  40.647 -12.439  0.00  0.00    +0.000 C 
ATOM     16  H   UNL     1     -20.334  41.979 -12.835  0.00  0.00    +0.000 HD
ATOM     17  H   UNL     1     -19.697  41.183 -14.233  0.00  0.00    +0.000 HD
ENDBRANCH   9  15
ENDBRANCH   2   8
BRANCH   1  18
ATOM     18  C   UNL     1     -15.508  45.514 -13.939  0.00  0.00    +0.000 C 
BRANCH  18  19
ATOM     19  C   UNL     1     -16.478  46.647 -14.273  0.00  0.00    +0.000 C 
BRANCH  19  20
ATOM     20  C   UNL     1     -17.059  46.480 -15.679  0.00  0.00    +0.000 C 
BRANCH  20  21
ATOM     21  C   UNL     1     -18.566  46.743 -15.692  0.00  0.00    +0.000 C 
BRANCH  21  22
ATOM     22  C   UNL     1     -19.326  45.575 -16.319  0.00  0.00    +0.000 C 
BRANCH  22  23
ATOM     23  N   UNL     1     -19.568  44.537 -15.325  0.00  0.00    +0.000 NA
ATOM     24  H   UNL     1     -18.714  44.001 -15.173  0.00  0.00    +0.000 HD
ATOM     25  H   UNL     1     -20.258  43.878 -15.685  0.00  0.00    +0.000 HD
ENDBRANCH  22  23
ENDBRANCH  21  22
ENDBRANCH  20  21
ENDBRANCH  19  20
ENDBRANCH  18  19
ENDBRANCH   1  18
TORSDOF 8
ENDMDL
MODEL 3
REMARK VINA RESULT:    -5.194      5.134      6.724
REMARK INTER + INTRA:          -8.098
REMARK INTER:                  -7.494
REMARK INTRA:                  -0.605
REMARK UNBOUND:                -0.627
REMARK  Name = 43252545
REMARK  8 active torsions:
REMARK  status: ('A' for Active; 'I' for Inactive)
REMARK    1  A    between atoms: N_2  and  C_11
REMARK    2  A    between atoms: N_3  and  C_14
REMARK    3  A    between atoms: N_5  and  C_17
REMARK    4  A    between atoms: C_11  and  C_12
REMARK    5  A    between atoms: C_12  and  C_13
REMARK    6  A    between atoms: C_13  and  C_15
REMARK    7  A    between atoms: C_15  and  C_17
REMARK    8  A    between atoms: C_16  and  C_19
REMARK                            x       y       z     vdW  Elec       q    Type
REMARK                         _______ _______ _______ _____ _____    ______ ____
ROOT
ATOM      1  N   UNL     1     -17.110  45.902 -18.849  0.00  0.00    +0.000 NA
ATOM      2  N   UNL     1     -19.813  45.459 -18.040  0.00  0.00    +0.000 N 
ATOM      3  C   UNL     1     -17.535  46.210 -17.479  0.00  0.00    +0.000 C 
ATOM      4  C   UNL     1     -17.855  44.743 -19.355  0.00  0.00    +0.000 C 
ATOM      5  C   UNL     1     -19.030  46.536 -17.426  0.00  0.00    +0.000 C 
ATOM      6  C   UNL     1     -19.360  45.021 -19.366  0.00  0.00    +0.000 C 
ENDROOT
BRANCH   2   8
ATOM      7  N   UNL     1     -22.016  46.278 -18.188  0.00  0.00    +0.000 NA
ATOM      8  C   UNL     1     -21.171  45.326 -17.731  0.00  0.00    +0.000 A 
ATOM      9  C   UNL     1     -21.570  44.232 -16.981  0.00  0.00    +0.000 A 
ATOM     10  C   UNL     1     -22.921  44.107 -16.680  0.00  0.00    +0.000 A 
ATOM     11  C   UNL     1     -23.322  46.123 -17.876  0.00  0.00    +0.000 A 
ATOM     12  C   UNL     1     -23.821  45.065 -17.132  0.00  0.00    +0.000 A 
BRANCH   9  15
ATOM     13  O   UNL     1     -20.318  42.250 -17.207  0.00  0.00    +0.000 OA
ATOM     14  N   UNL     1     -20.095  43.393 -15.232  0.00  0.00    +0.000 N 
ATOM     15  C   UNL     1     -20.636  43.222 -16.503  0.00  0.00    +0.000 C 
ATOM     16  H   UNL     1     -20.336  44.185 -14.646  0.00  0.00    +0.000 HD
ATOM     17  H   UNL     1     -19.435  42.723 -14.852  0.00  0.00    +0.000 HD
ENDBRANCH   9  15
ENDBRANCH   2   8
BRANCH   1  18
ATOM     18  C   UNL     1     -15.671  45.646 -18.895  0.00  0.00    +0.000 C 
BRANCH  18  19
ATOM     19  C   UNL     1     -15.164  45.720 -20.335  0.00  0.00    +0.000 C 
BRANCH  19  20
ATOM     20  C   UNL     1     -13.707  45.263 -20.432  0.00  0.00    +0.000 C 
BRANCH  20  21
ATOM     21  C   UNL     1     -12.753  46.456 -20.504  0.00  0.00    +0.000 C 
BRANCH  21  22
ATOM     22  C   UNL     1     -11.658  46.352 -19.444  0.00  0.00    +0.000 C 
BRANCH  22  23
ATOM     23  N   UNL     1     -12.135  46.874 -18.169  0.00  0.00    +0.000 NA
ATOM     24  H   UNL     1     -11.340  47.107 -17.575  0.00  0.00    +0.000 HD
ATOM     25  H   UNL     1     -12.655  46.148 -17.679  0.00  0.00    +0.000 HD
ENDBRANCH  22  23
ENDBRANCH  21  22
ENDBRANCH  20  21
ENDBRANCH  19  20
ENDBRANCH  18  19
ENDBRANCH   1  18
TORSDOF 8
ENDMDL
MODEL 4
REMARK VINA RESULT:    -5.085      2.712      6.789
REMARK INTER + INTRA:          -7.941
REMARK INTER:                  -7.339
REMARK INTRA:                  -0.602
REMARK UNBOUND:                -0.627
REMARK  Name = 43252545
REMARK  8 active torsions:
REMARK  status: ('A' for Active; 'I' for Inactive)
REMARK    1  A    between atoms: N_2  and  C_11
REMARK    2  A    between atoms: N_3  and  C_14
REMARK    3  A    between atoms: N_5  and  C_17
REMARK    4  A    between atoms: C_11  and  C_12
REMARK    5  A    between atoms: C_12  and  C_13
REMARK    6  A    between atoms: C_13  and  C_15
REMARK    7  A    between atoms: C_15  and  C_17
REMARK    8  A    between atoms: C_16  and  C_19
REMARK                            x       y       z     vdW  Elec       q    Type
REMARK                         _______ _______ _______ _____ _____    ______ ____
ROOT
ATOM      1  N   UNL     1     -16.564  44.013 -12.101  0.00  0.00    +0.000 NA
ATOM      2  N   UNL     1     -18.098  45.416 -14.060  0.00  0.00    +0.000 N 
ATOM      3  C   UNL     1     -18.028  43.917 -12.107  0.00  0.00    +0.000 C 
ATOM      4  C   UNL     1     -16.067  44.148 -13.476  0.00  0.00    +0.000 C 
ATOM      5  C   UNL     1     -18.660  45.164 -12.730  0.00  0.00    +0.000 C 
ATOM      6  C   UNL     1     -16.632  45.404 -14.143  0.00  0.00    +0.000 C 
ENDROOT
BRANCH   2   8
ATOM      7  N   UNL     1     -18.738  47.553 -14.816  0.00  0.00    +0.000 NA
ATOM      8  C   UNL     1     -18.802  46.211 -14.971  0.00  0.00    +0.000 A 
ATOM      9  C   UNL     1     -19.518  45.580 -15.976  0.00  0.00    +0.000 A 
ATOM     10  C   UNL     1     -20.213  46.377 -16.878  0.00  0.00    +0.000 A 
ATOM     11  C   UNL     1     -19.426  48.295 -15.712  0.00  0.00    +0.000 A 
ATOM     12  C   UNL     1     -20.172  47.761 -16.752  0.00  0.00    +0.000 A 
BRANCH   9  15
ATOM     13  O   UNL     1     -20.070  43.413 -15.240  0.00  0.00    +0.000 OA
ATOM     14  N   UNL     1     -19.045  43.580 -17.284  0.00  0.00    +0.000 N 
ATOM     15  C   UNL     1     -19.567  44.132 -16.118  0.00  0.00    +0.000 C 
ATOM     16  H   UNL     1     -18.638  44.152 -18.016  0.00  0.00    +0.000 HD
ATOM     17  H   UNL     1     -19.059  42.577 -17.438  0.00  0.00    +0.000 HD
ENDBRANCH   9  15
ENDBRANCH   2   8
BRANCH   1  18
ATOM     18  C   UNL     1     -15.975  42.840 -11.456  0.00  0.00    +0.000 C 
BRANCH  18  19
ATOM     19  C   UNL     1     -17.071  41.935 -10.897  0.00  0.00    +0.000 C 
BRANCH  19  20
ATOM     20  C   UNL     1     -16.855  40.480 -11.318  0.00  0.00    +0.000 C 
BRANCH  20  21
ATOM     21  C   UNL     1     -17.524  40.183 -12.662  0.00  0.00    +0.000 C 
BRANCH  21  22
ATOM     22  C   UNL     1     -18.901  39.553 -12.466  0.00  0.00    +0.000 C 
BRANCH  22  23
ATOM     23  N   UNL     1     -19.946  40.555 -12.634  0.00  0.00    +0.000 NA
ATOM     24  H   UNL     1     -20.635  40.460 -11.889  0.00  0.00    +0.000 HD
ATOM     25  H   UNL     1     -20.443  40.382 -13.507  0.00  0.00    +0.000 HD
ENDBRANCH  22  23
ENDBRANCH  21  22
ENDBRANCH  20  21
ENDBRANCH  19  20
ENDBRANCH  18  19
ENDBRANCH   1  18
TORSDOF 8
ENDMDL
MODEL 5
REMARK VINA RESULT:    -4.827      2.442      3.373
REMARK INTER + INTRA:          -7.571
REMARK INTER:                  -6.884
REMARK INTRA:                  -0.687
REMARK UNBOUND:                -0.627
REMARK  Name = 43252545
REMARK  8 active torsions:
REMARK  status: ('A' for Active; 'I' for Inactive)
REMARK    1  A    between atoms: N_2  and  C_11
REMARK    2  A    between atoms: N_3  and  C_14
REMARK    3  A    between atoms: N_5  and  C_17
REMARK    4  A    between atoms: C_11  and  C_12
REMARK    5  A    between atoms: C_12  and  C_13
REMARK    6  A    between atoms: C_13  and  C_15
REMARK    7  A    between atoms: C_15  and  C_17
REMARK    8  A    between atoms: C_16  and  C_19
REMARK                            x       y       z     vdW  Elec       q    Type
REMARK                         _______ _______ _______ _____ _____    ______ ____
ROOT
ATOM      1  N   UNL     1     -15.669  45.147 -12.279  0.00  0.00    +0.000 NA
ATOM      2  N   UNL     1     -17.245  43.048 -11.154  0.00  0.00    +0.000 N 
ATOM      3  C   UNL     1     -15.249  43.748 -12.416  0.00  0.00    +0.000 C 
ATOM      4  C   UNL     1     -17.135  45.232 -12.290  0.00  0.00    +0.000 C 
ATOM      5  C   UNL     1     -15.791  42.895 -11.266  0.00  0.00    +0.000 C 
ATOM      6  C   UNL     1     -17.739  44.430 -11.136  0.00  0.00    +0.000 C 
ENDROOT
BRANCH   2   8
ATOM      7  N   UNL     1     -18.134  42.189  -9.150  0.00  0.00    +0.000 NA
ATOM      8  C   UNL     1     -17.996  42.072 -10.490  0.00  0.00    +0.000 A 
ATOM      9  C   UNL     1     -18.553  41.049 -11.240  0.00  0.00    +0.000 A 
ATOM     10  C   UNL     1     -19.300  40.084 -10.573  0.00  0.00    +0.000 A 
ATOM     11  C   UNL     1     -18.866  41.232  -8.536  0.00  0.00    +0.000 A 
ATOM     12  C   UNL     1     -19.464  40.170  -9.195  0.00  0.00    +0.000 A 
BRANCH   9  15
ATOM     13  O   UNL     1     -17.462  40.291 -13.185  0.00  0.00    +0.000 OA
ATOM     14  N   UNL     1     -19.316  41.607 -13.486  0.00  0.00    +0.000 N 
ATOM     15  C   UNL     1     -18.388  40.950 -12.684  0.00  0.00    +0.000 C 
ATOM     16  H   UNL     1     -20.083  42.142 -13.095  0.00  0.00    +0.000 HD
ATOM     17  H   UNL     1     -19.252  41.566 -14.498  0.00  0.00    +0.000 HD
ENDBRANCH   9  15
ENDBRANCH   2   8
BRANCH   1  18
ATOM     18  C   UNL     1     -15.101  45.961 -13.353  0.00  0.00    +0.000 C 
BRANCH  18  19
ATOM     19  C   UNL     1     -14.935  47.409 -12.891  0.00  0.00    +0.000 C 
BRANCH  19  20
ATOM     20  C   UNL     1     -14.427  47.474 -11.449  0.00  0.00    +0.000 C 
BRANCH  20  21
ATOM     21  C   UNL     1     -15.090  48.616 -10.676  0.00  0.00    +0.000 C 
BRANCH  21  22
ATOM     22  C   UNL     1     -16.230  49.239 -11.480  0.00  0.00    +0.000 C 
BRANCH  22  23
ATOM     23  N   UNL     1     -17.456  49.255 -10.693  0.00  0.00    +0.000 NA
ATOM     24  H   UNL     1     -18.102  48.552 -11.050  0.00  0.00    +0.000 HD
ATOM     25  H   UNL     1     -17.920  50.155 -10.808  0.00  0.00    +0.000 HD
ENDBRANCH  22  23
ENDBRANCH  21  22
ENDBRANCH  20  21
ENDBRANCH  19  20
ENDBRANCH  18  19
ENDBRANCH   1  18
TORSDOF 8
ENDMDL
