MODEL 1
REMARK VINA RESULT:    -6.492      0.000      0.000
REMARK INTER + INTRA:          -8.766
REMARK INTER:                  -8.579
REMARK INTRA:                  -0.188
REMARK UNBOUND:                -0.188
REMARK  Name = 43251496
REMARK  6 active torsions:
REMARK  status: ('A' for Active; 'I' for Inactive)
REMARK    1  A    between atoms: N_2  and  C_12
REMARK    2  A    between atoms: N_3  and  C_14
REMARK    3  A    between atoms: N_5  and  C_15
REMARK    4  A    between atoms: C_12  and  C_13
REMARK    5  A    between atoms: C_13  and  C_15
REMARK    6  A    between atoms: C_16  and  C_18
REMARK                            x       y       z     vdW  Elec       q    Type
REMARK                         _______ _______ _______ _____ _____    ______ ____
ROOT
ATOM      1  N   UNL     1     -18.549  40.277 -10.425  0.00  0.00    +0.000 NA
ATOM      2  N   UNL     1     -18.578  42.227 -13.058  0.00  0.00    +0.000 N 
ATOM      3  C   UNL     1     -17.229  40.230 -11.056  0.00  0.00    +0.000 C 
ATOM      4  C   UNL     1     -19.492  41.247 -10.988  0.00  0.00    +0.000 C 
ATOM      5  C   UNL     1     -16.671  41.558 -11.576  0.00  0.00    +0.000 C 
ATOM      6  C   UNL     1     -19.555  41.278 -12.517  0.00  0.00    +0.000 C 
ATOM      7  C   UNL     1     -17.150  41.902 -12.986  0.00  0.00    +0.000 C 
ENDROOT
BRANCH   2   9
ATOM      8  N   UNL     1     -19.679  42.408 -15.138  0.00  0.00    +0.000 NA
ATOM      9  C   UNL     1     -18.951  43.005 -14.168  0.00  0.00    +0.000 A 
ATOM     10  C   UNL     1     -18.550  44.331 -14.205  0.00  0.00    +0.000 A 
ATOM     11  C   UNL     1     -18.921  45.093 -15.306  0.00  0.00    +0.000 A 
ATOM     12  C   UNL     1     -20.021  43.180 -16.194  0.00  0.00    +0.000 A 
ATOM     13  C   UNL     1     -19.670  44.515 -16.325  0.00  0.00    +0.000 A 
BRANCH  10  16
ATOM     14  O   UNL     1     -18.266  45.224 -12.044  0.00  0.00    +0.000 OA
ATOM     15  N   UNL     1     -16.418  45.193 -13.401  0.00  0.00    +0.000 N 
ATOM     16  C   UNL     1     -17.762  44.945 -13.145  0.00  0.00    +0.000 C 
ATOM     17  H   UNL     1     -15.987  44.967 -14.292  0.00  0.00    +0.000 HD
ATOM     18  H   UNL     1     -15.823  45.616 -12.697  0.00  0.00    +0.000 HD
ENDBRANCH  10  16
ENDBRANCH   2   9
BRANCH   1  19
ATOM     19  C   UNL     1     -18.445  40.460  -8.977  0.00  0.00    +0.000 C 
BRANCH  19  20
ATOM     20  C   UNL     1     -19.837  40.468  -8.343  0.00  0.00    +0.000 C 
BRANCH  20  21
ATOM     21  C   UNL     1     -19.915  41.333  -7.082  0.00  0.00    +0.000 C 
BRANCH  21  22
ATOM     22  N   UNL     1     -19.251  42.618  -7.261  0.00  0.00    +0.000 NA
ATOM     23  H   UNL     1     -18.978  42.993  -6.353  0.00  0.00    +0.000 HD
ATOM     24  H   UNL     1     -19.910  43.286  -7.660  0.00  0.00    +0.000 HD
ENDBRANCH  21  22
ENDBRANCH  20  21
ENDBRANCH  19  20
ENDBRANCH   1  19
TORSDOF 6
ENDMDL
MODEL 2
REMARK VINA RESULT:    -4.980     16.969     18.801
REMARK INTER + INTRA:          -6.769
REMARK INTER:                  -6.126
REMARK INTRA:                  -0.643
REMARK UNBOUND:                -0.188
REMARK  Name = 43251496
REMARK  6 active torsions:
REMARK  status: ('A' for Active; 'I' for Inactive)
REMARK    1  A    between atoms: N_2  and  C_12
REMARK    2  A    between atoms: N_3  and  C_14
REMARK    3  A    between atoms: N_5  and  C_15
REMARK    4  A    between atoms: C_12  and  C_13
REMARK    5  A    between atoms: C_13  and  C_15
REMARK    6  A    between atoms: C_16  and  C_18
REMARK                            x       y       z     vdW  Elec       q    Type
REMARK                         _______ _______ _______ _____ _____    ______ ____
ROOT
ATOM      1  N   UNL     1     -28.757  38.196   3.481  0.00  0.00    +0.000 NA
ATOM      2  N   UNL     1     -30.058  41.114   2.751  0.00  0.00    +0.000 N 
ATOM      3  C   UNL     1     -29.912  37.987   2.605  0.00  0.00    +0.000 C 
ATOM      4  C   UNL     1     -28.367  39.591   3.702  0.00  0.00    +0.000 C 
ATOM      5  C   UNL     1     -30.079  38.974   1.446  0.00  0.00    +0.000 C 
ATOM      6  C   UNL     1     -29.525  40.549   3.995  0.00  0.00    +0.000 C 
ATOM      7  C   UNL     1     -30.820  40.250   1.844  0.00  0.00    +0.000 C 
ENDROOT
BRANCH   2   9
ATOM      8  N   UNL     1     -31.661  42.769   3.262  0.00  0.00    +0.000 NA
ATOM      9  C   UNL     1     -30.449  42.464   2.748  0.00  0.00    +0.000 A 
ATOM     10  C   UNL     1     -29.574  43.398   2.218  0.00  0.00    +0.000 A 
ATOM     11  C   UNL     1     -29.967  44.732   2.216  0.00  0.00    +0.000 A 
ATOM     12  C   UNL     1     -32.010  44.075   3.242  0.00  0.00    +0.000 A 
ATOM     13  C   UNL     1     -31.208  45.085   2.736  0.00  0.00    +0.000 A 
BRANCH  10  16
ATOM     14  O   UNL     1     -27.255  43.018   2.377  0.00  0.00    +0.000 OA
ATOM     15  N   UNL     1     -28.216  42.697   0.320  0.00  0.00    +0.000 N 
ATOM     16  C   UNL     1     -28.274  43.038   1.667  0.00  0.00    +0.000 C 
ATOM     17  H   UNL     1     -29.039  42.701  -0.274  0.00  0.00    +0.000 HD
ATOM     18  H   UNL     1     -27.337  42.435  -0.113  0.00  0.00    +0.000 HD
ENDBRANCH  10  16
ENDBRANCH   2   9
BRANCH   1  19
ATOM     19  C   UNL     1     -27.600  37.415   3.039  0.00  0.00    +0.000 C 
BRANCH  19  20
ATOM     20  C   UNL     1     -26.963  36.695   4.228  0.00  0.00    +0.000 C 
BRANCH  20  21
ATOM     21  C   UNL     1     -26.738  35.202   3.972  0.00  0.00    +0.000 C 
BRANCH  21  22
ATOM     22  N   UNL     1     -27.377  34.758   2.739  0.00  0.00    +0.000 NA
ATOM     23  H   UNL     1     -27.741  33.814   2.862  0.00  0.00    +0.000 HD
ATOM     24  H   UNL     1     -26.680  34.703   1.998  0.00  0.00    +0.000 HD
ENDBRANCH  21  22
ENDBRANCH  20  21
ENDBRANCH  19  20
ENDBRANCH   1  19
TORSDOF 6
ENDMDL
MODEL 3
REMARK VINA RESULT:    -4.908     17.434     22.220
REMARK INTER + INTRA:          -6.674
REMARK INTER:                  -5.997
REMARK INTRA:                  -0.677
REMARK UNBOUND:                -0.188
REMARK  Name = 43251496
REMARK  6 active torsions:
REMARK  status: ('A' for Active; 'I' for Inactive)
REMARK    1  A    between atoms: N_2  and  C_12
REMARK    2  A    between atoms: N_3  and  C_14
REMARK    3  A    between atoms: N_5  and  C_15
REMARK    4  A    between atoms: C_12  and  C_13
REMARK    5  A    between atoms: C_13  and  C_15
REMARK    6  A    between atoms: C_16  and  C_18
REMARK                            x       y       z     vdW  Elec       q    Type
REMARK                         _______ _______ _______ _____ _____    ______ ____
ROOT
ATOM      1  N   UNL     1     -20.756  32.158   3.750  0.00  0.00    +0.000 NA
ATOM      2  N   UNL     1     -22.626  30.369   5.761  0.00  0.00    +0.000 N 
ATOM      3  C   UNL     1     -20.204  32.246   5.104  0.00  0.00    +0.000 C 
ATOM      4  C   UNL     1     -21.868  31.221   3.573  0.00  0.00    +0.000 C 
ATOM      5  C   UNL     1     -20.194  30.952   5.924  0.00  0.00    +0.000 C 
ATOM      6  C   UNL     1     -22.946  31.283   4.660  0.00  0.00    +0.000 C 
ATOM      7  C   UNL     1     -21.510  30.693   6.656  0.00  0.00    +0.000 C 
ENDROOT
BRANCH   2   9
ATOM      8  N   UNL     1     -24.470  30.324   7.233  0.00  0.00    +0.000 NA
ATOM      9  C   UNL     1     -23.679  29.658   6.363  0.00  0.00    +0.000 A 
ATOM     10  C   UNL     1     -23.841  28.322   6.033  0.00  0.00    +0.000 A 
ATOM     11  C   UNL     1     -24.883  27.625   6.634  0.00  0.00    +0.000 A 
ATOM     12  C   UNL     1     -25.473  29.614   7.798  0.00  0.00    +0.000 A 
ATOM     13  C   UNL     1     -25.719  28.276   7.535  0.00  0.00    +0.000 A 
BRANCH  10  16
ATOM     14  O   UNL     1     -23.180  27.666   3.870  0.00  0.00    +0.000 OA
ATOM     15  N   UNL     1     -21.877  26.942   5.613  0.00  0.00    +0.000 N 
ATOM     16  C   UNL     1     -22.969  27.631   5.094  0.00  0.00    +0.000 C 
ATOM     17  H   UNL     1     -21.685  26.907   6.609  0.00  0.00    +0.000 HD
ATOM     18  H   UNL     1     -21.236  26.447   5.004  0.00  0.00    +0.000 HD
ENDBRANCH  10  16
ENDBRANCH   2   9
BRANCH   1  19
ATOM     19  C   UNL     1     -19.710  31.889   2.762  0.00  0.00    +0.000 C 
BRANCH  19  20
ATOM     20  C   UNL     1     -20.235  32.159   1.351  0.00  0.00    +0.000 C 
BRANCH  20  21
ATOM     21  C   UNL     1     -20.458  33.648   1.071  0.00  0.00    +0.000 C 
BRANCH  21  22
ATOM     22  N   UNL     1     -21.390  33.862  -0.029  0.00  0.00    +0.000 NA
ATOM     23  H   UNL     1     -22.088  33.120  -0.038  0.00  0.00    +0.000 HD
ATOM     24  H   UNL     1     -20.889  33.795  -0.914  0.00  0.00    +0.000 HD
ENDBRANCH  21  22
ENDBRANCH  20  21
ENDBRANCH  19  20
ENDBRANCH   1  19
TORSDOF 6
ENDMDL
MODEL 4
REMARK VINA RESULT:    -4.907     16.131     19.488
REMARK INTER + INTRA:          -6.673
REMARK INTER:                  -6.042
REMARK INTRA:                  -0.631
REMARK UNBOUND:                -0.188
REMARK  Name = 43251496
REMARK  6 active torsions:
REMARK  status: ('A' for Active; 'I' for Inactive)
REMARK    1  A    between atoms: N_2  and  C_12
REMARK    2  A    between atoms: N_3  and  C_14
REMARK    3  A    between atoms: N_5  and  C_15
REMARK    4  A    between atoms: C_12  and  C_13
REMARK    5  A    between atoms: C_13  and  C_15
REMARK    6  A    between atoms: C_16  and  C_18
REMARK                            x       y       z     vdW  Elec       q    Type
REMARK                         _______ _______ _______ _____ _____    ______ ____
ROOT
ATOM      1  N   UNL     1     -22.089  30.035   4.861  0.00  0.00    +0.000 NA
ATOM      2  N   UNL     1     -21.070  32.954   3.774  0.00  0.00    +0.000 N 
ATOM      3  C   UNL     1     -22.941  31.074   5.444  0.00  0.00    +0.000 C 
ATOM      4  C   UNL     1     -21.122  30.489   3.858  0.00  0.00    +0.000 C 
ATOM      5  C   UNL     1     -23.349  32.223   4.517  0.00  0.00    +0.000 C 
ATOM      6  C   UNL     1     -20.352  31.759   4.230  0.00  0.00    +0.000 C 
ATOM      7  C   UNL     1     -22.311  33.342   4.452  0.00  0.00    +0.000 C 
ENDROOT
BRANCH   2   9
ATOM      8  N   UNL     1     -19.721  34.856   4.138  0.00  0.00    +0.000 NA
ATOM      9  C   UNL     1     -20.320  34.024   3.256  0.00  0.00    +0.000 A 
ATOM     10  C   UNL     1     -20.241  34.164   1.881  0.00  0.00    +0.000 A 
ATOM     11  C   UNL     1     -19.499  35.226   1.376  0.00  0.00    +0.000 A 
ATOM     12  C   UNL     1     -19.008  35.877   3.611  0.00  0.00    +0.000 A 
ATOM     13  C   UNL     1     -18.868  36.104   2.251  0.00  0.00    +0.000 A 
BRANCH  10  16
ATOM     14  O   UNL     1     -22.085  33.419   0.619  0.00  0.00    +0.000 OA
ATOM     15  N   UNL     1     -20.152  32.197   0.446  0.00  0.00    +0.000 N 
ATOM     16  C   UNL     1     -20.901  33.253   0.956  0.00  0.00    +0.000 C 
ATOM     17  H   UNL     1     -19.182  32.049   0.704  0.00  0.00    +0.000 HD
ATOM     18  H   UNL     1     -20.561  31.535  -0.204  0.00  0.00    +0.000 HD
ENDBRANCH  10  16
ENDBRANCH   2   9
BRANCH   1  19
ATOM     19  C   UNL     1     -22.884  28.928   4.327  0.00  0.00    +0.000 C 
BRANCH  19  20
ATOM     20  C   UNL     1     -22.633  27.657   5.140  0.00  0.00    +0.000 C 
BRANCH  20  21
ATOM     21  C   UNL     1     -23.609  27.493   6.308  0.00  0.00    +0.000 C 
BRANCH  21  22
ATOM     22  N   UNL     1     -24.838  26.822   5.903  0.00  0.00    +0.000 NA
ATOM     23  H   UNL     1     -25.575  27.020   6.577  0.00  0.00    +0.000 HD
ATOM     24  H   UNL     1     -24.694  25.813   5.922  0.00  0.00    +0.000 HD
ENDBRANCH  21  22
ENDBRANCH  20  21
ENDBRANCH  19  20
ENDBRANCH   1  19
TORSDOF 6
ENDMDL
MODEL 5
REMARK VINA RESULT:    -4.884      2.571      3.848
REMARK INTER + INTRA:          -6.642
REMARK INTER:                  -6.009
REMARK INTRA:                  -0.633
REMARK UNBOUND:                -0.188
REMARK  Name = 43251496
REMARK  6 active torsions:
REMARK  status: ('A' for Active; 'I' for Inactive)
REMARK    1  A    between atoms: N_2  and  C_12
REMARK    2  A    between atoms: N_3  and  C_14
REMARK    3  A    between atoms: N_5  and  C_15
REMARK    4  A    between atoms: C_12  and  C_13
REMARK    5  A    between atoms: C_13  and  C_15
REMARK    6  A    between atoms: C_16  and  C_18
REMARK                            x       y       z     vdW  Elec       q    Type
REMARK                         _______ _______ _______ _____ _____    ______ ____
ROOT
ATOM      1  N   UNL     1     -17.656  42.217 -12.319  0.00  0.00    +0.000 NA
ATOM      2  N   UNL     1     -17.350  45.242 -13.542  0.00  0.00    +0.000 N 
ATOM      3  C   UNL     1     -16.288  42.385 -12.813  0.00  0.00    +0.000 C 
ATOM      4  C   UNL     1     -18.495  43.418 -12.339  0.00  0.00    +0.000 C 
ATOM      5  C   UNL     1     -15.620  43.735 -12.533  0.00  0.00    +0.000 C 
ATOM      6  C   UNL     1     -18.418  44.241 -13.628  0.00  0.00    +0.000 C 
ATOM      7  C   UNL     1     -15.952  44.800 -13.577  0.00  0.00    +0.000 C 
ENDROOT
BRANCH   2   9
ATOM      8  N   UNL     1     -17.762  46.588 -15.436  0.00  0.00    +0.000 NA
ATOM      9  C   UNL     1     -17.582  46.512 -14.099  0.00  0.00    +0.000 A 
ATOM     10  C   UNL     1     -17.610  47.606 -13.249  0.00  0.00    +0.000 A 
ATOM     11  C   UNL     1     -17.838  48.858 -13.807  0.00  0.00    +0.000 A 
ATOM     12  C   UNL     1     -17.981  47.822 -15.944  0.00  0.00    +0.000 A 
ATOM     13  C   UNL     1     -18.027  48.978 -15.180  0.00  0.00    +0.000 A 
BRANCH  10  16
ATOM     14  O   UNL     1     -16.272  47.533 -11.312  0.00  0.00    +0.000 OA
ATOM     15  N   UNL     1     -18.538  47.355 -11.010  0.00  0.00    +0.000 N 
ATOM     16  C   UNL     1     -17.409  47.492 -11.811  0.00  0.00    +0.000 C 
ATOM     17  H   UNL     1     -19.475  47.326 -11.399  0.00  0.00    +0.000 HD
ATOM     18  H   UNL     1     -18.456  47.276 -10.003  0.00  0.00    +0.000 HD
ENDBRANCH  10  16
ENDBRANCH   2   9
BRANCH   1  19
ATOM     19  C   UNL     1     -17.674  41.614 -10.986  0.00  0.00    +0.000 C 
BRANCH  19  20
ATOM     20  C   UNL     1     -17.696  40.088 -11.096  0.00  0.00    +0.000 C 
BRANCH  20  21
ATOM     21  C   UNL     1     -18.670  39.581 -12.162  0.00  0.00    +0.000 C 
BRANCH  21  22
ATOM     22  N   UNL     1     -19.574  38.565 -11.635  0.00  0.00    +0.000 NA
ATOM     23  H   UNL     1     -20.228  38.278 -12.362  0.00  0.00    +0.000 HD
ATOM     24  H   UNL     1     -20.136  38.968 -10.887  0.00  0.00    +0.000 HD
ENDBRANCH  21  22
ENDBRANCH  20  21
ENDBRANCH  19  20
ENDBRANCH   1  19
TORSDOF 6
ENDMDL
