MODEL 1
REMARK VINA RESULT:    -6.256      0.000      0.000
REMARK INTER + INTRA:          -8.906
REMARK INTER:                  -8.633
REMARK INTRA:                  -0.273
REMARK UNBOUND:                -0.273
REMARK  Name = 43252523
REMARK  7 active torsions:
REMARK  status: ('A' for Active; 'I' for Inactive)
REMARK    1  A    between atoms: N_2  and  C_12
REMARK    2  A    between atoms: N_3  and  C_14
REMARK    3  A    between atoms: N_5  and  C_16
REMARK    4  A    between atoms: C_12  and  C_13
REMARK    5  A    between atoms: C_13  and  C_15
REMARK    6  A    between atoms: C_15  and  C_16
REMARK    7  A    between atoms: C_17  and  C_19
REMARK                            x       y       z     vdW  Elec       q    Type
REMARK                         _______ _______ _______ _____ _____    ______ ____
ROOT
ATOM      1  N   UNL     1     -18.730  41.200 -10.694  0.00  0.00    +0.000 NA
ATOM      2  N   UNL     1     -18.766  42.734 -13.572  0.00  0.00    +0.000 N 
ATOM      3  C   UNL     1     -17.306  41.424 -10.964  0.00  0.00    +0.000 C 
ATOM      4  C   UNL     1     -19.524  41.018 -11.915  0.00  0.00    +0.000 C 
ATOM      5  C   UNL     1     -17.003  42.667 -11.802  0.00  0.00    +0.000 C 
ATOM      6  C   UNL     1     -19.810  42.345 -12.624  0.00  0.00    +0.000 C 
ATOM      7  C   UNL     1     -17.349  42.512 -13.282  0.00  0.00    +0.000 C 
ENDROOT
BRANCH   2   9
ATOM      8  N   UNL     1     -19.741  42.584 -15.710  0.00  0.00    +0.000 NA
ATOM      9  C   UNL     1     -19.124  43.345 -14.778  0.00  0.00    +0.000 A 
ATOM     10  C   UNL     1     -18.827  44.688 -14.947  0.00  0.00    +0.000 A 
ATOM     11  C   UNL     1     -19.187  45.288 -16.148  0.00  0.00    +0.000 A 
ATOM     12  C   UNL     1     -20.075  43.201 -16.865  0.00  0.00    +0.000 A 
ATOM     13  C   UNL     1     -19.823  44.537 -17.131  0.00  0.00    +0.000 A 
BRANCH  10  16
ATOM     14  O   UNL     1     -16.987  45.861 -14.062  0.00  0.00    +0.000 OA
ATOM     15  N   UNL     1     -18.896  45.822 -12.792  0.00  0.00    +0.000 N 
ATOM     16  C   UNL     1     -18.162  45.483 -13.924  0.00  0.00    +0.000 C 
ATOM     17  H   UNL     1     -19.859  45.528 -12.666  0.00  0.00    +0.000 HD
ATOM     18  H   UNL     1     -18.485  46.382 -12.053  0.00  0.00    +0.000 HD
ENDBRANCH  10  16
ENDBRANCH   2   9
BRANCH   1  19
ATOM     19  C   UNL     1     -18.882  40.036  -9.814  0.00  0.00    +0.000 C 
BRANCH  19  20
ATOM     20  C   UNL     1     -19.276  40.429  -8.389  0.00  0.00    +0.000 C 
BRANCH  20  21
ATOM     21  C   UNL     1     -20.693  41.000  -8.282  0.00  0.00    +0.000 C 
BRANCH  21  22
ATOM     22  C   UNL     1     -20.841  41.871  -7.035  0.00  0.00    +0.000 C 
BRANCH  22  23
ATOM     23  N   UNL     1     -19.586  42.555  -6.741  0.00  0.00    +0.000 NA
ATOM     24  H   UNL     1     -19.673  43.544  -6.969  0.00  0.00    +0.000 HD
ATOM     25  H   UNL     1     -18.851  42.187  -7.344  0.00  0.00    +0.000 HD
ENDBRANCH  22  23
ENDBRANCH  21  22
ENDBRANCH  20  21
ENDBRANCH  19  20
ENDBRANCH   1  19
TORSDOF 7
ENDMDL
MODEL 2
REMARK VINA RESULT:    -6.110      2.322      3.477
REMARK INTER + INTRA:          -8.705
REMARK INTER:                  -8.533
REMARK INTRA:                  -0.172
REMARK UNBOUND:                -0.273
REMARK  Name = 43252523
REMARK  7 active torsions:
REMARK  status: ('A' for Active; 'I' for Inactive)
REMARK    1  A    between atoms: N_2  and  C_12
REMARK    2  A    between atoms: N_3  and  C_14
REMARK    3  A    between atoms: N_5  and  C_16
REMARK    4  A    between atoms: C_12  and  C_13
REMARK    5  A    between atoms: C_13  and  C_15
REMARK    6  A    between atoms: C_15  and  C_16
REMARK    7  A    between atoms: C_17  and  C_19
REMARK                            x       y       z     vdW  Elec       q    Type
REMARK                         _______ _______ _______ _____ _____    ______ ____
ROOT
ATOM      1  N   UNL     1     -19.088  40.384  -9.663  0.00  0.00    +0.000 NA
ATOM      2  N   UNL     1     -17.125  42.153 -11.574  0.00  0.00    +0.000 N 
ATOM      3  C   UNL     1     -18.948  39.543 -10.856  0.00  0.00    +0.000 C 
ATOM      4  C   UNL     1     -19.008  41.820  -9.959  0.00  0.00    +0.000 C 
ATOM      5  C   UNL     1     -17.619  39.704 -11.597  0.00  0.00    +0.000 C 
ATOM      6  C   UNL     1     -17.567  42.286 -10.185  0.00  0.00    +0.000 C 
ATOM      7  C   UNL     1     -17.510  41.004 -12.392  0.00  0.00    +0.000 C 
ENDROOT
BRANCH   2   9
ATOM      8  N   UNL     1     -15.011  43.177 -11.740  0.00  0.00    +0.000 NA
ATOM      9  C   UNL     1     -16.305  43.140 -12.131  0.00  0.00    +0.000 A 
ATOM     10  C   UNL     1     -16.864  44.018 -13.046  0.00  0.00    +0.000 A 
ATOM     11  C   UNL     1     -16.042  44.995 -13.596  0.00  0.00    +0.000 A 
ATOM     12  C   UNL     1     -14.243  44.141 -12.295  0.00  0.00    +0.000 A 
ATOM     13  C   UNL     1     -14.705  45.065 -13.219  0.00  0.00    +0.000 A 
BRANCH  10  16
ATOM     14  O   UNL     1     -18.643  43.174 -14.338  0.00  0.00    +0.000 OA
ATOM     15  N   UNL     1     -19.163  44.781 -12.787  0.00  0.00    +0.000 N 
ATOM     16  C   UNL     1     -18.262  43.953 -13.448  0.00  0.00    +0.000 C 
ATOM     17  H   UNL     1     -18.871  45.417 -12.052  0.00  0.00    +0.000 HD
ATOM     18  H   UNL     1     -20.150  44.770 -13.021  0.00  0.00    +0.000 HD
ENDBRANCH  10  16
ENDBRANCH   2   9
BRANCH   1  19
ATOM     19  C   UNL     1     -20.359  40.076  -8.997  0.00  0.00    +0.000 C 
BRANCH  19  20
ATOM     20  C   UNL     1     -20.536  40.853  -7.691  0.00  0.00    +0.000 C 
BRANCH  20  21
ATOM     21  C   UNL     1     -21.932  41.461  -7.526  0.00  0.00    +0.000 C 
BRANCH  21  22
ATOM     22  C   UNL     1     -21.865  42.800  -6.791  0.00  0.00    +0.000 C 
BRANCH  22  23
ATOM     23  N   UNL     1     -22.918  42.881  -5.786  0.00  0.00    +0.000 NA
ATOM     24  H   UNL     1     -22.510  42.810  -4.855  0.00  0.00    +0.000 HD
ATOM     25  H   UNL     1     -23.543  42.082  -5.885  0.00  0.00    +0.000 HD
ENDBRANCH  22  23
ENDBRANCH  21  22
ENDBRANCH  20  21
ENDBRANCH  19  20
ENDBRANCH   1  19
TORSDOF 7
ENDMDL
MODEL 3
REMARK VINA RESULT:    -5.983      2.188      6.832
REMARK INTER + INTRA:          -8.529
REMARK INTER:                  -7.884
REMARK INTRA:                  -0.645
REMARK UNBOUND:                -0.273
REMARK  Name = 43252523
REMARK  7 active torsions:
REMARK  status: ('A' for Active; 'I' for Inactive)
REMARK    1  A    between atoms: N_2  and  C_12
REMARK    2  A    between atoms: N_3  and  C_14
REMARK    3  A    between atoms: N_5  and  C_16
REMARK    4  A    between atoms: C_12  and  C_13
REMARK    5  A    between atoms: C_13  and  C_15
REMARK    6  A    between atoms: C_15  and  C_16
REMARK    7  A    between atoms: C_17  and  C_19
REMARK                            x       y       z     vdW  Elec       q    Type
REMARK                         _______ _______ _______ _____ _____    ______ ____
ROOT
ATOM      1  N   UNL     1     -17.249  45.279 -14.241  0.00  0.00    +0.000 NA
ATOM      2  N   UNL     1     -17.481  43.120 -11.808  0.00  0.00    +0.000 N 
ATOM      3  C   UNL     1     -15.865  45.165 -13.771  0.00  0.00    +0.000 C 
ATOM      4  C   UNL     1     -18.237  45.077 -13.173  0.00  0.00    +0.000 C 
ATOM      5  C   UNL     1     -15.504  43.804 -13.175  0.00  0.00    +0.000 C 
ATOM      6  C   UNL     1     -18.419  43.596 -12.825  0.00  0.00    +0.000 C 
ATOM      7  C   UNL     1     -16.088  43.567 -11.783  0.00  0.00    +0.000 C 
ENDROOT
BRANCH   2   9
ATOM      8  N   UNL     1     -18.106  42.661  -9.584  0.00  0.00    +0.000 NA
ATOM      9  C   UNL     1     -17.919  42.206 -10.844  0.00  0.00    +0.000 A 
ATOM     10  C   UNL     1     -18.134  40.894 -11.234  0.00  0.00    +0.000 A 
ATOM     11  C   UNL     1     -18.569  39.991 -10.270  0.00  0.00    +0.000 A 
ATOM     12  C   UNL     1     -18.528  41.755  -8.675  0.00  0.00    +0.000 A 
ATOM     13  C   UNL     1     -18.773  40.422  -8.964  0.00  0.00    +0.000 A 
BRANCH  10  16
ATOM     14  O   UNL     1     -18.870  40.336 -13.401  0.00  0.00    +0.000 OA
ATOM     15  N   UNL     1     -16.625  40.122 -12.984  0.00  0.00    +0.000 N 
ATOM     16  C   UNL     1     -17.925  40.433 -12.599  0.00  0.00    +0.000 C 
ATOM     17  H   UNL     1     -15.840  40.203 -12.345  0.00  0.00    +0.000 HD
ATOM     18  H   UNL     1     -16.421  39.805 -13.925  0.00  0.00    +0.000 HD
ENDBRANCH  10  16
ENDBRANCH   2   9
BRANCH   1  19
ATOM     19  C   UNL     1     -17.445  46.591 -14.867  0.00  0.00    +0.000 C 
BRANCH  19  20
ATOM     20  C   UNL     1     -18.838  46.742 -15.481  0.00  0.00    +0.000 C 
BRANCH  20  21
ATOM     21  C   UNL     1     -18.893  46.377 -16.968  0.00  0.00    +0.000 C 
BRANCH  21  22
ATOM     22  C   UNL     1     -19.761  45.139 -17.197  0.00  0.00    +0.000 C 
BRANCH  22  23
ATOM     23  N   UNL     1     -19.224  44.000 -16.461  0.00  0.00    +0.000 NA
ATOM     24  H   UNL     1     -19.929  43.266 -16.404  0.00  0.00    +0.000 HD
ATOM     25  H   UNL     1     -19.025  44.280 -15.502  0.00  0.00    +0.000 HD
ENDBRANCH  22  23
ENDBRANCH  21  22
ENDBRANCH  20  21
ENDBRANCH  19  20
ENDBRANCH   1  19
TORSDOF 7
ENDMDL
MODEL 4
REMARK VINA RESULT:    -5.921      1.987      2.714
REMARK INTER + INTRA:          -8.444
REMARK INTER:                  -7.983
REMARK INTRA:                  -0.460
REMARK UNBOUND:                -0.273
REMARK  Name = 43252523
REMARK  7 active torsions:
REMARK  status: ('A' for Active; 'I' for Inactive)
REMARK    1  A    between atoms: N_2  and  C_12
REMARK    2  A    between atoms: N_3  and  C_14
REMARK    3  A    between atoms: N_5  and  C_16
REMARK    4  A    between atoms: C_12  and  C_13
REMARK    5  A    between atoms: C_13  and  C_15
REMARK    6  A    between atoms: C_15  and  C_16
REMARK    7  A    between atoms: C_17  and  C_19
REMARK                            x       y       z     vdW  Elec       q    Type
REMARK                         _______ _______ _______ _____ _____    ______ ____
ROOT
ATOM      1  N   UNL     1     -17.893  41.146  -9.735  0.00  0.00    +0.000 NA
ATOM      2  N   UNL     1     -17.360  42.989 -12.373  0.00  0.00    +0.000 N 
ATOM      3  C   UNL     1     -17.519  40.159 -10.754  0.00  0.00    +0.000 C 
ATOM      4  C   UNL     1     -18.581  42.316 -10.294  0.00  0.00    +0.000 C 
ATOM      5  C   UNL     1     -16.565  40.683 -11.829  0.00  0.00    +0.000 C 
ATOM      6  C   UNL     1     -17.611  43.294 -10.964  0.00  0.00    +0.000 C 
ATOM      7  C   UNL     1     -17.230  41.610 -12.845  0.00  0.00    +0.000 C 
ENDROOT
BRANCH   2   9
ATOM      8  N   UNL     1     -18.291  44.328 -14.072  0.00  0.00    +0.000 NA
ATOM      9  C   UNL     1     -17.227  44.036 -13.290  0.00  0.00    +0.000 A 
ATOM     10  C   UNL     1     -16.017  44.710 -13.345  0.00  0.00    +0.000 A 
ATOM     11  C   UNL     1     -15.892  45.750 -14.259  0.00  0.00    +0.000 A 
ATOM     12  C   UNL     1     -18.132  45.344 -14.948  0.00  0.00    +0.000 A 
ATOM     13  C   UNL     1     -16.965  46.079 -15.080  0.00  0.00    +0.000 A 
BRANCH  10  16
ATOM     14  O   UNL     1     -14.626  45.038 -11.473  0.00  0.00    +0.000 OA
ATOM     15  N   UNL     1     -14.121  43.267 -12.839  0.00  0.00    +0.000 N 
ATOM     16  C   UNL     1     -14.888  44.373 -12.489  0.00  0.00    +0.000 C 
ATOM     17  H   UNL     1     -14.324  42.707 -13.661  0.00  0.00    +0.000 HD
ATOM     18  H   UNL     1     -13.328  42.982 -12.273  0.00  0.00    +0.000 HD
ENDBRANCH  10  16
ENDBRANCH   2   9
BRANCH   1  19
ATOM     19  C   UNL     1     -18.734  40.503  -8.719  0.00  0.00    +0.000 C 
BRANCH  19  20
ATOM     20  C   UNL     1     -20.214  40.497  -9.107  0.00  0.00    +0.000 C 
BRANCH  20  21
ATOM     21  C   UNL     1     -21.147  40.906  -7.963  0.00  0.00    +0.000 C 
BRANCH  21  22
ATOM     22  C   UNL     1     -20.464  41.904  -7.028  0.00  0.00    +0.000 C 
BRANCH  22  23
ATOM     23  N   UNL     1     -21.392  42.964  -6.650  0.00  0.00    +0.000 NA
ATOM     24  H   UNL     1     -22.290  42.812  -7.107  0.00  0.00    +0.000 HD
ATOM     25  H   UNL     1     -21.044  43.857  -6.995  0.00  0.00    +0.000 HD
ENDBRANCH  22  23
ENDBRANCH  21  22
ENDBRANCH  20  21
ENDBRANCH  19  20
ENDBRANCH   1  19
TORSDOF 7
ENDMDL
MODEL 5
REMARK VINA RESULT:    -5.576      5.166      8.502
REMARK INTER + INTRA:          -7.968
REMARK INTER:                  -7.573
REMARK INTRA:                  -0.395
REMARK UNBOUND:                -0.273
REMARK  Name = 43252523
REMARK  7 active torsions:
REMARK  status: ('A' for Active; 'I' for Inactive)
REMARK    1  A    between atoms: N_2  and  C_12
REMARK    2  A    between atoms: N_3  and  C_14
REMARK    3  A    between atoms: N_5  and  C_16
REMARK    4  A    between atoms: C_12  and  C_13
REMARK    5  A    between atoms: C_13  and  C_15
REMARK    6  A    between atoms: C_15  and  C_16
REMARK    7  A    between atoms: C_17  and  C_19
REMARK                            x       y       z     vdW  Elec       q    Type
REMARK                         _______ _______ _______ _____ _____    ______ ____
ROOT
ATOM      1  N   UNL     1     -16.308  45.931 -17.935  0.00  0.00    +0.000 NA
ATOM      2  N   UNL     1     -19.486  45.758 -17.221  0.00  0.00    +0.000 N 
ATOM      3  C   UNL     1     -16.386  46.590 -16.627  0.00  0.00    +0.000 C 
ATOM      4  C   UNL     1     -17.525  46.102 -18.738  0.00  0.00    +0.000 C 
ATOM      5  C   UNL     1     -17.511  46.082 -15.724  0.00  0.00    +0.000 C 
ATOM      6  C   UNL     1     -18.658  45.179 -18.279  0.00  0.00    +0.000 C 
ATOM      7  C   UNL     1     -18.901  46.558 -16.144  0.00  0.00    +0.000 C 
ENDROOT
BRANCH   2   9
ATOM      8  N   UNL     1     -21.661  46.512 -17.714  0.00  0.00    +0.000 NA
ATOM      9  C   UNL     1     -20.866  45.533 -17.228  0.00  0.00    +0.000 A 
ATOM     10  C   UNL     1     -21.336  44.325 -16.736  0.00  0.00    +0.000 A 
ATOM     11  C   UNL     1     -22.710  44.109 -16.746  0.00  0.00    +0.000 A 
ATOM     12  C   UNL     1     -22.990  46.267 -17.707  0.00  0.00    +0.000 A 
ATOM     13  C   UNL     1     -23.559  45.093 -17.239  0.00  0.00    +0.000 A 
BRANCH  10  16
ATOM     14  O   UNL     1     -20.054  42.360 -16.942  0.00  0.00    +0.000 OA
ATOM     15  N   UNL     1     -20.060  43.381 -14.889  0.00  0.00    +0.000 N 
ATOM     16  C   UNL     1     -20.455  43.288 -16.219  0.00  0.00    +0.000 C 
ATOM     17  H   UNL     1     -20.371  44.136 -14.285  0.00  0.00    +0.000 HD
ATOM     18  H   UNL     1     -19.439  42.691 -14.479  0.00  0.00    +0.000 HD
ENDBRANCH  10  16
ENDBRANCH   2   9
BRANCH   1  19
ATOM     19  C   UNL     1     -15.144  46.439 -18.669  0.00  0.00    +0.000 C 
BRANCH  19  20
ATOM     20  C   UNL     1     -14.910  45.691 -19.982  0.00  0.00    +0.000 C 
BRANCH  20  21
ATOM     21  C   UNL     1     -13.434  45.381 -20.254  0.00  0.00    +0.000 C 
BRANCH  21  22
ATOM     22  C   UNL     1     -12.523  46.365 -19.521  0.00  0.00    +0.000 C 
BRANCH  22  23
ATOM     23  N   UNL     1     -11.129  46.134 -19.884  0.00  0.00    +0.000 NA
ATOM     24  H   UNL     1     -10.519  46.512 -19.161  0.00  0.00    +0.000 HD
ATOM     25  H   UNL     1     -10.912  46.646 -20.737  0.00  0.00    +0.000 HD
ENDBRANCH  22  23
ENDBRANCH  21  22
ENDBRANCH  20  21
ENDBRANCH  19  20
ENDBRANCH   1  19
TORSDOF 7
ENDMDL
