MODEL 1
REMARK VINA RESULT:    -6.141      0.000      0.000
REMARK INTER + INTRA:          -8.765
REMARK INTER:                  -8.474
REMARK INTRA:                  -0.291
REMARK UNBOUND:                -0.291
REMARK  Name = 43252516
REMARK  7 active torsions:
REMARK  status: ('A' for Active; 'I' for Inactive)
REMARK    1  A    between atoms: N_2  and  C_11
REMARK    2  A    between atoms: N_3  and  C_13
REMARK    3  A    between atoms: N_5  and  C_16
REMARK    4  A    between atoms: C_11  and  C_12
REMARK    5  A    between atoms: C_12  and  C_14
REMARK    6  A    between atoms: C_14  and  C_16
REMARK    7  A    between atoms: C_15  and  C_18
REMARK                            x       y       z     vdW  Elec       q    Type
REMARK                         _______ _______ _______ _____ _____    ______ ____
ROOT
ATOM      1  N   UNL     1     -18.048  40.789 -11.249  0.00  0.00    +0.000 NA
ATOM      2  N   UNL     1     -18.744  42.495 -13.432  0.00  0.00    +0.000 N 
ATOM      3  C   UNL     1     -17.081  41.765 -11.768  0.00  0.00    +0.000 C 
ATOM      4  C   UNL     1     -19.410  41.324 -11.368  0.00  0.00    +0.000 C 
ATOM      5  C   UNL     1     -17.351  42.078 -13.242  0.00  0.00    +0.000 C 
ATOM      6  C   UNL     1     -19.757  41.620 -12.829  0.00  0.00    +0.000 C 
ENDROOT
BRANCH   2   8
ATOM      7  N   UNL     1     -19.668  42.552 -15.598  0.00  0.00    +0.000 NA
ATOM      8  C   UNL     1     -19.100  43.225 -14.572  0.00  0.00    +0.000 A 
ATOM      9  C   UNL     1     -18.848  44.587 -14.582  0.00  0.00    +0.000 A 
ATOM     10  C   UNL     1     -19.202  45.306 -15.718  0.00  0.00    +0.000 A 
ATOM     11  C   UNL     1     -19.999  43.284 -16.686  0.00  0.00    +0.000 A 
ATOM     12  C   UNL     1     -19.789  44.649 -16.795  0.00  0.00    +0.000 A 
BRANCH   9  15
ATOM     13  O   UNL     1     -18.906  45.681 -12.497  0.00  0.00    +0.000 OA
ATOM     14  N   UNL     1     -16.854  45.475 -13.499  0.00  0.00    +0.000 N 
ATOM     15  C   UNL     1     -18.232  45.284 -13.462  0.00  0.00    +0.000 C 
ATOM     16  H   UNL     1     -16.286  45.149 -14.274  0.00  0.00    +0.000 HD
ATOM     17  H   UNL     1     -16.373  45.947 -12.742  0.00  0.00    +0.000 HD
ENDBRANCH   9  15
ENDBRANCH   2   8
BRANCH   1  18
ATOM     18  C   UNL     1     -17.746  40.459  -9.856  0.00  0.00    +0.000 C 
BRANCH  18  19
ATOM     19  C   UNL     1     -18.521  41.337  -8.871  0.00  0.00    +0.000 C 
BRANCH  19  20
ATOM     20  C   UNL     1     -19.466  40.546  -7.960  0.00  0.00    +0.000 C 
BRANCH  20  21
ATOM     21  C   UNL     1     -20.229  41.479  -7.018  0.00  0.00    +0.000 C 
BRANCH  21  22
ATOM     22  N   UNL     1     -19.497  42.728  -6.840  0.00  0.00    +0.000 NA
ATOM     23  H   UNL     1     -18.651  42.556  -6.298  0.00  0.00    +0.000 HD
ATOM     24  H   UNL     1     -20.062  43.375  -6.293  0.00  0.00    +0.000 HD
ENDBRANCH  21  22
ENDBRANCH  20  21
ENDBRANCH  19  20
ENDBRANCH  18  19
ENDBRANCH   1  18
TORSDOF 7
ENDMDL
MODEL 2
REMARK VINA RESULT:    -5.989      2.434      3.789
REMARK INTER + INTRA:          -8.556
REMARK INTER:                  -8.390
REMARK INTRA:                  -0.167
REMARK UNBOUND:                -0.291
REMARK  Name = 43252516
REMARK  7 active torsions:
REMARK  status: ('A' for Active; 'I' for Inactive)
REMARK    1  A    between atoms: N_2  and  C_11
REMARK    2  A    between atoms: N_3  and  C_13
REMARK    3  A    between atoms: N_5  and  C_16
REMARK    4  A    between atoms: C_11  and  C_12
REMARK    5  A    between atoms: C_12  and  C_14
REMARK    6  A    between atoms: C_14  and  C_16
REMARK    7  A    between atoms: C_15  and  C_18
REMARK                            x       y       z     vdW  Elec       q    Type
REMARK                         _______ _______ _______ _____ _____    ______ ____
ROOT
ATOM      1  N   UNL     1     -19.173  40.329  -9.039  0.00  0.00    +0.000 NA
ATOM      2  N   UNL     1     -17.646  41.987 -10.793  0.00  0.00    +0.000 N 
ATOM      3  C   UNL     1     -19.180  41.788  -8.877  0.00  0.00    +0.000 C 
ATOM      4  C   UNL     1     -19.045  39.985 -10.461  0.00  0.00    +0.000 C 
ATOM      5  C   UNL     1     -17.886  42.407  -9.409  0.00  0.00    +0.000 C 
ATOM      6  C   UNL     1     -17.745  40.544 -11.045  0.00  0.00    +0.000 C 
ENDROOT
BRANCH   2   8
ATOM      7  N   UNL     1     -15.534  42.957 -11.171  0.00  0.00    +0.000 NA
ATOM      8  C   UNL     1     -16.794  42.739 -11.609  0.00  0.00    +0.000 A 
ATOM      9  C   UNL     1     -17.291  43.217 -12.811  0.00  0.00    +0.000 A 
ATOM     10  C   UNL     1     -16.439  43.966 -13.615  0.00  0.00    +0.000 A 
ATOM     11  C   UNL     1     -14.735  43.690 -11.979  0.00  0.00    +0.000 A 
ATOM     12  C   UNL     1     -15.135  44.212 -13.199  0.00  0.00    +0.000 A 
BRANCH   9  15
ATOM     13  O   UNL     1     -18.973  41.897 -13.797  0.00  0.00    +0.000 OA
ATOM     14  N   UNL     1     -19.598  43.968 -13.035  0.00  0.00    +0.000 N 
ATOM     15  C   UNL     1     -18.655  42.969 -13.255  0.00  0.00    +0.000 C 
ATOM     16  H   UNL     1     -19.358  44.845 -12.585  0.00  0.00    +0.000 HD
ATOM     17  H   UNL     1     -20.564  43.844 -13.317  0.00  0.00    +0.000 HD
ENDBRANCH   9  15
ENDBRANCH   2   8
BRANCH   1  18
ATOM     18  C   UNL     1     -20.391  39.744  -8.478  0.00  0.00    +0.000 C 
BRANCH  18  19
ATOM     19  C   UNL     1     -21.514  40.773  -8.329  0.00  0.00    +0.000 C 
BRANCH  19  20
ATOM     20  C   UNL     1     -21.762  41.201  -6.879  0.00  0.00    +0.000 C 
BRANCH  20  21
ATOM     21  C   UNL     1     -22.663  42.435  -6.817  0.00  0.00    +0.000 C 
BRANCH  21  22
ATOM     22  N   UNL     1     -22.637  43.015  -5.479  0.00  0.00    +0.000 NA
ATOM     23  H   UNL     1     -22.677  44.031  -5.544  0.00  0.00    +0.000 HD
ATOM     24  H   UNL     1     -21.750  42.791  -5.031  0.00  0.00    +0.000 HD
ENDBRANCH  21  22
ENDBRANCH  20  21
ENDBRANCH  19  20
ENDBRANCH  18  19
ENDBRANCH   1  18
TORSDOF 7
ENDMDL
MODEL 3
REMARK VINA RESULT:    -5.613      2.052      2.589
REMARK INTER + INTRA:          -8.038
REMARK INTER:                  -7.879
REMARK INTRA:                  -0.158
REMARK UNBOUND:                -0.291
REMARK  Name = 43252516
REMARK  7 active torsions:
REMARK  status: ('A' for Active; 'I' for Inactive)
REMARK    1  A    between atoms: N_2  and  C_11
REMARK    2  A    between atoms: N_3  and  C_13
REMARK    3  A    between atoms: N_5  and  C_16
REMARK    4  A    between atoms: C_11  and  C_12
REMARK    5  A    between atoms: C_12  and  C_14
REMARK    6  A    between atoms: C_14  and  C_16
REMARK    7  A    between atoms: C_15  and  C_18
REMARK                            x       y       z     vdW  Elec       q    Type
REMARK                         _______ _______ _______ _____ _____    ______ ____
ROOT
ATOM      1  N   UNL     1     -18.550  41.434 -11.263  0.00  0.00    +0.000 NA
ATOM      2  N   UNL     1     -17.650  43.554 -12.951  0.00  0.00    +0.000 N 
ATOM      3  C   UNL     1     -18.171  41.166 -12.656  0.00  0.00    +0.000 C 
ATOM      4  C   UNL     1     -17.717  42.513 -10.718  0.00  0.00    +0.000 C 
ATOM      5  C   UNL     1     -18.361  42.410 -13.527  0.00  0.00    +0.000 C 
ATOM      6  C   UNL     1     -17.894  43.802 -11.525  0.00  0.00    +0.000 C 
ENDROOT
BRANCH   2   8
ATOM      7  N   UNL     1     -18.265  45.098 -14.619  0.00  0.00    +0.000 NA
ATOM      8  C   UNL     1     -17.323  44.648 -13.761  0.00  0.00    +0.000 A 
ATOM      9  C   UNL     1     -16.058  45.199 -13.639  0.00  0.00    +0.000 A 
ATOM     10  C   UNL     1     -15.740  46.283 -14.449  0.00  0.00    +0.000 A 
ATOM     11  C   UNL     1     -17.920  46.154 -15.391  0.00  0.00    +0.000 A 
ATOM     12  C   UNL     1     -16.683  46.776 -15.345  0.00  0.00    +0.000 A 
BRANCH   9  15
ATOM     13  O   UNL     1     -14.751  45.322 -11.684  0.00  0.00    +0.000 OA
ATOM     14  N   UNL     1     -14.482  43.457 -12.992  0.00  0.00    +0.000 N 
ATOM     15  C   UNL     1     -15.062  44.690 -12.707  0.00  0.00    +0.000 C 
ATOM     16  H   UNL     1     -14.731  42.923 -13.817  0.00  0.00    +0.000 HD
ATOM     17  H   UNL     1     -13.788  43.052 -12.373  0.00  0.00    +0.000 HD
ENDBRANCH   9  15
ENDBRANCH   2   8
BRANCH   1  18
ATOM     18  C   UNL     1     -18.414  40.223 -10.453  0.00  0.00    +0.000 C 
BRANCH  18  19
ATOM     19  C   UNL     1     -19.559  40.064  -9.450  0.00  0.00    +0.000 C 
BRANCH  19  20
ATOM     20  C   UNL     1     -19.207  40.549  -8.039  0.00  0.00    +0.000 C 
BRANCH  20  21
ATOM     21  C   UNL     1     -20.237  41.561  -7.535  0.00  0.00    +0.000 C 
BRANCH  21  22
ATOM     22  N   UNL     1     -19.589  42.571  -6.706  0.00  0.00    +0.000 NA
ATOM     23  H   UNL     1     -20.134  42.721  -5.858  0.00  0.00    +0.000 HD
ATOM     24  H   UNL     1     -19.581  43.461  -7.202  0.00  0.00    +0.000 HD
ENDBRANCH  21  22
ENDBRANCH  20  21
ENDBRANCH  19  20
ENDBRANCH  18  19
ENDBRANCH   1  18
TORSDOF 7
ENDMDL
MODEL 4
REMARK VINA RESULT:    -5.081      5.675      8.422
REMARK INTER + INTRA:          -7.303
REMARK INTER:                  -6.887
REMARK INTRA:                  -0.417
REMARK UNBOUND:                -0.291
REMARK  Name = 43252516
REMARK  7 active torsions:
REMARK  status: ('A' for Active; 'I' for Inactive)
REMARK    1  A    between atoms: N_2  and  C_11
REMARK    2  A    between atoms: N_3  and  C_13
REMARK    3  A    between atoms: N_5  and  C_16
REMARK    4  A    between atoms: C_11  and  C_12
REMARK    5  A    between atoms: C_12  and  C_14
REMARK    6  A    between atoms: C_14  and  C_16
REMARK    7  A    between atoms: C_15  and  C_18
REMARK                            x       y       z     vdW  Elec       q    Type
REMARK                         _______ _______ _______ _____ _____    ______ ____
ROOT
ATOM      1  N   UNL     1     -17.198  45.856 -19.594  0.00  0.00    +0.000 NA
ATOM      2  N   UNL     1     -19.745  45.385 -18.391  0.00  0.00    +0.000 N 
ATOM      3  C   UNL     1     -17.408  46.129 -18.166  0.00  0.00    +0.000 C 
ATOM      4  C   UNL     1     -18.013  44.707 -20.008  0.00  0.00    +0.000 C 
ATOM      5  C   UNL     1     -18.876  46.449 -17.878  0.00  0.00    +0.000 C 
ATOM      6  C   UNL     1     -19.502  44.981 -19.781  0.00  0.00    +0.000 C 
ENDROOT
BRANCH   2   8
ATOM      7  N   UNL     1     -21.947  46.195 -18.190  0.00  0.00    +0.000 NA
ATOM      8  C   UNL     1     -21.040  45.241 -17.882  0.00  0.00    +0.000 A 
ATOM      9  C   UNL     1     -21.316  44.135 -17.094  0.00  0.00    +0.000 A 
ATOM     10  C   UNL     1     -22.604  44.000 -16.589  0.00  0.00    +0.000 A 
ATOM     11  C   UNL     1     -23.189  46.031 -17.682  0.00  0.00    +0.000 A 
ATOM     12  C   UNL     1     -23.565  44.962 -16.884  0.00  0.00    +0.000 A 
BRANCH   9  15
ATOM     13  O   UNL     1     -20.344  42.000 -17.306  0.00  0.00    +0.000 OA
ATOM     14  N   UNL     1     -19.317  43.466 -15.872  0.00  0.00    +0.000 N 
ATOM     15  C   UNL     1     -20.317  43.124 -16.777  0.00  0.00    +0.000 C 
ATOM     16  H   UNL     1     -19.274  44.382 -15.438  0.00  0.00    +0.000 HD
ATOM     17  H   UNL     1     -18.592  42.803 -15.621  0.00  0.00    +0.000 HD
ENDBRANCH   9  15
ENDBRANCH   2   8
BRANCH   1  18
ATOM     18  C   UNL     1     -15.782  45.604 -19.865  0.00  0.00    +0.000 C 
BRANCH  18  19
ATOM     19  C   UNL     1     -14.883  46.730 -19.351  0.00  0.00    +0.000 C 
BRANCH  19  20
ATOM     20  C   UNL     1     -13.415  46.318 -19.196  0.00  0.00    +0.000 C 
BRANCH  20  21
ATOM     21  C   UNL     1     -12.659  47.304 -18.305  0.00  0.00    +0.000 C 
BRANCH  21  22
ATOM     22  N   UNL     1     -13.116  47.192 -16.925  0.00  0.00    +0.000 NA
ATOM     23  H   UNL     1     -14.130  47.096 -16.906  0.00  0.00    +0.000 HD
ATOM     24  H   UNL     1     -12.900  48.054 -16.426  0.00  0.00    +0.000 HD
ENDBRANCH  21  22
ENDBRANCH  20  21
ENDBRANCH  19  20
ENDBRANCH  18  19
ENDBRANCH   1  18
TORSDOF 7
ENDMDL
MODEL 5
REMARK VINA RESULT:    -5.052      2.338      3.777
REMARK INTER + INTRA:          -7.263
REMARK INTER:                  -6.362
REMARK INTRA:                  -0.901
REMARK UNBOUND:                -0.291
REMARK  Name = 43252516
REMARK  7 active torsions:
REMARK  status: ('A' for Active; 'I' for Inactive)
REMARK    1  A    between atoms: N_2  and  C_11
REMARK    2  A    between atoms: N_3  and  C_13
REMARK    3  A    between atoms: N_5  and  C_16
REMARK    4  A    between atoms: C_11  and  C_12
REMARK    5  A    between atoms: C_12  and  C_14
REMARK    6  A    between atoms: C_14  and  C_16
REMARK    7  A    between atoms: C_15  and  C_18
REMARK                            x       y       z     vdW  Elec       q    Type
REMARK                         _______ _______ _______ _____ _____    ______ ____
ROOT
ATOM      1  N   UNL     1     -17.735  42.085 -12.406  0.00  0.00    +0.000 NA
ATOM      2  N   UNL     1     -17.756  44.905 -12.861  0.00  0.00    +0.000 N 
ATOM      3  C   UNL     1     -18.619  42.668 -13.424  0.00  0.00    +0.000 C 
ATOM      4  C   UNL     1     -16.490  42.860 -12.323  0.00  0.00    +0.000 C 
ATOM      5  C   UNL     1     -18.972  44.117 -13.082  0.00  0.00    +0.000 C 
ATOM      6  C   UNL     1     -16.774  44.315 -11.943  0.00  0.00    +0.000 C 
ENDROOT
BRANCH   2   8
ATOM      7  N   UNL     1     -18.279  46.992 -11.904  0.00  0.00    +0.000 NA
ATOM      8  C   UNL     1     -17.805  46.300 -12.964  0.00  0.00    +0.000 A 
ATOM      9  C   UNL     1     -17.369  46.886 -14.141  0.00  0.00    +0.000 A 
ATOM     10  C   UNL     1     -17.423  48.272 -14.237  0.00  0.00    +0.000 A 
ATOM     11  C   UNL     1     -18.317  48.338 -12.033  0.00  0.00    +0.000 A 
ATOM     12  C   UNL     1     -17.905  49.019 -13.167  0.00  0.00    +0.000 A 
BRANCH   9  15
ATOM     13  O   UNL     1     -15.656  45.854 -15.386  0.00  0.00    +0.000 OA
ATOM     14  N   UNL     1     -17.790  45.657 -16.202  0.00  0.00    +0.000 N 
ATOM     15  C   UNL     1     -16.865  46.113 -15.268  0.00  0.00    +0.000 C 
ATOM     16  H   UNL     1     -18.782  45.851 -16.117  0.00  0.00    +0.000 HD
ATOM     17  H   UNL     1     -17.495  45.108 -17.002  0.00  0.00    +0.000 HD
ENDBRANCH   9  15
ENDBRANCH   2   8
BRANCH   1  18
ATOM     18  C   UNL     1     -17.448  40.685 -12.716  0.00  0.00    +0.000 C 
BRANCH  18  19
ATOM     19  C   UNL     1     -17.656  39.768 -11.510  0.00  0.00    +0.000 C 
BRANCH  19  20
ATOM     20  C   UNL     1     -18.801  40.213 -10.594  0.00  0.00    +0.000 C 
BRANCH  20  21
ATOM     21  C   UNL     1     -18.282  40.565  -9.198  0.00  0.00    +0.000 C 
BRANCH  21  22
ATOM     22  N   UNL     1     -17.845  41.955  -9.156  0.00  0.00    +0.000 NA
ATOM     23  H   UNL     1     -17.577  42.259 -10.091  0.00  0.00    +0.000 HD
ATOM     24  H   UNL     1     -17.007  42.029  -8.580  0.00  0.00    +0.000 HD
ENDBRANCH  21  22
ENDBRANCH  20  21
ENDBRANCH  19  20
ENDBRANCH  18  19
ENDBRANCH   1  18
TORSDOF 7
ENDMDL
