MODEL 1
REMARK VINA RESULT:    -5.599      0.000      0.000
REMARK INTER + INTRA:          -7.599
REMARK INTER:                  -7.399
REMARK INTRA:                  -0.200
REMARK UNBOUND:                -0.200
REMARK  Name = 43251302
REMARK  6 active torsions:
REMARK  status: ('A' for Active; 'I' for Inactive)
REMARK    1  A    between atoms: N_2  and  C_11
REMARK    2  A    between atoms: N_3  and  C_13
REMARK    3  A    between atoms: N_5  and  C_14
REMARK    4  A    between atoms: C_11  and  C_12
REMARK    5  A    between atoms: C_12  and  C_14
REMARK    6  A    between atoms: C_15  and  C_17
REMARK                            x       y       z     vdW  Elec       q    Type
REMARK                         _______ _______ _______ _____ _____    ______ ____
ROOT
ATOM      1  N   UNL     1     -18.102  40.803 -11.264  0.00  0.00    +0.000 NA
ATOM      2  N   UNL     1     -18.764  42.496 -13.468  0.00  0.00    +0.000 N 
ATOM      3  C   UNL     1     -17.172  41.850 -11.702  0.00  0.00    +0.000 C 
ATOM      4  C   UNL     1     -19.487  41.248 -11.469  0.00  0.00    +0.000 C 
ATOM      5  C   UNL     1     -17.362  42.169 -13.188  0.00  0.00    +0.000 C 
ATOM      6  C   UNL     1     -19.754  41.546 -12.947  0.00  0.00    +0.000 C 
ENDROOT
BRANCH   2   8
ATOM      7  N   UNL     1     -19.632  42.543 -15.656  0.00  0.00    +0.000 NA
ATOM      8  C   UNL     1     -19.090  43.221 -14.619  0.00  0.00    +0.000 A 
ATOM      9  C   UNL     1     -18.838  44.583 -14.629  0.00  0.00    +0.000 A 
ATOM     10  C   UNL     1     -19.162  45.297 -15.779  0.00  0.00    +0.000 A 
ATOM     11  C   UNL     1     -19.934  43.270 -16.756  0.00  0.00    +0.000 A 
ATOM     12  C   UNL     1     -19.722  44.635 -16.866  0.00  0.00    +0.000 A 
BRANCH   9  15
ATOM     13  O   UNL     1     -18.942  45.649 -12.531  0.00  0.00    +0.000 OA
ATOM     14  N   UNL     1     -16.879  45.519 -13.524  0.00  0.00    +0.000 N 
ATOM     15  C   UNL     1     -18.250  45.284 -13.497  0.00  0.00    +0.000 C 
ATOM     16  H   UNL     1     -16.296  45.221 -14.300  0.00  0.00    +0.000 HD
ATOM     17  H   UNL     1     -16.415  45.997 -12.758  0.00  0.00    +0.000 HD
ENDBRANCH   9  15
ENDBRANCH   2   8
BRANCH   1  18
ATOM     18  C   UNL     1     -17.874  40.470  -9.859  0.00  0.00    +0.000 C 
BRANCH  18  19
ATOM     19  C   UNL     1     -18.484  41.544  -8.956  0.00  0.00    +0.000 C 
BRANCH  19  20
ATOM     20  C   UNL     1     -19.361  40.964  -7.844  0.00  0.00    +0.000 C 
BRANCH  20  21
ATOM     21  N   UNL     1     -20.738  40.769  -8.280  0.00  0.00    +0.000 NA
ATOM     22  H   UNL     1     -20.972  39.778  -8.241  0.00  0.00    +0.000 HD
ATOM     23  H   UNL     1     -20.826  41.045  -9.257  0.00  0.00    +0.000 HD
ENDBRANCH  20  21
ENDBRANCH  19  20
ENDBRANCH  18  19
ENDBRANCH   1  18
TORSDOF 6
ENDMDL
MODEL 2
REMARK VINA RESULT:    -5.520      1.831      3.019
REMARK INTER + INTRA:          -7.494
REMARK INTER:                  -7.252
REMARK INTRA:                  -0.242
REMARK UNBOUND:                -0.200
REMARK  Name = 43251302
REMARK  6 active torsions:
REMARK  status: ('A' for Active; 'I' for Inactive)
REMARK    1  A    between atoms: N_2  and  C_11
REMARK    2  A    between atoms: N_3  and  C_13
REMARK    3  A    between atoms: N_5  and  C_14
REMARK    4  A    between atoms: C_11  and  C_12
REMARK    5  A    between atoms: C_12  and  C_14
REMARK    6  A    between atoms: C_15  and  C_17
REMARK                            x       y       z     vdW  Elec       q    Type
REMARK                         _______ _______ _______ _____ _____    ______ ____
ROOT
ATOM      1  N   UNL     1     -18.212  41.618 -11.958  0.00  0.00    +0.000 NA
ATOM      2  N   UNL     1     -18.554  43.623 -13.964  0.00  0.00    +0.000 N 
ATOM      3  C   UNL     1     -19.506  41.781 -12.632  0.00  0.00    +0.000 C 
ATOM      4  C   UNL     1     -17.121  41.930 -12.890  0.00  0.00    +0.000 C 
ATOM      5  C   UNL     1     -19.689  43.218 -13.128  0.00  0.00    +0.000 C 
ATOM      6  C   UNL     1     -17.225  43.371 -13.394  0.00  0.00    +0.000 C 
ENDROOT
BRANCH   2   8
ATOM      7  N   UNL     1     -17.985  45.814 -14.611  0.00  0.00    +0.000 NA
ATOM      8  C   UNL     1     -18.697  44.691 -14.856  0.00  0.00    +0.000 A 
ATOM      9  C   UNL     1     -19.554  44.535 -15.933  0.00  0.00    +0.000 A 
ATOM     10  C   UNL     1     -19.693  45.602 -16.815  0.00  0.00    +0.000 A 
ATOM     11  C   UNL     1     -18.145  46.829 -15.490  0.00  0.00    +0.000 A 
ATOM     12  C   UNL     1     -18.977  46.774 -16.596  0.00  0.00    +0.000 A 
BRANCH   9  15
ATOM     13  O   UNL     1     -19.762  42.290 -16.616  0.00  0.00    +0.000 OA
ATOM     14  N   UNL     1     -21.666  43.322 -15.860  0.00  0.00    +0.000 N 
ATOM     15  C   UNL     1     -20.310  43.313 -16.169  0.00  0.00    +0.000 C 
ATOM     16  H   UNL     1     -22.128  44.144 -15.485  0.00  0.00    +0.000 HD
ATOM     17  H   UNL     1     -22.239  42.495 -15.997  0.00  0.00    +0.000 HD
ENDBRANCH   9  15
ENDBRANCH   2   8
BRANCH   1  18
ATOM     18  C   UNL     1     -18.072  40.257 -11.442  0.00  0.00    +0.000 C 
BRANCH  18  19
ATOM     19  C   UNL     1     -18.981  40.056 -10.229  0.00  0.00    +0.000 C 
BRANCH  19  20
ATOM     20  C   UNL     1     -18.376  40.597  -8.931  0.00  0.00    +0.000 C 
BRANCH  20  21
ATOM     21  N   UNL     1     -17.870  41.954  -9.089  0.00  0.00    +0.000 NA
ATOM     22  H   UNL     1     -16.911  41.924  -9.432  0.00  0.00    +0.000 HD
ATOM     23  H   UNL     1     -17.834  42.409  -8.177  0.00  0.00    +0.000 HD
ENDBRANCH  20  21
ENDBRANCH  19  20
ENDBRANCH  18  19
ENDBRANCH   1  18
TORSDOF 6
ENDMDL
MODEL 3
REMARK VINA RESULT:    -5.513      2.132      6.475
REMARK INTER + INTRA:          -7.486
REMARK INTER:                  -7.251
REMARK INTRA:                  -0.234
REMARK UNBOUND:                -0.200
REMARK  Name = 43251302
REMARK  6 active torsions:
REMARK  status: ('A' for Active; 'I' for Inactive)
REMARK    1  A    between atoms: N_2  and  C_11
REMARK    2  A    between atoms: N_3  and  C_13
REMARK    3  A    between atoms: N_5  and  C_14
REMARK    4  A    between atoms: C_11  and  C_12
REMARK    5  A    between atoms: C_12  and  C_14
REMARK    6  A    between atoms: C_15  and  C_17
REMARK                            x       y       z     vdW  Elec       q    Type
REMARK                         _______ _______ _______ _____ _____    ______ ____
ROOT
ATOM      1  N   UNL     1     -18.756  44.665 -14.664  0.00  0.00    +0.000 NA
ATOM      2  N   UNL     1     -18.359  42.898 -12.455  0.00  0.00    +0.000 N 
ATOM      3  C   UNL     1     -17.461  44.617 -13.973  0.00  0.00    +0.000 C 
ATOM      4  C   UNL     1     -19.374  43.332 -14.658  0.00  0.00    +0.000 C 
ATOM      5  C   UNL     1     -17.630  44.169 -12.519  0.00  0.00    +0.000 C 
ATOM      6  C   UNL     1     -19.606  42.841 -13.227  0.00  0.00    +0.000 C 
ENDROOT
BRANCH   2   8
ATOM      7  N   UNL     1     -18.405  42.696 -10.109  0.00  0.00    +0.000 NA
ATOM      8  C   UNL     1     -18.257  42.098 -11.312  0.00  0.00    +0.000 A 
ATOM      9  C   UNL     1     -18.010  40.745 -11.480  0.00  0.00    +0.000 A 
ATOM     10  C   UNL     1     -17.906  39.955 -10.339  0.00  0.00    +0.000 A 
ATOM     11  C   UNL     1     -18.298  41.897  -9.023  0.00  0.00    +0.000 A 
ATOM     12  C   UNL     1     -18.053  40.535  -9.084  0.00  0.00    +0.000 A 
BRANCH   9  15
ATOM     13  O   UNL     1     -18.833  39.719 -13.434  0.00  0.00    +0.000 OA
ATOM     14  N   UNL     1     -16.564  40.028 -13.305  0.00  0.00    +0.000 N 
ATOM     15  C   UNL     1     -17.852  40.128 -12.789  0.00  0.00    +0.000 C 
ATOM     16  H   UNL     1     -15.752  40.365 -12.797  0.00  0.00    +0.000 HD
ATOM     17  H   UNL     1     -16.397  39.614 -14.217  0.00  0.00    +0.000 HD
ENDBRANCH   9  15
ENDBRANCH   2   8
BRANCH   1  18
ATOM     18  C   UNL     1     -18.588  45.145 -16.035  0.00  0.00    +0.000 C 
BRANCH  18  19
ATOM     19  C   UNL     1     -19.798  44.753 -16.884  0.00  0.00    +0.000 C 
BRANCH  19  20
ATOM     20  C   UNL     1     -19.421  44.344 -18.310  0.00  0.00    +0.000 C 
BRANCH  20  21
ATOM     21  N   UNL     1     -18.880  42.993 -18.365  0.00  0.00    +0.000 NA
ATOM     22  H   UNL     1     -17.861  43.031 -18.346  0.00  0.00    +0.000 HD
ATOM     23  H   UNL     1     -19.133  42.563 -19.255  0.00  0.00    +0.000 HD
ENDBRANCH  20  21
ENDBRANCH  19  20
ENDBRANCH  18  19
ENDBRANCH   1  18
TORSDOF 6
ENDMDL
MODEL 4
REMARK VINA RESULT:    -5.358      2.970      6.231
REMARK INTER + INTRA:          -7.280
REMARK INTER:                  -6.528
REMARK INTRA:                  -0.752
REMARK UNBOUND:                -0.200
REMARK  Name = 43251302
REMARK  6 active torsions:
REMARK  status: ('A' for Active; 'I' for Inactive)
REMARK    1  A    between atoms: N_2  and  C_11
REMARK    2  A    between atoms: N_3  and  C_13
REMARK    3  A    between atoms: N_5  and  C_14
REMARK    4  A    between atoms: C_11  and  C_12
REMARK    5  A    between atoms: C_12  and  C_14
REMARK    6  A    between atoms: C_15  and  C_17
REMARK                            x       y       z     vdW  Elec       q    Type
REMARK                         _______ _______ _______ _____ _____    ______ ____
ROOT
ATOM      1  N   UNL     1     -15.681  45.327 -12.210  0.00  0.00    +0.000 NA
ATOM      2  N   UNL     1     -17.159  43.123 -11.154  0.00  0.00    +0.000 N 
ATOM      3  C   UNL     1     -15.156  43.961 -12.317  0.00  0.00    +0.000 C 
ATOM      4  C   UNL     1     -17.147  45.306 -12.296  0.00  0.00    +0.000 C 
ATOM      5  C   UNL     1     -15.694  43.075 -11.190  0.00  0.00    +0.000 C 
ATOM      6  C   UNL     1     -17.751  44.465 -11.169  0.00  0.00    +0.000 C 
ENDROOT
BRANCH   2   8
ATOM      7  N   UNL     1     -18.091  42.210  -9.193  0.00  0.00    +0.000 NA
ATOM      8  C   UNL     1     -17.871  42.097 -10.522  0.00  0.00    +0.000 A 
ATOM      9  C   UNL     1     -18.304  41.030 -11.293  0.00  0.00    +0.000 A 
ATOM     10  C   UNL     1     -19.009  40.012 -10.658  0.00  0.00    +0.000 A 
ATOM     11  C   UNL     1     -18.779  41.202  -8.611  0.00  0.00    +0.000 A 
ATOM     12  C   UNL     1     -19.256  40.093  -9.292  0.00  0.00    +0.000 A 
BRANCH   9  15
ATOM     13  O   UNL     1     -18.821  41.444 -13.553  0.00  0.00    +0.000 OA
ATOM     14  N   UNL     1     -16.899  40.266 -13.131  0.00  0.00    +0.000 N 
ATOM     15  C   UNL     1     -18.049  40.934 -12.723  0.00  0.00    +0.000 C 
ATOM     16  H   UNL     1     -16.252  39.852 -12.467  0.00  0.00    +0.000 HD
ATOM     17  H   UNL     1     -16.668  40.177 -14.115  0.00  0.00    +0.000 HD
ENDBRANCH   9  15
ENDBRANCH   2   8
BRANCH   1  18
ATOM     18  C   UNL     1     -15.118  46.176 -13.259  0.00  0.00    +0.000 C 
BRANCH  18  19
ATOM     19  C   UNL     1     -14.016  47.066 -12.682  0.00  0.00    +0.000 C 
BRANCH  19  20
ATOM     20  C   UNL     1     -14.312  47.538 -11.256  0.00  0.00    +0.000 C 
BRANCH  20  21
ATOM     21  N   UNL     1     -15.529  48.335 -11.186  0.00  0.00    +0.000 NA
ATOM     22  H   UNL     1     -15.434  49.042 -10.459  0.00  0.00    +0.000 HD
ATOM     23  H   UNL     1     -16.308  47.739 -10.905  0.00  0.00    +0.000 HD
ENDBRANCH  20  21
ENDBRANCH  19  20
ENDBRANCH  18  19
ENDBRANCH   1  18
TORSDOF 6
ENDMDL
MODEL 5
REMARK VINA RESULT:    -5.118      5.220      7.794
REMARK INTER + INTRA:          -6.964
REMARK INTER:                  -6.501
REMARK INTRA:                  -0.463
REMARK UNBOUND:                -0.200
REMARK  Name = 43251302
REMARK  6 active torsions:
REMARK  status: ('A' for Active; 'I' for Inactive)
REMARK    1  A    between atoms: N_2  and  C_11
REMARK    2  A    between atoms: N_3  and  C_13
REMARK    3  A    between atoms: N_5  and  C_14
REMARK    4  A    between atoms: C_11  and  C_12
REMARK    5  A    between atoms: C_12  and  C_14
REMARK    6  A    between atoms: C_15  and  C_17
REMARK                            x       y       z     vdW  Elec       q    Type
REMARK                         _______ _______ _______ _____ _____    ______ ____
ROOT
ATOM      1  N   UNL     1     -17.044  45.925 -19.276  0.00  0.00    +0.000 NA
ATOM      2  N   UNL     1     -19.647  45.439 -18.205  0.00  0.00    +0.000 N 
ATOM      3  C   UNL     1     -17.334  46.216 -17.867  0.00  0.00    +0.000 C 
ATOM      4  C   UNL     1     -17.822  44.758 -19.714  0.00  0.00    +0.000 C 
ATOM      5  C   UNL     1     -18.821  46.522 -17.663  0.00  0.00    +0.000 C 
ATOM      6  C   UNL     1     -19.324  45.016 -19.572  0.00  0.00    +0.000 C 
ENDROOT
BRANCH   2   8
ATOM      7  N   UNL     1     -21.843  46.275 -18.049  0.00  0.00    +0.000 NA
ATOM      8  C   UNL     1     -20.966  45.286 -17.763  0.00  0.00    +0.000 A 
ATOM      9  C   UNL     1     -21.294  44.137 -17.062  0.00  0.00    +0.000 A 
ATOM     10  C   UNL     1     -22.607  43.993 -16.624  0.00  0.00    +0.000 A 
ATOM     11  C   UNL     1     -23.109  46.100 -17.607  0.00  0.00    +0.000 A 
ATOM     12  C   UNL     1     -23.538  44.989 -16.899  0.00  0.00    +0.000 A 
BRANCH   9  15
ATOM     13  O   UNL     1     -20.291  42.037 -17.427  0.00  0.00    +0.000 OA
ATOM     14  N   UNL     1     -19.426  43.315 -15.731  0.00  0.00    +0.000 N 
ATOM     15  C   UNL     1     -20.326  43.090 -16.768  0.00  0.00    +0.000 C 
ATOM     16  H   UNL     1     -19.433  44.173 -15.188  0.00  0.00    +0.000 HD
ATOM     17  H   UNL     1     -18.725  42.623 -15.488  0.00  0.00    +0.000 HD
ENDBRANCH   9  15
ENDBRANCH   2   8
BRANCH   1  18
ATOM     18  C   UNL     1     -15.614  45.687 -19.465  0.00  0.00    +0.000 C 
BRANCH  18  19
ATOM     19  C   UNL     1     -14.827  46.974 -19.209  0.00  0.00    +0.000 C 
BRANCH  19  20
ATOM     20  C   UNL     1     -13.528  46.736 -18.436  0.00  0.00    +0.000 C 
BRANCH  20  21
ATOM     21  N   UNL     1     -13.691  46.973 -17.008  0.00  0.00    +0.000 NA
ATOM     22  H   UNL     1     -12.792  47.224 -16.597  0.00  0.00    +0.000 HD
ATOM     23  H   UNL     1     -13.983  46.109 -16.552  0.00  0.00    +0.000 HD
ENDBRANCH  20  21
ENDBRANCH  19  20
ENDBRANCH  18  19
ENDBRANCH   1  18
TORSDOF 6
ENDMDL
