MODEL 1
REMARK VINA RESULT:    -6.826      0.000      0.000
REMARK INTER + INTRA:          -8.981
REMARK INTER:                  -8.423
REMARK INTRA:                  -0.559
REMARK UNBOUND:                -0.559
REMARK  Name = 43275312
REMARK  4 active torsions:
REMARK  status: ('A' for Active; 'I' for Inactive)
REMARK    1  A    between atoms: N_2  and  C_9
REMARK    2  A    between atoms: N_2  and  C_10
REMARK    3  A    between atoms: C_5  and  C_9
REMARK    4  A    between atoms: C_11  and  C_13
REMARK                            x       y       z     vdW  Elec       q    Type
REMARK                         _______ _______ _______ _____ _____    ______ ____
ROOT
ATOM      1  N   UNL     1     -18.989  39.524 -10.530  0.00  0.00    +0.000 NA
ATOM      2  C   UNL     1     -18.284  40.652 -10.283  0.00  0.00    +0.000 A 
ATOM      3  C   UNL     1     -17.714  41.441 -11.269  0.00  0.00    +0.000 A 
ATOM      4  C   UNL     1     -17.877  41.049 -12.593  0.00  0.00    +0.000 A 
ATOM      5  C   UNL     1     -19.127  39.175 -11.829  0.00  0.00    +0.000 A 
ATOM      6  C   UNL     1     -18.596  39.896 -12.887  0.00  0.00    +0.000 A 
ENDROOT
BRANCH   3   9
ATOM      7  O   UNL     1     -17.528  43.727 -10.733  0.00  0.00    +0.000 OA
ATOM      8  N   UNL     1     -15.570  42.552 -10.944  0.00  0.00    +0.000 N 
ATOM      9  C   UNL     1     -16.957  42.649 -10.971  0.00  0.00    +0.000 C 
ATOM     10  H   UNL     1     -15.087  41.678 -11.129  0.00  0.00    +0.000 HD
ATOM     11  H   UNL     1     -14.994  43.362 -10.735  0.00  0.00    +0.000 HD
ENDBRANCH   3   9
BRANCH   2  12
ATOM     12  N   UNL     1     -18.124  41.034  -8.961  0.00  0.00    +0.000 N 
ATOM     13  H   UNL     1     -17.535  41.841  -8.783  0.00  0.00    +0.000 HD
BRANCH  12  14
ATOM     14  C   UNL     1     -19.024  40.648  -7.900  0.00  0.00    +0.000 C 
BRANCH  14  15
ATOM     15  C   UNL     1     -20.181  41.620  -7.795  0.00  0.00    +0.000 C 
ATOM     16  C   UNL     1     -21.575  40.986  -7.984  0.00  0.00    +0.000 C 
ATOM     17  C   UNL     1     -20.613  41.957  -6.353  0.00  0.00    +0.000 C 
ATOM     18  C   UNL     1     -22.069  41.926  -6.864  0.00  0.00    +0.000 C 
ENDBRANCH  14  15
ENDBRANCH  12  14
ENDBRANCH   2  12
TORSDOF 4
ENDMDL
MODEL 2
REMARK VINA RESULT:    -6.589      1.927      4.942
REMARK INTER + INTRA:          -8.688
REMARK INTER:                  -7.790
REMARK INTRA:                  -0.898
REMARK UNBOUND:                -0.559
REMARK  Name = 43275312
REMARK  4 active torsions:
REMARK  status: ('A' for Active; 'I' for Inactive)
REMARK    1  A    between atoms: N_2  and  C_9
REMARK    2  A    between atoms: N_2  and  C_10
REMARK    3  A    between atoms: C_5  and  C_9
REMARK    4  A    between atoms: C_11  and  C_13
REMARK                            x       y       z     vdW  Elec       q    Type
REMARK                         _______ _______ _______ _____ _____    ______ ____
ROOT
ATOM      1  N   UNL     1     -18.494  42.188  -8.313  0.00  0.00    +0.000 NA
ATOM      2  C   UNL     1     -18.396  41.516  -9.483  0.00  0.00    +0.000 A 
ATOM      3  C   UNL     1     -19.324  40.584  -9.922  0.00  0.00    +0.000 A 
ATOM      4  C   UNL     1     -20.421  40.325  -9.108  0.00  0.00    +0.000 A 
ATOM      5  C   UNL     1     -19.574  41.910  -7.550  0.00  0.00    +0.000 A 
ATOM      6  C   UNL     1     -20.557  40.997  -7.898  0.00  0.00    +0.000 A 
ENDROOT
BRANCH   3   9
ATOM      7  O   UNL     1     -18.351  38.968 -11.332  0.00  0.00    +0.000 OA
ATOM      8  N   UNL     1     -20.046  40.231 -12.221  0.00  0.00    +0.000 N 
ATOM      9  C   UNL     1     -19.190  39.874 -11.185  0.00  0.00    +0.000 C 
ATOM     10  H   UNL     1     -20.742  40.964 -12.117  0.00  0.00    +0.000 HD
ATOM     11  H   UNL     1     -20.000  39.765 -13.121  0.00  0.00    +0.000 HD
ENDBRANCH   3   9
BRANCH   2  12
ATOM     12  N   UNL     1     -17.298  41.777 -10.287  0.00  0.00    +0.000 N 
ATOM     13  H   UNL     1     -16.973  41.023 -10.882  0.00  0.00    +0.000 HD
BRANCH  12  14
ATOM     14  C   UNL     1     -16.859  43.108 -10.637  0.00  0.00    +0.000 C 
BRANCH  14  15
ATOM     15  C   UNL     1     -17.062  43.370 -12.115  0.00  0.00    +0.000 C 
ATOM     16  C   UNL     1     -17.039  42.109 -13.003  0.00  0.00    +0.000 C 
ATOM     17  C   UNL     1     -18.534  43.551 -12.543  0.00  0.00    +0.000 C 
ATOM     18  C   UNL     1     -18.181  42.753 -13.816  0.00  0.00    +0.000 C 
ENDBRANCH  14  15
ENDBRANCH  12  14
ENDBRANCH   2  12
TORSDOF 4
ENDMDL
MODEL 3
REMARK VINA RESULT:    -5.240      4.581      6.435
REMARK INTER + INTRA:          -7.024
REMARK INTER:                  -6.493
REMARK INTRA:                  -0.531
REMARK UNBOUND:                -0.559
REMARK  Name = 43275312
REMARK  4 active torsions:
REMARK  status: ('A' for Active; 'I' for Inactive)
REMARK    1  A    between atoms: N_2  and  C_9
REMARK    2  A    between atoms: N_2  and  C_10
REMARK    3  A    between atoms: C_5  and  C_9
REMARK    4  A    between atoms: C_11  and  C_13
REMARK                            x       y       z     vdW  Elec       q    Type
REMARK                         _______ _______ _______ _____ _____    ______ ____
ROOT
ATOM      1  N   UNL     1     -19.951  41.605 -13.212  0.00  0.00    +0.000 NA
ATOM      2  C   UNL     1     -19.574  42.833 -13.637  0.00  0.00    +0.000 A 
ATOM      3  C   UNL     1     -18.546  43.569 -13.068  0.00  0.00    +0.000 A 
ATOM      4  C   UNL     1     -17.860  43.008 -11.996  0.00  0.00    +0.000 A 
ATOM      5  C   UNL     1     -19.261  41.094 -12.168  0.00  0.00    +0.000 A 
ATOM      6  C   UNL     1     -18.218  41.747 -11.532  0.00  0.00    +0.000 A 
ENDROOT
BRANCH   3   9
ATOM      7  O   UNL     1     -18.815  45.902 -13.233  0.00  0.00    +0.000 OA
ATOM      8  N   UNL     1     -17.036  44.985 -14.353  0.00  0.00    +0.000 N 
ATOM      9  C   UNL     1     -18.165  44.890 -13.546  0.00  0.00    +0.000 C 
ATOM     10  H   UNL     1     -16.489  44.169 -14.613  0.00  0.00    +0.000 HD
ATOM     11  H   UNL     1     -16.722  45.882 -14.708  0.00  0.00    +0.000 HD
ENDBRANCH   3   9
BRANCH   2  12
ATOM     12  N   UNL     1     -20.264  43.386 -14.704  0.00  0.00    +0.000 N 
ATOM     13  H   UNL     1     -20.779  44.242 -14.526  0.00  0.00    +0.000 HD
BRANCH  12  14
ATOM     14  C   UNL     1     -19.979  43.082 -16.086  0.00  0.00    +0.000 C 
BRANCH  14  15
ATOM     15  C   UNL     1     -21.102  43.558 -16.985  0.00  0.00    +0.000 C 
ATOM     16  C   UNL     1     -22.488  43.613 -16.310  0.00  0.00    +0.000 C 
ATOM     17  C   UNL     1     -21.201  45.090 -17.139  0.00  0.00    +0.000 C 
ATOM     18  C   UNL     1     -22.733  44.918 -17.095  0.00  0.00    +0.000 C 
ENDBRANCH  14  15
ENDBRANCH  12  14
ENDBRANCH   2  12
TORSDOF 4
ENDMDL
MODEL 4
REMARK VINA RESULT:    -4.916      3.461      5.673
REMARK INTER + INTRA:          -6.625
REMARK INTER:                  -6.095
REMARK INTRA:                  -0.530
REMARK UNBOUND:                -0.559
REMARK  Name = 43275312
REMARK  4 active torsions:
REMARK  status: ('A' for Active; 'I' for Inactive)
REMARK    1  A    between atoms: N_2  and  C_9
REMARK    2  A    between atoms: N_2  and  C_10
REMARK    3  A    between atoms: C_5  and  C_9
REMARK    4  A    between atoms: C_11  and  C_13
REMARK                            x       y       z     vdW  Elec       q    Type
REMARK                         _______ _______ _______ _____ _____    ______ ____
ROOT
ATOM      1  N   UNL     1     -16.849  40.597 -11.861  0.00  0.00    +0.000 NA
ATOM      2  C   UNL     1     -17.374  41.533 -12.684  0.00  0.00    +0.000 A 
ATOM      3  C   UNL     1     -18.728  41.656 -12.955  0.00  0.00    +0.000 A 
ATOM      4  C   UNL     1     -19.598  40.761 -12.342  0.00  0.00    +0.000 A 
ATOM      5  C   UNL     1     -17.726  39.745 -11.284  0.00  0.00    +0.000 A 
ATOM      6  C   UNL     1     -19.096  39.784 -11.489  0.00  0.00    +0.000 A 
ENDROOT
BRANCH   3   9
ATOM      7  O   UNL     1     -19.458  42.438 -15.053  0.00  0.00    +0.000 OA
ATOM      8  N   UNL     1     -19.569  43.915 -13.303  0.00  0.00    +0.000 N 
ATOM      9  C   UNL     1     -19.264  42.673 -13.848  0.00  0.00    +0.000 C 
ATOM     10  H   UNL     1     -19.423  44.123 -12.319  0.00  0.00    +0.000 HD
ATOM     11  H   UNL     1     -19.951  44.659 -13.879  0.00  0.00    +0.000 HD
ENDBRANCH   3   9
BRANCH   2  12
ATOM     12  N   UNL     1     -16.501  42.419 -13.293  0.00  0.00    +0.000 N 
ATOM     13  H   UNL     1     -16.710  42.690 -14.248  0.00  0.00    +0.000 HD
BRANCH  12  14
ATOM     14  C   UNL     1     -15.590  43.273 -12.567  0.00  0.00    +0.000 C 
BRANCH  14  15
ATOM     15  C   UNL     1     -16.058  44.714 -12.604  0.00  0.00    +0.000 C 
ATOM     16  C   UNL     1     -14.978  45.752 -12.237  0.00  0.00    +0.000 C 
ATOM     17  C   UNL     1     -16.083  45.349 -14.010  0.00  0.00    +0.000 C 
ATOM     18  C   UNL     1     -15.567  46.645 -13.349  0.00  0.00    +0.000 C 
ENDBRANCH  14  15
ENDBRANCH  12  14
ENDBRANCH   2  12
TORSDOF 4
ENDMDL
MODEL 5
REMARK VINA RESULT:    -4.725      3.679      5.977
REMARK INTER + INTRA:          -6.389
REMARK INTER:                  -6.002
REMARK INTRA:                  -0.387
REMARK UNBOUND:                -0.559
REMARK  Name = 43275312
REMARK  4 active torsions:
REMARK  status: ('A' for Active; 'I' for Inactive)
REMARK    1  A    between atoms: N_2  and  C_9
REMARK    2  A    between atoms: N_2  and  C_10
REMARK    3  A    between atoms: C_5  and  C_9
REMARK    4  A    between atoms: C_11  and  C_13
REMARK                            x       y       z     vdW  Elec       q    Type
REMARK                         _______ _______ _______ _____ _____    ______ ____
ROOT
ATOM      1  N   UNL     1     -19.633  40.870 -13.093  0.00  0.00    +0.000 NA
ATOM      2  C   UNL     1     -18.866  41.984 -13.065  0.00  0.00    +0.000 A 
ATOM      3  C   UNL     1     -17.668  42.083 -12.377  0.00  0.00    +0.000 A 
ATOM      4  C   UNL     1     -17.227  40.968 -11.672  0.00  0.00    +0.000 A 
ATOM      5  C   UNL     1     -19.172  39.807 -12.397  0.00  0.00    +0.000 A 
ATOM      6  C   UNL     1     -17.988  39.804 -11.678  0.00  0.00    +0.000 A 
ENDROOT
BRANCH   3   9
ATOM      7  O   UNL     1     -15.986  43.501 -13.218  0.00  0.00    +0.000 OA
ATOM      8  N   UNL     1     -17.128  44.234 -11.370  0.00  0.00    +0.000 N 
ATOM      9  C   UNL     1     -16.865  43.298 -12.363  0.00  0.00    +0.000 C 
ATOM     10  H   UNL     1     -17.848  44.089 -10.668  0.00  0.00    +0.000 HD
ATOM     11  H   UNL     1     -16.603  45.102 -11.317  0.00  0.00    +0.000 HD
ENDBRANCH   3   9
BRANCH   2  12
ATOM     12  N   UNL     1     -19.313  43.091 -13.768  0.00  0.00    +0.000 N 
ATOM     13  H   UNL     1     -18.696  43.896 -13.802  0.00  0.00    +0.000 HD
BRANCH  12  14
ATOM     14  C   UNL     1     -20.360  43.042 -14.761  0.00  0.00    +0.000 C 
BRANCH  14  15
ATOM     15  C   UNL     1     -19.822  43.411 -16.128  0.00  0.00    +0.000 C 
ATOM     16  C   UNL     1     -20.458  42.637 -17.302  0.00  0.00    +0.000 C 
ATOM     17  C   UNL     1     -20.434  44.689 -16.740  0.00  0.00    +0.000 C 
ATOM     18  C   UNL     1     -20.410  43.957 -18.098  0.00  0.00    +0.000 C 
ENDBRANCH  14  15
ENDBRANCH  12  14
ENDBRANCH   2  12
TORSDOF 4
ENDMDL
