MODEL 1
REMARK VINA RESULT:    -7.366      0.000      0.000
REMARK INTER + INTRA:          -9.674
REMARK INTER:                  -9.088
REMARK INTRA:                  -0.586
REMARK UNBOUND:                -0.586
REMARK  Name = 43317132
REMARK  4 active torsions:
REMARK  status: ('A' for Active; 'I' for Inactive)
REMARK    1  A    between atoms: N_2  and  C_10
REMARK    2  A    between atoms: N_2  and  C_11
REMARK    3  A    between atoms: C_5  and  C_10
REMARK    4  A    between atoms: C_12  and  C_14
REMARK                            x       y       z     vdW  Elec       q    Type
REMARK                         _______ _______ _______ _____ _____    ______ ____
ROOT
ATOM      1  N   UNL     1     -19.067  39.698 -10.543  0.00  0.00    +0.000 NA
ATOM      2  C   UNL     1     -18.361  40.832 -10.330  0.00  0.00    +0.000 A 
ATOM      3  C   UNL     1     -17.686  41.522 -11.324  0.00  0.00    +0.000 A 
ATOM      4  C   UNL     1     -17.738  41.018 -12.618  0.00  0.00    +0.000 A 
ATOM      5  C   UNL     1     -19.094  39.238 -11.814  0.00  0.00    +0.000 A 
ATOM      6  C   UNL     1     -18.453  39.854 -12.876  0.00  0.00    +0.000 A 
ENDROOT
BRANCH   3   9
ATOM      7  O   UNL     1     -17.501  43.837 -10.925  0.00  0.00    +0.000 OA
ATOM      8  N   UNL     1     -15.549  42.633 -10.954  0.00  0.00    +0.000 N 
ATOM      9  C   UNL     1     -16.931  42.741 -11.063  0.00  0.00    +0.000 C 
ATOM     10  H   UNL     1     -15.068  41.745 -11.054  0.00  0.00    +0.000 HD
ATOM     11  H   UNL     1     -14.975  43.448 -10.766  0.00  0.00    +0.000 HD
ENDBRANCH   3   9
BRANCH   2  12
ATOM     12  N   UNL     1     -18.312  41.328  -9.037  0.00  0.00    +0.000 N 
ATOM     13  H   UNL     1     -17.978  42.280  -8.927  0.00  0.00    +0.000 HD
BRANCH  12  14
ATOM     14  C   UNL     1     -19.070  40.781  -7.939  0.00  0.00    +0.000 C 
BRANCH  14  15
ATOM     15  C   UNL     1     -20.311  41.621  -7.692  0.00  0.00    +0.000 C 
ATOM     16  C   UNL     1     -21.610  40.865  -7.948  0.00  0.00    +0.000 C 
ATOM     17  C   UNL     1     -20.465  42.053  -6.238  0.00  0.00    +0.000 C 
ATOM     18  C   UNL     1     -22.670  41.691  -7.223  0.00  0.00    +0.000 C 
ATOM     19  C   UNL     1     -21.930  42.464  -6.130  0.00  0.00    +0.000 C 
ENDBRANCH  14  15
ENDBRANCH  12  14
ENDBRANCH   2  12
TORSDOF 4
ENDMDL
MODEL 2
REMARK VINA RESULT:    -6.918      2.234      5.299
REMARK INTER + INTRA:          -9.121
REMARK INTER:                  -8.315
REMARK INTRA:                  -0.807
REMARK UNBOUND:                -0.586
REMARK  Name = 43317132
REMARK  4 active torsions:
REMARK  status: ('A' for Active; 'I' for Inactive)
REMARK    1  A    between atoms: N_2  and  C_10
REMARK    2  A    between atoms: N_2  and  C_11
REMARK    3  A    between atoms: C_5  and  C_10
REMARK    4  A    between atoms: C_12  and  C_14
REMARK                            x       y       z     vdW  Elec       q    Type
REMARK                         _______ _______ _______ _____ _____    ______ ____
ROOT
ATOM      1  N   UNL     1     -18.452  42.204  -8.309  0.00  0.00    +0.000 NA
ATOM      2  C   UNL     1     -18.384  41.521  -9.474  0.00  0.00    +0.000 A 
ATOM      3  C   UNL     1     -19.377  40.672  -9.934  0.00  0.00    +0.000 A 
ATOM      4  C   UNL     1     -20.512  40.512  -9.148  0.00  0.00    +0.000 A 
ATOM      5  C   UNL     1     -19.571  42.022  -7.572  0.00  0.00    +0.000 A 
ATOM      6  C   UNL     1     -20.618  41.196  -7.942  0.00  0.00    +0.000 A 
ENDROOT
BRANCH   3   9
ATOM      7  O   UNL     1     -18.543  38.948 -11.307  0.00  0.00    +0.000 OA
ATOM      8  N   UNL     1     -20.035  40.403 -12.265  0.00  0.00    +0.000 N 
ATOM      9  C   UNL     1     -19.273  39.948 -11.194  0.00  0.00    +0.000 C 
ATOM     10  H   UNL     1     -20.643  41.213 -12.188  0.00  0.00    +0.000 HD
ATOM     11  H   UNL     1     -20.006  39.933 -13.163  0.00  0.00    +0.000 HD
ENDBRANCH   3   9
BRANCH   2  12
ATOM     12  N   UNL     1     -17.248  41.684 -10.252  0.00  0.00    +0.000 N 
ATOM     13  H   UNL     1     -16.909  40.862 -10.741  0.00  0.00    +0.000 HD
BRANCH  12  14
ATOM     14  C   UNL     1     -16.789  42.961 -10.742  0.00  0.00    +0.000 C 
BRANCH  14  15
ATOM     15  C   UNL     1     -17.839  43.579 -11.648  0.00  0.00    +0.000 C 
ATOM     16  C   UNL     1     -17.717  45.095 -11.764  0.00  0.00    +0.000 C 
ATOM     17  C   UNL     1     -17.720  43.130 -13.101  0.00  0.00    +0.000 C 
ATOM     18  C   UNL     1     -18.514  45.437 -13.019  0.00  0.00    +0.000 C 
ATOM     19  C   UNL     1     -18.526  44.169 -13.874  0.00  0.00    +0.000 C 
ENDBRANCH  14  15
ENDBRANCH  12  14
ENDBRANCH   2  12
TORSDOF 4
ENDMDL
MODEL 3
REMARK VINA RESULT:    -6.740      1.692      2.726
REMARK INTER + INTRA:          -8.902
REMARK INTER:                  -8.404
REMARK INTRA:                  -0.498
REMARK UNBOUND:                -0.586
REMARK  Name = 43317132
REMARK  4 active torsions:
REMARK  status: ('A' for Active; 'I' for Inactive)
REMARK    1  A    between atoms: N_2  and  C_10
REMARK    2  A    between atoms: N_2  and  C_11
REMARK    3  A    between atoms: C_5  and  C_10
REMARK    4  A    between atoms: C_12  and  C_14
REMARK                            x       y       z     vdW  Elec       q    Type
REMARK                         _______ _______ _______ _____ _____    ______ ____
ROOT
ATOM      1  N   UNL     1     -17.642  42.909 -10.268  0.00  0.00    +0.000 NA
ATOM      2  C   UNL     1     -18.230  41.732 -10.585  0.00  0.00    +0.000 A 
ATOM      3  C   UNL     1     -17.954  41.014 -11.736  0.00  0.00    +0.000 A 
ATOM      4  C   UNL     1     -17.016  41.535 -12.620  0.00  0.00    +0.000 A 
ATOM      5  C   UNL     1     -16.737  43.384 -11.152  0.00  0.00    +0.000 A 
ATOM      6  C   UNL     1     -16.392  42.743 -12.330  0.00  0.00    +0.000 A 
ENDROOT
BRANCH   3   9
ATOM      7  O   UNL     1     -18.823  38.897 -11.173  0.00  0.00    +0.000 OA
ATOM      8  N   UNL     1     -18.992  39.533 -13.370  0.00  0.00    +0.000 N 
ATOM      9  C   UNL     1     -18.605  39.749 -12.051  0.00  0.00    +0.000 C 
ATOM     10  H   UNL     1     -18.830  40.221 -14.099  0.00  0.00    +0.000 HD
ATOM     11  H   UNL     1     -19.455  38.673 -13.644  0.00  0.00    +0.000 HD
ENDBRANCH   3   9
BRANCH   2  12
ATOM     12  N   UNL     1     -19.165  41.219  -9.700  0.00  0.00    +0.000 N 
ATOM     13  H   UNL     1     -19.754  40.468 -10.044  0.00  0.00    +0.000 HD
BRANCH  12  14
ATOM     14  C   UNL     1     -19.077  41.363  -8.267  0.00  0.00    +0.000 C 
BRANCH  14  15
ATOM     15  C   UNL     1     -20.362  41.962  -7.723  0.00  0.00    +0.000 C 
ATOM     16  C   UNL     1     -21.578  41.065  -7.927  0.00  0.00    +0.000 C 
ATOM     17  C   UNL     1     -20.345  42.151  -6.210  0.00  0.00    +0.000 C 
ATOM     18  C   UNL     1     -22.610  41.609  -6.942  0.00  0.00    +0.000 C 
ATOM     19  C   UNL     1     -21.816  42.317  -5.843  0.00  0.00    +0.000 C 
ENDBRANCH  14  15
ENDBRANCH  12  14
ENDBRANCH   2  12
TORSDOF 4
ENDMDL
MODEL 4
REMARK VINA RESULT:    -6.620      1.863      2.244
REMARK INTER + INTRA:          -8.754
REMARK INTER:                  -8.282
REMARK INTRA:                  -0.472
REMARK UNBOUND:                -0.586
REMARK  Name = 43317132
REMARK  4 active torsions:
REMARK  status: ('A' for Active; 'I' for Inactive)
REMARK    1  A    between atoms: N_2  and  C_10
REMARK    2  A    between atoms: N_2  and  C_11
REMARK    3  A    between atoms: C_5  and  C_10
REMARK    4  A    between atoms: C_12  and  C_14
REMARK                            x       y       z     vdW  Elec       q    Type
REMARK                         _______ _______ _______ _____ _____    ______ ____
ROOT
ATOM      1  N   UNL     1     -19.667  41.616 -12.234  0.00  0.00    +0.000 NA
ATOM      2  C   UNL     1     -18.582  40.982 -11.734  0.00  0.00    +0.000 A 
ATOM      3  C   UNL     1     -17.287  41.200 -12.172  0.00  0.00    +0.000 A 
ATOM      4  C   UNL     1     -17.091  42.127 -13.190  0.00  0.00    +0.000 A 
ATOM      5  C   UNL     1     -19.438  42.509 -13.222  0.00  0.00    +0.000 A 
ATOM      6  C   UNL     1     -18.182  42.798 -13.730  0.00  0.00    +0.000 A 
ENDROOT
BRANCH   3   9
ATOM      7  O   UNL     1     -16.054  39.261 -11.653  0.00  0.00    +0.000 OA
ATOM      8  N   UNL     1     -15.124  41.269 -11.051  0.00  0.00    +0.000 N 
ATOM      9  C   UNL     1     -16.137  40.500 -11.614  0.00  0.00    +0.000 C 
ATOM     10  H   UNL     1     -15.171  42.283 -11.018  0.00  0.00    +0.000 HD
ATOM     11  H   UNL     1     -14.298  40.834 -10.654  0.00  0.00    +0.000 HD
ENDBRANCH   3   9
BRANCH   2  12
ATOM     12  N   UNL     1     -18.785  40.057 -10.721  0.00  0.00    +0.000 N 
ATOM     13  H   UNL     1     -18.743  39.078 -10.983  0.00  0.00    +0.000 HD
BRANCH  12  14
ATOM     14  C   UNL     1     -18.625  40.356  -9.319  0.00  0.00    +0.000 C 
BRANCH  14  15
ATOM     15  C   UNL     1     -19.818  41.149  -8.815  0.00  0.00    +0.000 C 
ATOM     16  C   UNL     1     -21.036  40.282  -8.519  0.00  0.00    +0.000 C 
ATOM     17  C   UNL     1     -19.565  41.828  -7.473  0.00  0.00    +0.000 C 
ATOM     18  C   UNL     1     -21.908  41.159  -7.625  0.00  0.00    +0.000 C 
ATOM     19  C   UNL     1     -20.963  42.161  -6.961  0.00  0.00    +0.000 C 
ENDBRANCH  14  15
ENDBRANCH  12  14
ENDBRANCH   2  12
TORSDOF 4
ENDMDL
MODEL 5
REMARK VINA RESULT:    -5.698      4.159      7.045
REMARK INTER + INTRA:          -7.616
REMARK INTER:                  -7.082
REMARK INTRA:                  -0.534
REMARK UNBOUND:                -0.586
REMARK  Name = 43317132
REMARK  4 active torsions:
REMARK  status: ('A' for Active; 'I' for Inactive)
REMARK    1  A    between atoms: N_2  and  C_10
REMARK    2  A    between atoms: N_2  and  C_11
REMARK    3  A    between atoms: C_5  and  C_10
REMARK    4  A    between atoms: C_12  and  C_14
REMARK                            x       y       z     vdW  Elec       q    Type
REMARK                         _______ _______ _______ _____ _____    ______ ____
ROOT
ATOM      1  N   UNL     1     -18.230  43.760 -12.798  0.00  0.00    +0.000 NA
ATOM      2  C   UNL     1     -18.637  42.491 -13.028  0.00  0.00    +0.000 A 
ATOM      3  C   UNL     1     -18.487  41.453 -12.123  0.00  0.00    +0.000 A 
ATOM      4  C   UNL     1     -17.880  41.735 -10.904  0.00  0.00    +0.000 A 
ATOM      5  C   UNL     1     -17.645  43.995 -11.603  0.00  0.00    +0.000 A 
ATOM      6  C   UNL     1     -17.448  43.028 -10.632  0.00  0.00    +0.000 A 
ENDROOT
BRANCH   3   9
ATOM      7  O   UNL     1     -18.698  39.546 -13.491  0.00  0.00    +0.000 OA
ATOM      8  N   UNL     1     -19.619  39.422 -11.394  0.00  0.00    +0.000 N 
ATOM      9  C   UNL     1     -18.933  40.094 -12.400  0.00  0.00    +0.000 C 
ATOM     10  H   UNL     1     -19.813  39.851 -10.494  0.00  0.00    +0.000 HD
ATOM     11  H   UNL     1     -19.947  38.472 -11.531  0.00  0.00    +0.000 HD
ENDBRANCH   3   9
BRANCH   2  12
ATOM     12  N   UNL     1     -19.239  42.216 -14.247  0.00  0.00    +0.000 N 
ATOM     13  H   UNL     1     -19.130  41.274 -14.606  0.00  0.00    +0.000 HD
BRANCH  12  14
ATOM     14  C   UNL     1     -20.317  42.997 -14.802  0.00  0.00    +0.000 C 
BRANCH  14  15
ATOM     15  C   UNL     1     -20.117  43.173 -16.297  0.00  0.00    +0.000 C 
ATOM     16  C   UNL     1     -21.421  43.143 -17.086  0.00  0.00    +0.000 C 
ATOM     17  C   UNL     1     -19.540  44.534 -16.670  0.00  0.00    +0.000 C 
ATOM     18  C   UNL     1     -21.059  43.779 -18.426  0.00  0.00    +0.000 C 
ATOM     19  C   UNL     1     -19.841  44.665 -18.160  0.00  0.00    +0.000 C 
ENDBRANCH  14  15
ENDBRANCH  12  14
ENDBRANCH   2  12
TORSDOF 4
ENDMDL
