MODEL 1
REMARK VINA RESULT:    -6.491      0.000      0.000
REMARK INTER + INTRA:          -9.453
REMARK INTER:                  -8.389
REMARK INTRA:                  -1.065
REMARK UNBOUND:                -1.065
REMARK  Name = 43553707
REMARK  5 active torsions:
REMARK  status: ('A' for Active; 'I' for Inactive)
REMARK    1  A    between atoms: N_3  and  C_7
REMARK    2  A    between atoms: N_3  and  C_9
REMARK    3  A    between atoms: C_7  and  C_8
REMARK    4  A    between atoms: C_8  and  C_12
REMARK    5  A    between atoms: C_10  and  C_14
REMARK                            x       y       z     vdW  Elec       q    Type
REMARK                         _______ _______ _______ _____ _____    ______ ____
ROOT
ATOM      1  N   UNL     1     -18.517  42.239  -8.298  0.00  0.00    +0.000 NA
ATOM      2  C   UNL     1     -18.439  41.559  -9.465  0.00  0.00    +0.000 A 
ATOM      3  C   UNL     1     -19.387  40.645  -9.895  0.00  0.00    +0.000 A 
ATOM      4  C   UNL     1     -20.487  40.415  -9.078  0.00  0.00    +0.000 A 
ATOM      5  C   UNL     1     -20.603  41.095  -7.870  0.00  0.00    +0.000 A 
ATOM      6  C   UNL     1     -19.600  41.988  -7.529  0.00  0.00    +0.000 A 
ENDROOT
BRANCH   3   9
ATOM      7  O   UNL     1     -18.526  38.940 -11.273  0.00  0.00    +0.000 OA
ATOM      8  N   UNL     1     -20.046  40.369 -12.224  0.00  0.00    +0.000 N 
ATOM      9  C   UNL     1     -19.273  39.926 -11.156  0.00  0.00    +0.000 C 
ATOM     10  H   UNL     1     -20.668  41.167 -12.146  0.00  0.00    +0.000 HD
ATOM     11  H   UNL     1     -20.011  39.901 -13.124  0.00  0.00    +0.000 HD
ENDBRANCH   3   9
BRANCH   2  12
ATOM     12  N   UNL     1     -17.338  41.792 -10.274  0.00  0.00    +0.000 N 
ATOM     13  H   UNL     1     -16.934  40.990 -10.746  0.00  0.00    +0.000 HD
BRANCH  12  14
ATOM     14  C   UNL     1     -16.992  43.092 -10.801  0.00  0.00    +0.000 C 
BRANCH  14  15
ATOM     15  C   UNL     1     -17.927  43.469 -11.942  0.00  0.00    +0.000 C 
BRANCH  15  18
ATOM     16  O   UNL     1     -17.087  41.584 -13.222  0.00  0.00    +0.000 OA
ATOM     17  N   UNL     1     -18.336  43.186 -14.297  0.00  0.00    +0.000 N 
ATOM     18  C   UNL     1     -17.721  42.635 -13.194  0.00  0.00    +0.000 C 
ATOM     19  H   UNL     1     -18.858  44.055 -14.250  0.00  0.00    +0.000 HD
ATOM     20  H   UNL     1     -18.285  42.734 -15.204  0.00  0.00    +0.000 HD
ENDBRANCH  15  18
ENDBRANCH  14  15
ENDBRANCH  12  14
ENDBRANCH   2  12
TORSDOF 5
ENDMDL
MODEL 2
REMARK VINA RESULT:    -6.022      1.987      4.481
REMARK INTER + INTRA:          -8.848
REMARK INTER:                  -8.006
REMARK INTRA:                  -0.842
REMARK UNBOUND:                -1.065
REMARK  Name = 43553707
REMARK  5 active torsions:
REMARK  status: ('A' for Active; 'I' for Inactive)
REMARK    1  A    between atoms: N_3  and  C_7
REMARK    2  A    between atoms: N_3  and  C_9
REMARK    3  A    between atoms: C_7  and  C_8
REMARK    4  A    between atoms: C_8  and  C_12
REMARK    5  A    between atoms: C_10  and  C_14
REMARK                            x       y       z     vdW  Elec       q    Type
REMARK                         _______ _______ _______ _____ _____    ______ ____
ROOT
ATOM      1  N   UNL     1     -17.696  43.629 -10.714  0.00  0.00    +0.000 NA
ATOM      2  C   UNL     1     -17.503  42.294 -10.620  0.00  0.00    +0.000 A 
ATOM      3  C   UNL     1     -17.167  41.482 -11.692  0.00  0.00    +0.000 A 
ATOM      4  C   UNL     1     -17.019  42.077 -12.938  0.00  0.00    +0.000 A 
ATOM      5  C   UNL     1     -17.210  43.448 -13.075  0.00  0.00    +0.000 A 
ATOM      6  C   UNL     1     -17.545  44.172 -11.942  0.00  0.00    +0.000 A 
ENDROOT
BRANCH   3   9
ATOM      7  O   UNL     1     -17.908  39.286 -11.269  0.00  0.00    +0.000 OA
ATOM      8  N   UNL     1     -15.690  39.547 -11.788  0.00  0.00    +0.000 N 
ATOM      9  C   UNL     1     -16.968  40.045 -11.559  0.00  0.00    +0.000 C 
ATOM     10  H   UNL     1     -14.911  40.150 -12.034  0.00  0.00    +0.000 HD
ATOM     11  H   UNL     1     -15.496  38.553 -11.716  0.00  0.00    +0.000 HD
ENDBRANCH   3   9
BRANCH   2  12
ATOM     12  N   UNL     1     -17.654  41.707  -9.374  0.00  0.00    +0.000 N 
ATOM     13  H   UNL     1     -16.844  41.238  -8.983  0.00  0.00    +0.000 HD
BRANCH  12  14
ATOM     14  C   UNL     1     -18.708  42.053  -8.448  0.00  0.00    +0.000 C 
BRANCH  14  15
ATOM     15  C   UNL     1     -19.374  40.794  -7.908  0.00  0.00    +0.000 C 
BRANCH  15  18
ATOM     16  O   UNL     1     -21.771  40.661  -8.278  0.00  0.00    +0.000 OA
ATOM     17  N   UNL     1     -20.355  39.740  -9.837  0.00  0.00    +0.000 N 
ATOM     18  C   UNL     1     -20.633  40.405  -8.662  0.00  0.00    +0.000 C 
ATOM     19  H   UNL     1     -19.405  39.541 -10.136  0.00  0.00    +0.000 HD
ATOM     20  H   UNL     1     -21.101  39.422 -10.446  0.00  0.00    +0.000 HD
ENDBRANCH  15  18
ENDBRANCH  14  15
ENDBRANCH  12  14
ENDBRANCH   2  12
TORSDOF 5
ENDMDL
MODEL 3
REMARK VINA RESULT:    -5.954      1.520      2.028
REMARK INTER + INTRA:          -8.759
REMARK INTER:                  -8.231
REMARK INTRA:                  -0.528
REMARK UNBOUND:                -1.065
REMARK  Name = 43553707
REMARK  5 active torsions:
REMARK  status: ('A' for Active; 'I' for Inactive)
REMARK    1  A    between atoms: N_3  and  C_7
REMARK    2  A    between atoms: N_3  and  C_9
REMARK    3  A    between atoms: C_7  and  C_8
REMARK    4  A    between atoms: C_8  and  C_12
REMARK    5  A    between atoms: C_10  and  C_14
REMARK                            x       y       z     vdW  Elec       q    Type
REMARK                         _______ _______ _______ _____ _____    ______ ____
ROOT
ATOM      1  N   UNL     1     -18.850  42.293  -7.958  0.00  0.00    +0.000 NA
ATOM      2  C   UNL     1     -18.595  41.663  -9.127  0.00  0.00    +0.000 A 
ATOM      3  C   UNL     1     -19.426  40.708  -9.691  0.00  0.00    +0.000 A 
ATOM      4  C   UNL     1     -20.594  40.380  -9.014  0.00  0.00    +0.000 A 
ATOM      5  C   UNL     1     -20.891  41.006  -7.809  0.00  0.00    +0.000 A 
ATOM      6  C   UNL     1     -19.995  41.946  -7.328  0.00  0.00    +0.000 A 
ENDROOT
BRANCH   3   9
ATOM      7  O   UNL     1     -18.125  39.311 -11.072  0.00  0.00    +0.000 OA
ATOM      8  N   UNL     1     -19.996  40.243 -12.014  0.00  0.00    +0.000 N 
ATOM      9  C   UNL     1     -19.121  40.044 -10.951  0.00  0.00    +0.000 C 
ATOM     10  H   UNL     1     -20.819  40.832 -11.932  0.00  0.00    +0.000 HD
ATOM     11  H   UNL     1     -19.836  39.800 -12.912  0.00  0.00    +0.000 HD
ENDBRANCH   3   9
BRANCH   2  12
ATOM     12  N   UNL     1     -17.427  41.993  -9.795  0.00  0.00    +0.000 N 
ATOM     13  H   UNL     1     -16.671  41.317  -9.766  0.00  0.00    +0.000 HD
BRANCH  12  14
ATOM     14  C   UNL     1     -17.353  42.997 -10.831  0.00  0.00    +0.000 C 
BRANCH  14  15
ATOM     15  C   UNL     1     -16.326  42.600 -11.883  0.00  0.00    +0.000 C 
BRANCH  15  18
ATOM     16  O   UNL     1     -14.308  43.831 -11.325  0.00  0.00    +0.000 OA
ATOM     17  N   UNL     1     -14.313  41.544 -11.092  0.00  0.00    +0.000 N 
ATOM     18  C   UNL     1     -14.890  42.753 -11.416  0.00  0.00    +0.000 C 
ATOM     19  H   UNL     1     -14.815  40.665 -11.172  0.00  0.00    +0.000 HD
ATOM     20  H   UNL     1     -13.356  41.494 -10.760  0.00  0.00    +0.000 HD
ENDBRANCH  15  18
ENDBRANCH  14  15
ENDBRANCH  12  14
ENDBRANCH   2  12
TORSDOF 5
ENDMDL
MODEL 4
REMARK VINA RESULT:    -5.396      3.114      4.633
REMARK INTER + INTRA:          -8.038
REMARK INTER:                  -7.468
REMARK INTRA:                  -0.570
REMARK UNBOUND:                -1.065
REMARK  Name = 43553707
REMARK  5 active torsions:
REMARK  status: ('A' for Active; 'I' for Inactive)
REMARK    1  A    between atoms: N_3  and  C_7
REMARK    2  A    between atoms: N_3  and  C_9
REMARK    3  A    between atoms: C_7  and  C_8
REMARK    4  A    between atoms: C_8  and  C_12
REMARK    5  A    between atoms: C_10  and  C_14
REMARK                            x       y       z     vdW  Elec       q    Type
REMARK                         _______ _______ _______ _____ _____    ______ ____
ROOT
ATOM      1  N   UNL     1     -19.203  40.524 -13.204  0.00  0.00    +0.000 NA
ATOM      2  C   UNL     1     -18.402  41.613 -13.242  0.00  0.00    +0.000 A 
ATOM      3  C   UNL     1     -17.426  41.890 -12.298  0.00  0.00    +0.000 A 
ATOM      4  C   UNL     1     -17.261  40.994 -11.250  0.00  0.00    +0.000 A 
ATOM      5  C   UNL     1     -18.066  39.863 -11.176  0.00  0.00    +0.000 A 
ATOM      6  C   UNL     1     -19.014  39.676 -12.169  0.00  0.00    +0.000 A 
ENDROOT
BRANCH   3   9
ATOM      7  O   UNL     1     -17.048  44.214 -12.210  0.00  0.00    +0.000 OA
ATOM      8  N   UNL     1     -15.220  42.883 -12.589  0.00  0.00    +0.000 N 
ATOM      9  C   UNL     1     -16.579  43.073 -12.365  0.00  0.00    +0.000 C 
ATOM     10  H   UNL     1     -14.817  41.960 -12.710  0.00  0.00    +0.000 HD
ATOM     11  H   UNL     1     -14.583  43.672 -12.638  0.00  0.00    +0.000 HD
ENDBRANCH   3   9
BRANCH   2  12
ATOM     12  N   UNL     1     -18.574  42.503 -14.289  0.00  0.00    +0.000 N 
ATOM     13  H   UNL     1     -17.826  42.563 -14.973  0.00  0.00    +0.000 HD
BRANCH  12  14
ATOM     14  C   UNL     1     -19.858  43.027 -14.693  0.00  0.00    +0.000 C 
BRANCH  14  15
ATOM     15  C   UNL     1     -19.729  43.804 -15.996  0.00  0.00    +0.000 C 
BRANCH  15  18
ATOM     16  O   UNL     1     -20.671  42.013 -17.339  0.00  0.00    +0.000 OA
ATOM     17  N   UNL     1     -18.997  43.308 -18.235  0.00  0.00    +0.000 N 
ATOM     18  C   UNL     1     -19.868  42.936 -17.234  0.00  0.00    +0.000 C 
ATOM     19  H   UNL     1     -18.343  44.077 -18.127  0.00  0.00    +0.000 HD
ATOM     20  H   UNL     1     -18.981  42.818 -19.123  0.00  0.00    +0.000 HD
ENDBRANCH  15  18
ENDBRANCH  14  15
ENDBRANCH  12  14
ENDBRANCH   2  12
TORSDOF 5
ENDMDL
MODEL 5
REMARK VINA RESULT:    -5.270      1.961      5.356
REMARK INTER + INTRA:          -7.876
REMARK INTER:                  -7.002
REMARK INTRA:                  -0.874
REMARK UNBOUND:                -1.065
REMARK  Name = 43553707
REMARK  5 active torsions:
REMARK  status: ('A' for Active; 'I' for Inactive)
REMARK    1  A    between atoms: N_3  and  C_7
REMARK    2  A    between atoms: N_3  and  C_9
REMARK    3  A    between atoms: C_7  and  C_8
REMARK    4  A    between atoms: C_8  and  C_12
REMARK    5  A    between atoms: C_10  and  C_14
REMARK                            x       y       z     vdW  Elec       q    Type
REMARK                         _______ _______ _______ _____ _____    ______ ____
ROOT
ATOM      1  N   UNL     1     -19.600  42.352 -14.570  0.00  0.00    +0.000 NA
ATOM      2  C   UNL     1     -18.686  42.118 -13.601  0.00  0.00    +0.000 A 
ATOM      3  C   UNL     1     -17.790  43.067 -13.135  0.00  0.00    +0.000 A 
ATOM      4  C   UNL     1     -17.836  44.337 -13.697  0.00  0.00    +0.000 A 
ATOM      5  C   UNL     1     -18.763  44.616 -14.695  0.00  0.00    +0.000 A 
ATOM      6  C   UNL     1     -19.614  43.598 -15.093  0.00  0.00    +0.000 A 
ENDROOT
BRANCH   3   9
ATOM      7  O   UNL     1     -17.156  42.653 -10.905  0.00  0.00    +0.000 OA
ATOM      8  N   UNL     1     -15.484  42.644 -12.473  0.00  0.00    +0.000 N 
ATOM      9  C   UNL     1     -16.814  42.783 -12.092  0.00  0.00    +0.000 C 
ATOM     10  H   UNL     1     -15.187  42.739 -13.439  0.00  0.00    +0.000 HD
ATOM     11  H   UNL     1     -14.763  42.439 -11.789  0.00  0.00    +0.000 HD
ENDBRANCH   3   9
BRANCH   2  12
ATOM     12  N   UNL     1     -18.644  40.848 -13.048  0.00  0.00    +0.000 N 
ATOM     13  H   UNL     1     -17.751  40.366 -13.066  0.00  0.00    +0.000 HD
BRANCH  12  14
ATOM     14  C   UNL     1     -19.628  40.347 -12.118  0.00  0.00    +0.000 C 
BRANCH  14  15
ATOM     15  C   UNL     1     -18.951  39.576 -10.992  0.00  0.00    +0.000 C 
BRANCH  15  18
ATOM     16  O   UNL     1     -20.391  40.222  -9.147  0.00  0.00    +0.000 OA
ATOM     17  N   UNL     1     -18.119  40.496  -8.930  0.00  0.00    +0.000 N 
ATOM     18  C   UNL     1     -19.258  40.126  -9.611  0.00  0.00    +0.000 C 
ATOM     19  H   UNL     1     -17.192  40.405  -9.333  0.00  0.00    +0.000 HD
ATOM     20  H   UNL     1     -18.173  40.878  -7.991  0.00  0.00    +0.000 HD
ENDBRANCH  15  18
ENDBRANCH  14  15
ENDBRANCH  12  14
ENDBRANCH   2  12
TORSDOF 5
ENDMDL
