MODEL 1
REMARK VINA RESULT:    -5.934      0.000      0.000
REMARK INTER + INTRA:          -9.657
REMARK INTER:                  -8.362
REMARK INTRA:                  -1.295
REMARK UNBOUND:                -1.295
REMARK  Name = 43599607
REMARK  7 active torsions:
REMARK  status: ('A' for Active; 'I' for Inactive)
REMARK    1  A    between atoms: N_2  and  C_6
REMARK    2  A    between atoms: N_2  and  C_9
REMARK    3  A    between atoms: N_3  and  C_11
REMARK    4  A    between atoms: N_3  and  C_12
REMARK    5  A    between atoms: C_9  and  C_10
REMARK    6  A    between atoms: C_10  and  C_11
REMARK    7  A    between atoms: C_13  and  C_15
REMARK                            x       y       z     vdW  Elec       q    Type
REMARK                         _______ _______ _______ _____ _____    ______ ____
ROOT
ATOM      1  N   UNL     1     -18.558  42.243  -8.319  0.00  0.00    +0.000 NA
ATOM      2  C   UNL     1     -18.442  41.582  -9.493  0.00  0.00    +0.000 A 
ATOM      3  C   UNL     1     -19.308  40.585  -9.909  0.00  0.00    +0.000 A 
ATOM      4  C   UNL     1     -20.362  40.243  -9.067  0.00  0.00    +0.000 A 
ATOM      5  C   UNL     1     -19.593  41.885  -7.527  0.00  0.00    +0.000 A 
ATOM      6  C   UNL     1     -20.514  40.902  -7.853  0.00  0.00    +0.000 A 
ENDROOT
BRANCH   3   9
ATOM      7  O   UNL     1     -18.276  39.024 -11.339  0.00  0.00    +0.000 OA
ATOM      8  N   UNL     1     -20.042  40.206 -12.201  0.00  0.00    +0.000 N 
ATOM      9  C   UNL     1     -19.156  39.887 -11.178  0.00  0.00    +0.000 C 
ATOM     10  H   UNL     1     -20.772  40.901 -12.085  0.00  0.00    +0.000 HD
ATOM     11  H   UNL     1     -19.986  39.745 -13.103  0.00  0.00    +0.000 HD
ENDBRANCH   3   9
BRANCH   2  12
ATOM     12  N   UNL     1     -17.388  41.925 -10.324  0.00  0.00    +0.000 N 
ATOM     13  H   UNL     1     -17.033  41.191 -10.929  0.00  0.00    +0.000 HD
BRANCH  12  14
ATOM     14  C   UNL     1     -17.087  43.279 -10.721  0.00  0.00    +0.000 C 
BRANCH  14  15
ATOM     15  C   UNL     1     -16.599  43.323 -12.169  0.00  0.00    +0.000 C 
BRANCH  15  16
ATOM     16  C   UNL     1     -16.601  41.967 -12.883  0.00  0.00    +0.000 C 
BRANCH  16  17
ATOM     17  N   UNL     1     -17.802  41.776 -13.687  0.00  0.00    +0.000 NA
ATOM     18  H   UNL     1     -17.576  41.232 -14.520  0.00  0.00    +0.000 HD
BRANCH  17  19
ATOM     19  C   UNL     1     -18.420  43.061 -14.072  0.00  0.00    +0.000 C 
ATOM     20  C   UNL     1     -19.841  43.354 -13.687  0.00  0.00    +0.000 C 
ATOM     21  C   UNL     1     -19.491  43.093 -15.124  0.00  0.00    +0.000 C 
ENDBRANCH  17  19
ENDBRANCH  16  17
ENDBRANCH  15  16
ENDBRANCH  14  15
ENDBRANCH  12  14
ENDBRANCH   2  12
TORSDOF 7
ENDMDL
MODEL 2
REMARK VINA RESULT:    -5.861      1.806      5.555
REMARK INTER + INTRA:          -9.554
REMARK INTER:                  -8.768
REMARK INTRA:                  -0.786
REMARK UNBOUND:                -1.295
REMARK  Name = 43599607
REMARK  7 active torsions:
REMARK  status: ('A' for Active; 'I' for Inactive)
REMARK    1  A    between atoms: N_2  and  C_6
REMARK    2  A    between atoms: N_2  and  C_9
REMARK    3  A    between atoms: N_3  and  C_11
REMARK    4  A    between atoms: N_3  and  C_12
REMARK    5  A    between atoms: C_9  and  C_10
REMARK    6  A    between atoms: C_10  and  C_11
REMARK    7  A    between atoms: C_13  and  C_15
REMARK                            x       y       z     vdW  Elec       q    Type
REMARK                         _______ _______ _______ _____ _____    ______ ____
ROOT
ATOM      1  N   UNL     1     -19.472  41.816 -12.474  0.00  0.00    +0.000 NA
ATOM      2  C   UNL     1     -18.445  41.090 -11.978  0.00  0.00    +0.000 A 
ATOM      3  C   UNL     1     -17.110  41.412 -12.160  0.00  0.00    +0.000 A 
ATOM      4  C   UNL     1     -16.809  42.553 -12.896  0.00  0.00    +0.000 A 
ATOM      5  C   UNL     1     -19.142  42.917 -13.184  0.00  0.00    +0.000 A 
ATOM      6  C   UNL     1     -17.839  43.325 -13.421  0.00  0.00    +0.000 A 
ENDROOT
BRANCH   3   9
ATOM      7  O   UNL     1     -16.028  39.368 -11.711  0.00  0.00    +0.000 OA
ATOM      8  N   UNL     1     -14.970  41.276 -11.003  0.00  0.00    +0.000 N 
ATOM      9  C   UNL     1     -16.024  40.608 -11.617  0.00  0.00    +0.000 C 
ATOM     10  H   UNL     1     -14.945  42.288 -10.926  0.00  0.00    +0.000 HD
ATOM     11  H   UNL     1     -14.183  40.765 -10.615  0.00  0.00    +0.000 HD
ENDBRANCH   3   9
BRANCH   2  12
ATOM     12  N   UNL     1     -18.753  39.953 -11.248  0.00  0.00    +0.000 N 
ATOM     13  H   UNL     1     -18.140  39.154 -11.379  0.00  0.00    +0.000 HD
BRANCH  12  14
ATOM     14  C   UNL     1     -19.535  39.965 -10.036  0.00  0.00    +0.000 C 
BRANCH  14  15
ATOM     15  C   UNL     1     -18.857  40.817  -8.963  0.00  0.00    +0.000 C 
BRANCH  15  16
ATOM     16  C   UNL     1     -19.805  41.365  -7.892  0.00  0.00    +0.000 C 
BRANCH  16  17
ATOM     17  N   UNL     1     -21.186  40.958  -8.125  0.00  0.00    +0.000 NA
ATOM     18  H   UNL     1     -21.475  41.239  -9.062  0.00  0.00    +0.000 HD
BRANCH  17  19
ATOM     19  C   UNL     1     -22.107  41.524  -7.120  0.00  0.00    +0.000 C 
ATOM     20  C   UNL     1     -22.005  42.973  -6.739  0.00  0.00    +0.000 C 
ATOM     21  C   UNL     1     -21.593  41.909  -5.763  0.00  0.00    +0.000 C 
ENDBRANCH  17  19
ENDBRANCH  16  17
ENDBRANCH  15  16
ENDBRANCH  14  15
ENDBRANCH  12  14
ENDBRANCH   2  12
TORSDOF 7
ENDMDL
MODEL 3
REMARK VINA RESULT:    -5.849      1.649      5.296
REMARK INTER + INTRA:          -9.538
REMARK INTER:                  -8.737
REMARK INTRA:                  -0.801
REMARK UNBOUND:                -1.295
REMARK  Name = 43599607
REMARK  7 active torsions:
REMARK  status: ('A' for Active; 'I' for Inactive)
REMARK    1  A    between atoms: N_2  and  C_6
REMARK    2  A    between atoms: N_2  and  C_9
REMARK    3  A    between atoms: N_3  and  C_11
REMARK    4  A    between atoms: N_3  and  C_12
REMARK    5  A    between atoms: C_9  and  C_10
REMARK    6  A    between atoms: C_10  and  C_11
REMARK    7  A    between atoms: C_13  and  C_15
REMARK                            x       y       z     vdW  Elec       q    Type
REMARK                         _______ _______ _______ _____ _____    ______ ____
ROOT
ATOM      1  N   UNL     1     -17.741  44.024 -11.832  0.00  0.00    +0.000 NA
ATOM      2  C   UNL     1     -17.888  42.689 -11.676  0.00  0.00    +0.000 A 
ATOM      3  C   UNL     1     -18.448  41.855 -12.629  0.00  0.00    +0.000 A 
ATOM      4  C   UNL     1     -18.886  42.426 -13.820  0.00  0.00    +0.000 A 
ATOM      5  C   UNL     1     -18.178  44.544 -13.000  0.00  0.00    +0.000 A 
ATOM      6  C   UNL     1     -18.751  43.796 -14.016  0.00  0.00    +0.000 A 
ENDROOT
BRANCH   3   9
ATOM      7  O   UNL     1     -17.612  39.690 -12.227  0.00  0.00    +0.000 OA
ATOM      8  N   UNL     1     -19.884  39.893 -12.462  0.00  0.00    +0.000 N 
ATOM      9  C   UNL     1     -18.597  40.419 -12.432  0.00  0.00    +0.000 C 
ATOM     10  H   UNL     1     -20.701  40.475 -12.619  0.00  0.00    +0.000 HD
ATOM     11  H   UNL     1     -20.045  38.901 -12.322  0.00  0.00    +0.000 HD
ENDBRANCH   3   9
BRANCH   2  12
ATOM     12  N   UNL     1     -17.453  42.127 -10.486  0.00  0.00    +0.000 N 
ATOM     13  H   UNL     1     -16.467  41.891 -10.433  0.00  0.00    +0.000 HD
BRANCH  12  14
ATOM     14  C   UNL     1     -18.140  42.282  -9.227  0.00  0.00    +0.000 C 
BRANCH  14  15
ATOM     15  C   UNL     1     -18.698  40.943  -8.747  0.00  0.00    +0.000 C 
BRANCH  15  16
ATOM     16  C   UNL     1     -20.064  41.032  -8.059  0.00  0.00    +0.000 C 
BRANCH  16  17
ATOM     17  N   UNL     1     -19.984  41.715  -6.773  0.00  0.00    +0.000 NA
ATOM     18  H   UNL     1     -19.378  41.192  -6.142  0.00  0.00    +0.000 HD
BRANCH  17  19
ATOM     19  C   UNL     1     -21.315  41.901  -6.161  0.00  0.00    +0.000 C 
ATOM     20  C   UNL     1     -22.552  41.534  -6.929  0.00  0.00    +0.000 C 
ATOM     21  C   UNL     1     -22.231  42.977  -6.668  0.00  0.00    +0.000 C 
ENDBRANCH  17  19
ENDBRANCH  16  17
ENDBRANCH  15  16
ENDBRANCH  14  15
ENDBRANCH  12  14
ENDBRANCH   2  12
TORSDOF 7
ENDMDL
MODEL 4
REMARK VINA RESULT:    -5.600      1.770      2.235
REMARK INTER + INTRA:          -9.187
REMARK INTER:                  -8.297
REMARK INTRA:                  -0.890
REMARK UNBOUND:                -1.295
REMARK  Name = 43599607
REMARK  7 active torsions:
REMARK  status: ('A' for Active; 'I' for Inactive)
REMARK    1  A    between atoms: N_2  and  C_6
REMARK    2  A    between atoms: N_2  and  C_9
REMARK    3  A    between atoms: N_3  and  C_11
REMARK    4  A    between atoms: N_3  and  C_12
REMARK    5  A    between atoms: C_9  and  C_10
REMARK    6  A    between atoms: C_10  and  C_11
REMARK    7  A    between atoms: C_13  and  C_15
REMARK                            x       y       z     vdW  Elec       q    Type
REMARK                         _______ _______ _______ _____ _____    ______ ____
ROOT
ATOM      1  N   UNL     1     -18.508  42.070  -8.357  0.00  0.00    +0.000 NA
ATOM      2  C   UNL     1     -18.308  41.475  -9.555  0.00  0.00    +0.000 A 
ATOM      3  C   UNL     1     -19.146  40.511 -10.090  0.00  0.00    +0.000 A 
ATOM      4  C   UNL     1     -20.262  40.133  -9.350  0.00  0.00    +0.000 A 
ATOM      5  C   UNL     1     -19.602  41.678  -7.667  0.00  0.00    +0.000 A 
ATOM      6  C   UNL     1     -20.501  40.723  -8.115  0.00  0.00    +0.000 A 
ENDROOT
BRANCH   3   9
ATOM      7  O   UNL     1     -17.809  39.356 -11.649  0.00  0.00    +0.000 OA
ATOM      8  N   UNL     1     -19.943  39.880 -12.305  0.00  0.00    +0.000 N 
ATOM      9  C   UNL     1     -18.902  39.884 -11.382  0.00  0.00    +0.000 C 
ATOM     10  H   UNL     1     -20.846  40.298 -12.101  0.00  0.00    +0.000 HD
ATOM     11  H   UNL     1     -19.831  39.449 -13.216  0.00  0.00    +0.000 HD
ENDBRANCH   3   9
BRANCH   2  12
ATOM     12  N   UNL     1     -17.193  41.854 -10.285  0.00  0.00    +0.000 N 
ATOM     13  H   UNL     1     -16.595  41.105 -10.617  0.00  0.00    +0.000 HD
BRANCH  12  14
ATOM     14  C   UNL     1     -17.078  43.116 -10.976  0.00  0.00    +0.000 C 
BRANCH  14  15
ATOM     15  C   UNL     1     -16.950  42.898 -12.483  0.00  0.00    +0.000 C 
BRANCH  15  16
ATOM     16  C   UNL     1     -17.588  43.994 -13.342  0.00  0.00    +0.000 C 
BRANCH  16  17
ATOM     17  N   UNL     1     -18.520  44.813 -12.577  0.00  0.00    +0.000 NA
ATOM     18  H   UNL     1     -19.463  44.700 -12.947  0.00  0.00    +0.000 HD
BRANCH  17  19
ATOM     19  C   UNL     1     -18.139  46.240 -12.587  0.00  0.00    +0.000 C 
ATOM     20  C   UNL     1     -16.901  46.692 -11.868  0.00  0.00    +0.000 C 
ATOM     21  C   UNL     1     -18.255  47.057 -11.332  0.00  0.00    +0.000 C 
ENDBRANCH  17  19
ENDBRANCH  16  17
ENDBRANCH  15  16
ENDBRANCH  14  15
ENDBRANCH  12  14
ENDBRANCH   2  12
TORSDOF 7
ENDMDL
MODEL 5
REMARK VINA RESULT:    -5.521      2.073      3.334
REMARK INTER + INTRA:          -9.076
REMARK INTER:                  -8.313
REMARK INTRA:                  -0.763
REMARK UNBOUND:                -1.295
REMARK  Name = 43599607
REMARK  7 active torsions:
REMARK  status: ('A' for Active; 'I' for Inactive)
REMARK    1  A    between atoms: N_2  and  C_6
REMARK    2  A    between atoms: N_2  and  C_9
REMARK    3  A    between atoms: N_3  and  C_11
REMARK    4  A    between atoms: N_3  and  C_12
REMARK    5  A    between atoms: C_9  and  C_10
REMARK    6  A    between atoms: C_10  and  C_11
REMARK    7  A    between atoms: C_13  and  C_15
REMARK                            x       y       z     vdW  Elec       q    Type
REMARK                         _______ _______ _______ _____ _____    ______ ____
ROOT
ATOM      1  N   UNL     1     -18.666  42.232  -8.314  0.00  0.00    +0.000 NA
ATOM      2  C   UNL     1     -18.408  41.722  -9.539  0.00  0.00    +0.000 A 
ATOM      3  C   UNL     1     -19.109  40.668 -10.102  0.00  0.00    +0.000 A 
ATOM      4  C   UNL     1     -20.142  40.102  -9.361  0.00  0.00    +0.000 A 
ATOM      5  C   UNL     1     -19.675  41.656  -7.623  0.00  0.00    +0.000 A 
ATOM      6  C   UNL     1     -20.436  40.600  -8.098  0.00  0.00    +0.000 A 
ENDROOT
BRANCH   3   9
ATOM      7  O   UNL     1     -17.709  39.610 -11.673  0.00  0.00    +0.000 OA
ATOM      8  N   UNL     1     -19.797  40.223 -12.397  0.00  0.00    +0.000 N 
ATOM      9  C   UNL     1     -18.807  40.137 -11.424  0.00  0.00    +0.000 C 
ATOM     10  H   UNL     1     -20.702  40.641 -12.209  0.00  0.00    +0.000 HD
ATOM     11  H   UNL     1     -19.642  39.861 -13.332  0.00  0.00    +0.000 HD
ENDBRANCH   3   9
BRANCH   2  12
ATOM     12  N   UNL     1     -17.377  42.289 -10.270  0.00  0.00    +0.000 N 
ATOM     13  H   UNL     1     -16.669  41.652 -10.621  0.00  0.00    +0.000 HD
BRANCH  12  14
ATOM     14  C   UNL     1     -17.474  43.565 -10.937  0.00  0.00    +0.000 C 
BRANCH  14  15
ATOM     15  C   UNL     1     -16.517  43.626 -12.128  0.00  0.00    +0.000 C 
BRANCH  15  16
ATOM     16  C   UNL     1     -15.210  42.850 -11.935  0.00  0.00    +0.000 C 
BRANCH  16  17
ATOM     17  N   UNL     1     -14.076  43.531 -12.549  0.00  0.00    +0.000 NA
ATOM     18  H   UNL     1     -13.948  43.196 -13.504  0.00  0.00    +0.000 HD
BRANCH  17  19
ATOM     19  C   UNL     1     -12.833  43.344 -11.775  0.00  0.00    +0.000 C 
ATOM     20  C   UNL     1     -12.671  42.139 -10.895  0.00  0.00    +0.000 C 
ATOM     21  C   UNL     1     -12.849  43.498 -10.281  0.00  0.00    +0.000 C 
ENDBRANCH  17  19
ENDBRANCH  16  17
ENDBRANCH  15  16
ENDBRANCH  14  15
ENDBRANCH  12  14
ENDBRANCH   2  12
TORSDOF 7
ENDMDL
