MODEL 1
REMARK VINA RESULT:    -6.386      0.000      0.000
REMARK INTER + INTRA:          -8.318
REMARK INTER:                  -7.693
REMARK INTRA:                  -0.625
REMARK UNBOUND:                -0.625
REMARK  Name = 43598820
REMARK  4 active torsions:
REMARK  status: ('A' for Active; 'I' for Inactive)
REMARK    1  A    between atoms: N_2  and  C_6
REMARK    2  A    between atoms: N_2  and  C_9
REMARK    3  A    between atoms: N_3  and  C_7
REMARK    4  A    between atoms: C_10  and  C_12
REMARK                            x       y       z     vdW  Elec       q    Type
REMARK                         _______ _______ _______ _____ _____    ______ ____
ROOT
ATOM      1  N   UNL     1     -18.463  42.223  -8.290  0.00  0.00    +0.000 NA
ATOM      2  C   UNL     1     -18.380  41.548  -9.458  0.00  0.00    +0.000 A 
ATOM      3  C   UNL     1     -19.357  40.684  -9.926  0.00  0.00    +0.000 A 
ATOM      4  C   UNL     1     -20.493  40.502  -9.146  0.00  0.00    +0.000 A 
ATOM      5  C   UNL     1     -19.582  42.021  -7.558  0.00  0.00    +0.000 A 
ATOM      6  C   UNL     1     -20.616  41.180  -7.937  0.00  0.00    +0.000 A 
ENDROOT
BRANCH   3   9
ATOM      7  O   UNL     1     -18.502  38.973 -11.300  0.00  0.00    +0.000 OA
ATOM      8  N   UNL     1     -19.993  40.423 -12.264  0.00  0.00    +0.000 N 
ATOM      9  C   UNL     1     -19.238  39.967 -11.188  0.00  0.00    +0.000 C 
ATOM     10  H   UNL     1     -20.605  41.229 -12.189  0.00  0.00    +0.000 HD
ATOM     11  H   UNL     1     -19.952  39.958 -13.165  0.00  0.00    +0.000 HD
ENDBRANCH   3   9
BRANCH   2  12
ATOM     12  N   UNL     1     -17.218  41.735 -10.247  0.00  0.00    +0.000 N 
ATOM     13  H   UNL     1     -16.707  40.890 -10.484  0.00  0.00    +0.000 HD
BRANCH  12  14
ATOM     14  C   UNL     1     -16.961  42.932 -11.036  0.00  0.00    +0.000 C 
ATOM     15  C   UNL     1     -16.653  42.846 -12.502  0.00  0.00    +0.000 C 
ATOM     16  C   UNL     1     -17.957  43.429 -12.042  0.00  0.00    +0.000 C 
BRANCH  15  17
ATOM     17  N   UNL     1     -15.629  43.715 -13.086  0.00  0.00    +0.000 NA
ATOM     18  H   UNL     1     -15.534  43.522 -14.082  0.00  0.00    +0.000 HD
ATOM     19  H   UNL     1     -14.721  43.512 -12.671  0.00  0.00    +0.000 HD
ENDBRANCH  15  17
ENDBRANCH  12  14
ENDBRANCH   2  12
TORSDOF 4
ENDMDL
MODEL 2
REMARK VINA RESULT:    -5.896      1.737      4.515
REMARK INTER + INTRA:          -7.728
REMARK INTER:                  -7.239
REMARK INTRA:                  -0.489
REMARK UNBOUND:                -0.625
REMARK  Name = 43598820
REMARK  4 active torsions:
REMARK  status: ('A' for Active; 'I' for Inactive)
REMARK    1  A    between atoms: N_2  and  C_6
REMARK    2  A    between atoms: N_2  and  C_9
REMARK    3  A    between atoms: N_3  and  C_7
REMARK    4  A    between atoms: C_10  and  C_12
REMARK                            x       y       z     vdW  Elec       q    Type
REMARK                         _______ _______ _______ _____ _____    ______ ____
ROOT
ATOM      1  N   UNL     1     -17.645  43.590 -10.825  0.00  0.00    +0.000 NA
ATOM      2  C   UNL     1     -17.545  42.247 -10.710  0.00  0.00    +0.000 A 
ATOM      3  C   UNL     1     -17.162  41.406 -11.743  0.00  0.00    +0.000 A 
ATOM      4  C   UNL     1     -16.863  41.981 -12.973  0.00  0.00    +0.000 A 
ATOM      5  C   UNL     1     -17.346  44.113 -12.036  0.00  0.00    +0.000 A 
ATOM      6  C   UNL     1     -16.954  43.360 -13.131  0.00  0.00    +0.000 A 
ENDROOT
BRANCH   3   9
ATOM      7  O   UNL     1     -18.062  39.274 -11.310  0.00  0.00    +0.000 OA
ATOM      8  N   UNL     1     -15.821  39.372 -11.787  0.00  0.00    +0.000 N 
ATOM      9  C   UNL     1     -17.067  39.962 -11.590  0.00  0.00    +0.000 C 
ATOM     10  H   UNL     1     -14.999  39.918 -12.024  0.00  0.00    +0.000 HD
ATOM     11  H   UNL     1     -15.700  38.369 -11.698  0.00  0.00    +0.000 HD
ENDBRANCH   3   9
BRANCH   2  12
ATOM     12  N   UNL     1     -17.855  41.668  -9.454  0.00  0.00    +0.000 N 
ATOM     13  H   UNL     1     -17.089  41.628  -8.789  0.00  0.00    +0.000 HD
BRANCH  12  14
ATOM     14  C   UNL     1     -19.211  41.520  -8.945  0.00  0.00    +0.000 C 
ATOM     15  C   UNL     1     -19.726  40.189  -8.483  0.00  0.00    +0.000 C 
ATOM     16  C   UNL     1     -19.473  41.283  -7.487  0.00  0.00    +0.000 C 
BRANCH  15  17
ATOM     17  N   UNL     1     -21.101  39.789  -8.794  0.00  0.00    +0.000 NA
ATOM     18  H   UNL     1     -21.293  38.867  -8.405  0.00  0.00    +0.000 HD
ATOM     19  H   UNL     1     -21.217  39.699  -9.803  0.00  0.00    +0.000 HD
ENDBRANCH  15  17
ENDBRANCH  12  14
ENDBRANCH   2  12
TORSDOF 4
ENDMDL
MODEL 3
REMARK VINA RESULT:    -5.516      3.217      4.426
REMARK INTER + INTRA:          -7.269
REMARK INTER:                  -6.823
REMARK INTRA:                  -0.446
REMARK UNBOUND:                -0.625
REMARK  Name = 43598820
REMARK  4 active torsions:
REMARK  status: ('A' for Active; 'I' for Inactive)
REMARK    1  A    between atoms: N_2  and  C_6
REMARK    2  A    between atoms: N_2  and  C_9
REMARK    3  A    between atoms: N_3  and  C_7
REMARK    4  A    between atoms: C_10  and  C_12
REMARK                            x       y       z     vdW  Elec       q    Type
REMARK                         _______ _______ _______ _____ _____    ______ ____
ROOT
ATOM      1  N   UNL     1     -18.520  44.131 -13.097  0.00  0.00    +0.000 NA
ATOM      2  C   UNL     1     -18.954  42.855 -13.195  0.00  0.00    +0.000 A 
ATOM      3  C   UNL     1     -18.699  41.873 -12.251  0.00  0.00    +0.000 A 
ATOM      4  C   UNL     1     -17.949  42.224 -11.134  0.00  0.00    +0.000 A 
ATOM      5  C   UNL     1     -17.794  44.435 -11.996  0.00  0.00    +0.000 A 
ATOM      6  C   UNL     1     -17.485  43.528 -10.996  0.00  0.00    +0.000 A 
ENDROOT
BRANCH   3   9
ATOM      7  O   UNL     1     -18.960  39.843 -13.414  0.00  0.00    +0.000 OA
ATOM      8  N   UNL     1     -19.874  39.956 -11.314  0.00  0.00    +0.000 N 
ATOM      9  C   UNL     1     -19.178  40.505 -12.386  0.00  0.00    +0.000 C 
ATOM     10  H   UNL     1     -20.055  40.480 -10.464  0.00  0.00    +0.000 HD
ATOM     11  H   UNL     1     -20.226  39.005 -11.353  0.00  0.00    +0.000 HD
ENDBRANCH   3   9
BRANCH   2  12
ATOM     12  N   UNL     1     -19.715  42.504 -14.338  0.00  0.00    +0.000 N 
ATOM     13  H   UNL     1     -20.481  41.858 -14.173  0.00  0.00    +0.000 HD
BRANCH  12  14
ATOM     14  C   UNL     1     -19.729  43.282 -15.569  0.00  0.00    +0.000 C 
ATOM     15  C   UNL     1     -20.072  42.647 -16.885  0.00  0.00    +0.000 C 
ATOM     16  C   UNL     1     -21.018  43.628 -16.255  0.00  0.00    +0.000 C 
BRANCH  15  17
ATOM     17  N   UNL     1     -19.329  43.020 -18.091  0.00  0.00    +0.000 NA
ATOM     18  H   UNL     1     -19.911  42.882 -18.916  0.00  0.00    +0.000 HD
ATOM     19  H   UNL     1     -18.524  42.406 -18.209  0.00  0.00    +0.000 HD
ENDBRANCH  15  17
ENDBRANCH  12  14
ENDBRANCH   2  12
TORSDOF 4
ENDMDL
MODEL 4
REMARK VINA RESULT:    -5.160      3.486      5.178
REMARK INTER + INTRA:          -6.841
REMARK INTER:                  -6.390
REMARK INTRA:                  -0.451
REMARK UNBOUND:                -0.625
REMARK  Name = 43598820
REMARK  4 active torsions:
REMARK  status: ('A' for Active; 'I' for Inactive)
REMARK    1  A    between atoms: N_2  and  C_6
REMARK    2  A    between atoms: N_2  and  C_9
REMARK    3  A    between atoms: N_3  and  C_7
REMARK    4  A    between atoms: C_10  and  C_12
REMARK                            x       y       z     vdW  Elec       q    Type
REMARK                         _______ _______ _______ _____ _____    ______ ____
ROOT
ATOM      1  N   UNL     1     -19.708  41.288 -12.956  0.00  0.00    +0.000 NA
ATOM      2  C   UNL     1     -19.209  42.521 -13.199  0.00  0.00    +0.000 A 
ATOM      3  C   UNL     1     -18.087  43.041 -12.573  0.00  0.00    +0.000 A 
ATOM      4  C   UNL     1     -17.436  42.245 -11.638  0.00  0.00    +0.000 A 
ATOM      5  C   UNL     1     -19.048  40.543 -12.040  0.00  0.00    +0.000 A 
ATOM      6  C   UNL     1     -17.918  40.970 -11.361  0.00  0.00    +0.000 A 
ENDROOT
BRANCH   3   9
ATOM      7  O   UNL     1     -18.120  45.388 -12.386  0.00  0.00    +0.000 OA
ATOM      8  N   UNL     1     -16.439  44.476 -13.651  0.00  0.00    +0.000 N 
ATOM      9  C   UNL     1     -17.575  44.375 -12.854  0.00  0.00    +0.000 C 
ATOM     10  H   UNL     1     -15.977  43.658 -14.035  0.00  0.00    +0.000 HD
ATOM     11  H   UNL     1     -16.037  45.381 -13.873  0.00  0.00    +0.000 HD
ENDBRANCH   3   9
BRANCH   2  12
ATOM     12  N   UNL     1     -19.880  43.328 -14.151  0.00  0.00    +0.000 N 
ATOM     13  H   UNL     1     -20.258  44.201 -13.796  0.00  0.00    +0.000 HD
BRANCH  12  14
ATOM     14  C   UNL     1     -19.708  43.192 -15.590  0.00  0.00    +0.000 C 
ATOM     15  C   UNL     1     -20.887  43.007 -16.500  0.00  0.00    +0.000 C 
ATOM     16  C   UNL     1     -20.110  44.291 -16.529  0.00  0.00    +0.000 C 
BRANCH  15  17
ATOM     17  N   UNL     1     -20.801  42.076 -17.627  0.00  0.00    +0.000 NA
ATOM     18  H   UNL     1     -20.286  41.241 -17.352  0.00  0.00    +0.000 HD
ATOM     19  H   UNL     1     -20.269  42.497 -18.388  0.00  0.00    +0.000 HD
ENDBRANCH  15  17
ENDBRANCH  12  14
ENDBRANCH   2  12
TORSDOF 4
ENDMDL
MODEL 5
REMARK VINA RESULT:    -5.064      1.981      2.447
REMARK INTER + INTRA:          -6.726
REMARK INTER:                  -6.339
REMARK INTRA:                  -0.386
REMARK UNBOUND:                -0.625
REMARK  Name = 43598820
REMARK  4 active torsions:
REMARK  status: ('A' for Active; 'I' for Inactive)
REMARK    1  A    between atoms: N_2  and  C_6
REMARK    2  A    between atoms: N_2  and  C_9
REMARK    3  A    between atoms: N_3  and  C_7
REMARK    4  A    between atoms: C_10  and  C_12
REMARK                            x       y       z     vdW  Elec       q    Type
REMARK                         _______ _______ _______ _____ _____    ______ ____
ROOT
ATOM      1  N   UNL     1     -18.007  42.908 -10.191  0.00  0.00    +0.000 NA
ATOM      2  C   UNL     1     -17.922  42.252 -11.370  0.00  0.00    +0.000 A 
ATOM      3  C   UNL     1     -17.971  40.873 -11.496  0.00  0.00    +0.000 A 
ATOM      4  C   UNL     1     -18.117  40.119 -10.338  0.00  0.00    +0.000 A 
ATOM      5  C   UNL     1     -18.148  42.141  -9.086  0.00  0.00    +0.000 A 
ATOM      6  C   UNL     1     -18.209  40.757  -9.105  0.00  0.00    +0.000 A 
ENDROOT
BRANCH   3   9
ATOM      7  O   UNL     1     -18.868  40.040 -13.508  0.00  0.00    +0.000 OA
ATOM      8  N   UNL     1     -16.619  39.741 -13.178  0.00  0.00    +0.000 N 
ATOM      9  C   UNL     1     -17.873  40.195 -12.781  0.00  0.00    +0.000 C 
ATOM     10  H   UNL     1     -15.794  39.866 -12.600  0.00  0.00    +0.000 HD
ATOM     11  H   UNL     1     -16.493  39.267 -14.066  0.00  0.00    +0.000 HD
ENDBRANCH   3   9
BRANCH   2  12
ATOM     12  N   UNL     1     -17.770  43.028 -12.547  0.00  0.00    +0.000 N 
ATOM     13  H   UNL     1     -18.624  43.431 -12.919  0.00  0.00    +0.000 HD
BRANCH  12  14
ATOM     14  C   UNL     1     -16.500  43.590 -12.985  0.00  0.00    +0.000 C 
ATOM     15  C   UNL     1     -16.414  44.990 -13.519  0.00  0.00    +0.000 C 
ATOM     16  C   UNL     1     -15.804  44.655 -12.189  0.00  0.00    +0.000 C 
BRANCH  15  17
ATOM     17  N   UNL     1     -15.549  45.282 -14.666  0.00  0.00    +0.000 NA
ATOM     18  H   UNL     1     -16.017  45.020 -15.531  0.00  0.00    +0.000 HD
ATOM     19  H   UNL     1     -14.704  44.714 -14.619  0.00  0.00    +0.000 HD
ENDBRANCH  15  17
ENDBRANCH  12  14
ENDBRANCH   2  12
TORSDOF 4
ENDMDL
