MODEL 1
REMARK VINA RESULT:    -7.112      0.000      0.000
REMARK INTER + INTRA:         -10.354
REMARK INTER:                  -9.607
REMARK INTRA:                  -0.746
REMARK UNBOUND:                -0.746
REMARK  Name = 43599608
REMARK  6 active torsions:
REMARK  status: ('A' for Active; 'I' for Inactive)
REMARK    1  A    between atoms: N_2  and  C_6
REMARK    2  A    between atoms: N_2  and  C_9
REMARK    3  A    between atoms: N_3  and  C_11
REMARK    4  A    between atoms: C_9  and  C_10
REMARK    5  A    between atoms: C_10  and  C_11
REMARK    6  A    between atoms: C_15  and  C_17
REMARK                            x       y       z     vdW  Elec       q    Type
REMARK                         _______ _______ _______ _____ _____    ______ ____
ROOT
ATOM      1  N   UNL     1     -18.435  39.948 -10.356  0.00  0.00    +0.000 N 
ATOM      2  N   UNL     1     -20.500  40.004  -9.223  0.00  0.00    +0.000 NA
ATOM      3  C   UNL     1     -19.258  40.509  -9.390  0.00  0.00    +0.000 A 
ATOM      4  C   UNL     1     -18.744  41.564  -8.654  0.00  0.00    +0.000 A 
ATOM      5  C   UNL     1     -19.557  42.137  -7.683  0.00  0.00    +0.000 A 
ATOM      6  C   UNL     1     -20.841  41.644  -7.481  0.00  0.00    +0.000 A 
ATOM      7  C   UNL     1     -21.261  40.586  -8.270  0.00  0.00    +0.000 A 
ATOM      8  H   UNL     1     -18.817  39.165 -10.872  0.00  0.00    +0.000 HD
ENDROOT
BRANCH   6  11
ATOM      9  O   UNL     1     -22.928  42.404  -6.694  0.00  0.00    +0.000 OA
ATOM     10  N   UNL     1     -21.158  42.555  -5.243  0.00  0.00    +0.000 N 
ATOM     11  C   UNL     1     -21.716  42.223  -6.476  0.00  0.00    +0.000 C 
ATOM     12  H   UNL     1     -20.187  42.436  -4.985  0.00  0.00    +0.000 HD
ATOM     13  H   UNL     1     -21.748  42.956  -4.520  0.00  0.00    +0.000 HD
ENDBRANCH   6  11
BRANCH   1  14
ATOM     14  C   UNL     1     -17.092  40.403 -10.626  0.00  0.00    +0.000 C 
BRANCH  14  15
ATOM     15  C   UNL     1     -16.883  40.607 -12.126  0.00  0.00    +0.000 C 
BRANCH  15  16
ATOM     16  C   UNL     1     -17.977  40.003 -13.011  0.00  0.00    +0.000 C 
BRANCH  16  17
ATOM     17  N   UNL     1     -19.076  40.936 -13.232  0.00  0.00    +0.000 NA
ATOM     18  H   UNL     1     -19.561  41.105 -12.352  0.00  0.00    +0.000 HD
BRANCH  17  19
ATOM     19  C   UNL     1     -18.607  42.218 -13.796  0.00  0.00    +0.000 C 
ATOM     20  C   UNL     1     -19.116  43.515 -13.237  0.00  0.00    +0.000 C 
ATOM     21  C   UNL     1     -19.542  43.069 -14.606  0.00  0.00    +0.000 C 
ENDBRANCH  17  19
ENDBRANCH  16  17
ENDBRANCH  15  16
ENDBRANCH  14  15
ENDBRANCH   1  14
TORSDOF 6
ENDMDL
MODEL 2
REMARK VINA RESULT:    -6.190      2.953      6.630
REMARK INTER + INTRA:          -9.108
REMARK INTER:                  -8.712
REMARK INTRA:                  -0.395
REMARK UNBOUND:                -0.746
REMARK  Name = 43599608
REMARK  6 active torsions:
REMARK  status: ('A' for Active; 'I' for Inactive)
REMARK    1  A    between atoms: N_2  and  C_6
REMARK    2  A    between atoms: N_2  and  C_9
REMARK    3  A    between atoms: N_3  and  C_11
REMARK    4  A    between atoms: C_9  and  C_10
REMARK    5  A    between atoms: C_10  and  C_11
REMARK    6  A    between atoms: C_15  and  C_17
REMARK                            x       y       z     vdW  Elec       q    Type
REMARK                         _______ _______ _______ _____ _____    ______ ____
ROOT
ATOM      1  N   UNL     1     -19.643  40.421 -11.415  0.00  0.00    +0.000 N 
ATOM      2  N   UNL     1     -19.691  41.749 -13.360  0.00  0.00    +0.000 NA
ATOM      3  C   UNL     1     -19.202  41.530 -12.119  0.00  0.00    +0.000 A 
ATOM      4  C   UNL     1     -18.277  42.351 -11.495  0.00  0.00    +0.000 A 
ATOM      5  C   UNL     1     -17.825  43.468 -12.188  0.00  0.00    +0.000 A 
ATOM      6  C   UNL     1     -18.305  43.726 -13.468  0.00  0.00    +0.000 A 
ATOM      7  C   UNL     1     -19.228  42.844 -14.004  0.00  0.00    +0.000 A 
ATOM      8  H   UNL     1     -20.335  39.841 -11.876  0.00  0.00    +0.000 HD
ENDROOT
BRANCH   6  11
ATOM      9  O   UNL     1     -17.128  45.753 -13.699  0.00  0.00    +0.000 OA
ATOM     10  N   UNL     1     -18.234  44.982 -15.554  0.00  0.00    +0.000 N 
ATOM     11  C   UNL     1     -17.850  44.883 -14.219  0.00  0.00    +0.000 C 
ATOM     12  H   UNL     1     -18.813  44.318 -16.051  0.00  0.00    +0.000 HD
ATOM     13  H   UNL     1     -17.924  45.778 -16.104  0.00  0.00    +0.000 HD
ENDBRANCH   6  11
BRANCH   1  14
ATOM     14  C   UNL     1     -19.193  40.084 -10.085  0.00  0.00    +0.000 C 
BRANCH  14  15
ATOM     15  C   UNL     1     -20.382  39.789  -9.171  0.00  0.00    +0.000 C 
BRANCH  15  16
ATOM     16  C   UNL     1     -20.840  40.975  -8.317  0.00  0.00    +0.000 C 
BRANCH  16  17
ATOM     17  N   UNL     1     -22.237  40.851  -7.918  0.00  0.00    +0.000 NA
ATOM     18  H   UNL     1     -22.440  39.880  -7.685  0.00  0.00    +0.000 HD
BRANCH  17  19
ATOM     19  C   UNL     1     -22.562  41.718  -6.766  0.00  0.00    +0.000 C 
ATOM     20  C   UNL     1     -21.996  43.106  -6.690  0.00  0.00    +0.000 C 
ATOM     21  C   UNL     1     -21.505  42.043  -5.751  0.00  0.00    +0.000 C 
ENDBRANCH  17  19
ENDBRANCH  16  17
ENDBRANCH  15  16
ENDBRANCH  14  15
ENDBRANCH   1  14
TORSDOF 6
ENDMDL
MODEL 3
REMARK VINA RESULT:    -5.906      2.183      2.877
REMARK INTER + INTRA:          -8.724
REMARK INTER:                  -8.251
REMARK INTRA:                  -0.473
REMARK UNBOUND:                -0.746
REMARK  Name = 43599608
REMARK  6 active torsions:
REMARK  status: ('A' for Active; 'I' for Inactive)
REMARK    1  A    between atoms: N_2  and  C_6
REMARK    2  A    between atoms: N_2  and  C_9
REMARK    3  A    between atoms: N_3  and  C_11
REMARK    4  A    between atoms: C_9  and  C_10
REMARK    5  A    between atoms: C_10  and  C_11
REMARK    6  A    between atoms: C_15  and  C_17
REMARK                            x       y       z     vdW  Elec       q    Type
REMARK                         _______ _______ _______ _____ _____    ______ ____
ROOT
ATOM      1  N   UNL     1     -18.517  39.894 -10.194  0.00  0.00    +0.000 N 
ATOM      2  N   UNL     1     -20.643  39.908  -9.178  0.00  0.00    +0.000 NA
ATOM      3  C   UNL     1     -19.414  40.458  -9.300  0.00  0.00    +0.000 A 
ATOM      4  C   UNL     1     -18.985  41.563  -8.584  0.00  0.00    +0.000 A 
ATOM      5  C   UNL     1     -19.873  42.141  -7.683  0.00  0.00    +0.000 A 
ATOM      6  C   UNL     1     -21.146  41.603  -7.530  0.00  0.00    +0.000 A 
ATOM      7  C   UNL     1     -21.479  40.496  -8.293  0.00  0.00    +0.000 A 
ATOM      8  H   UNL     1     -18.838  39.074 -10.696  0.00  0.00    +0.000 HD
ENDROOT
BRANCH   6  11
ATOM      9  O   UNL     1     -22.976  41.494  -6.051  0.00  0.00    +0.000 OA
ATOM     10  N   UNL     1     -21.986  43.545  -6.321  0.00  0.00    +0.000 N 
ATOM     11  C   UNL     1     -22.097  42.184  -6.599  0.00  0.00    +0.000 C 
ATOM     12  H   UNL     1     -21.299  44.173  -6.720  0.00  0.00    +0.000 HD
ATOM     13  H   UNL     1     -22.634  43.976  -5.669  0.00  0.00    +0.000 HD
ENDBRANCH   6  11
BRANCH   1  14
ATOM     14  C   UNL     1     -17.181  40.394 -10.411  0.00  0.00    +0.000 C 
BRANCH  14  15
ATOM     15  C   UNL     1     -17.075  41.079 -11.774  0.00  0.00    +0.000 C 
BRANCH  15  16
ATOM     16  C   UNL     1     -16.944  42.604 -11.712  0.00  0.00    +0.000 C 
BRANCH  16  17
ATOM     17  N   UNL     1     -15.889  43.024 -10.797  0.00  0.00    +0.000 NA
ATOM     18  H   UNL     1     -15.927  42.458  -9.950  0.00  0.00    +0.000 HD
BRANCH  17  19
ATOM     19  C   UNL     1     -14.550  42.913 -11.411  0.00  0.00    +0.000 C 
ATOM     20  C   UNL     1     -13.329  43.272 -10.615  0.00  0.00    +0.000 C 
ATOM     21  C   UNL     1     -13.773  44.152 -11.747  0.00  0.00    +0.000 C 
ENDBRANCH  17  19
ENDBRANCH  16  17
ENDBRANCH  15  16
ENDBRANCH  14  15
ENDBRANCH   1  14
TORSDOF 6
ENDMDL
MODEL 4
REMARK VINA RESULT:    -5.660      3.339      5.560
REMARK INTER + INTRA:          -8.392
REMARK INTER:                  -7.676
REMARK INTRA:                  -0.716
REMARK UNBOUND:                -0.746
REMARK  Name = 43599608
REMARK  6 active torsions:
REMARK  status: ('A' for Active; 'I' for Inactive)
REMARK    1  A    between atoms: N_2  and  C_6
REMARK    2  A    between atoms: N_2  and  C_9
REMARK    3  A    between atoms: N_3  and  C_11
REMARK    4  A    between atoms: C_9  and  C_10
REMARK    5  A    between atoms: C_10  and  C_11
REMARK    6  A    between atoms: C_15  and  C_17
REMARK                            x       y       z     vdW  Elec       q    Type
REMARK                         _______ _______ _______ _____ _____    ______ ____
ROOT
ATOM      1  N   UNL     1     -19.194  44.265 -14.561  0.00  0.00    +0.000 N 
ATOM      2  N   UNL     1     -19.725  42.158 -13.651  0.00  0.00    +0.000 NA
ATOM      3  C   UNL     1     -18.989  43.289 -13.597  0.00  0.00    +0.000 A 
ATOM      4  C   UNL     1     -18.029  43.545 -12.631  0.00  0.00    +0.000 A 
ATOM      5  C   UNL     1     -17.812  42.577 -11.657  0.00  0.00    +0.000 A 
ATOM      6  C   UNL     1     -18.550  41.399 -11.680  0.00  0.00    +0.000 A 
ATOM      7  C   UNL     1     -19.486  41.239 -12.688  0.00  0.00    +0.000 A 
ATOM      8  H   UNL     1     -19.884  44.055 -15.273  0.00  0.00    +0.000 HD
ENDROOT
BRANCH   6  11
ATOM      9  O   UNL     1     -18.710  39.194 -10.867  0.00  0.00    +0.000 OA
ATOM     10  N   UNL     1     -17.717  40.735  -9.489  0.00  0.00    +0.000 N 
ATOM     11  C   UNL     1     -18.348  40.370 -10.675  0.00  0.00    +0.000 C 
ATOM     12  H   UNL     1     -17.389  41.664  -9.258  0.00  0.00    +0.000 HD
ATOM     13  H   UNL     1     -17.557  40.033  -8.772  0.00  0.00    +0.000 HD
ENDBRANCH   6  11
BRANCH   1  14
ATOM     14  C   UNL     1     -18.470  45.513 -14.606  0.00  0.00    +0.000 C 
BRANCH  14  15
ATOM     15  C   UNL     1     -18.993  46.401 -15.734  0.00  0.00    +0.000 C 
BRANCH  15  16
ATOM     16  C   UNL     1     -19.680  45.644 -16.875  0.00  0.00    +0.000 C 
BRANCH  16  17
ATOM     17  N   UNL     1     -21.134  45.743 -16.796  0.00  0.00    +0.000 NA
ATOM     18  H   UNL     1     -21.448  46.560 -17.318  0.00  0.00    +0.000 HD
BRANCH  17  19
ATOM     19  C   UNL     1     -21.798  44.532 -17.319  0.00  0.00    +0.000 C 
ATOM     20  C   UNL     1     -22.278  43.471 -16.371  0.00  0.00    +0.000 C 
ATOM     21  C   UNL     1     -21.097  43.206 -17.259  0.00  0.00    +0.000 C 
ENDBRANCH  17  19
ENDBRANCH  16  17
ENDBRANCH  15  16
ENDBRANCH  14  15
ENDBRANCH   1  14
TORSDOF 6
ENDMDL
MODEL 5
REMARK VINA RESULT:    -5.480      3.954      7.421
REMARK INTER + INTRA:          -8.148
REMARK INTER:                  -7.617
REMARK INTRA:                  -0.531
REMARK UNBOUND:                -0.746
REMARK  Name = 43599608
REMARK  6 active torsions:
REMARK  status: ('A' for Active; 'I' for Inactive)
REMARK    1  A    between atoms: N_2  and  C_6
REMARK    2  A    between atoms: N_2  and  C_9
REMARK    3  A    between atoms: N_3  and  C_11
REMARK    4  A    between atoms: C_9  and  C_10
REMARK    5  A    between atoms: C_10  and  C_11
REMARK    6  A    between atoms: C_15  and  C_17
REMARK                            x       y       z     vdW  Elec       q    Type
REMARK                         _______ _______ _______ _____ _____    ______ ____
ROOT
ATOM      1  N   UNL     1     -19.405  41.801 -13.430  0.00  0.00    +0.000 N 
ATOM      2  N   UNL     1     -20.210  42.646 -15.476  0.00  0.00    +0.000 NA
ATOM      3  C   UNL     1     -19.462  42.823 -14.365  0.00  0.00    +0.000 A 
ATOM      4  C   UNL     1     -18.738  43.972 -14.092  0.00  0.00    +0.000 A 
ATOM      5  C   UNL     1     -18.785  45.006 -15.020  0.00  0.00    +0.000 A 
ATOM      6  C   UNL     1     -19.544  44.861 -16.176  0.00  0.00    +0.000 A 
ATOM      7  C   UNL     1     -20.232  43.673 -16.355  0.00  0.00    +0.000 A 
ATOM      8  H   UNL     1     -19.955  40.975 -13.633  0.00  0.00    +0.000 HD
ENDROOT
BRANCH   6  11
ATOM      9  O   UNL     1     -18.955  45.870 -18.222  0.00  0.00    +0.000 OA
ATOM     10  N   UNL     1     -20.453  47.001 -16.904  0.00  0.00    +0.000 N 
ATOM     11  C   UNL     1     -19.612  45.922 -17.165  0.00  0.00    +0.000 C 
ATOM     12  H   UNL     1     -21.022  47.118 -16.075  0.00  0.00    +0.000 HD
ATOM     13  H   UNL     1     -20.524  47.754 -17.582  0.00  0.00    +0.000 HD
ENDBRANCH   6  11
BRANCH   1  14
ATOM     14  C   UNL     1     -18.640  41.874 -12.208  0.00  0.00    +0.000 C 
BRANCH  14  15
ATOM     15  C   UNL     1     -17.960  40.536 -11.915  0.00  0.00    +0.000 C 
BRANCH  15  16
ATOM     16  C   UNL     1     -18.679  39.670 -10.876  0.00  0.00    +0.000 C 
BRANCH  16  17
ATOM     17  N   UNL     1     -19.972  40.231 -10.500  0.00  0.00    +0.000 NA
ATOM     18  H   UNL     1     -20.705  39.808 -11.069  0.00  0.00    +0.000 HD
BRANCH  17  19
ATOM     19  C   UNL     1     -20.270  40.021  -9.068  0.00  0.00    +0.000 C 
ATOM     20  C   UNL     1     -20.645  41.187  -8.202  0.00  0.00    +0.000 C 
ATOM     21  C   UNL     1     -19.314  40.517  -8.023  0.00  0.00    +0.000 C 
ENDBRANCH  17  19
ENDBRANCH  16  17
ENDBRANCH  15  16
ENDBRANCH  14  15
ENDBRANCH   1  14
TORSDOF 6
ENDMDL
