MODEL 1
REMARK VINA RESULT:    -6.492      0.000      0.000
REMARK INTER + INTRA:          -8.456
REMARK INTER:                  -7.820
REMARK INTRA:                  -0.636
REMARK UNBOUND:                -0.636
REMARK  Name = 43599314
REMARK  4 active torsions:
REMARK  status: ('A' for Active; 'I' for Inactive)
REMARK    1  A    between atoms: N_2  and  C_6
REMARK    2  A    between atoms: N_2  and  C_10
REMARK    3  A    between atoms: N_3  and  C_7
REMARK    4  A    between atoms: C_11  and  C_13
REMARK                            x       y       z     vdW  Elec       q    Type
REMARK                         _______ _______ _______ _____ _____    ______ ____
ROOT
ATOM      1  N   UNL     1     -18.538  42.238  -8.302  0.00  0.00    +0.000 NA
ATOM      2  C   UNL     1     -18.438  41.573  -9.474  0.00  0.00    +0.000 A 
ATOM      3  C   UNL     1     -19.375  40.659  -9.930  0.00  0.00    +0.000 A 
ATOM      4  C   UNL     1     -20.486  40.413  -9.130  0.00  0.00    +0.000 A 
ATOM      5  C   UNL     1     -19.632  41.974  -7.552  0.00  0.00    +0.000 A 
ATOM      6  C   UNL     1     -20.624  41.079  -7.917  0.00  0.00    +0.000 A 
ENDROOT
BRANCH   3   9
ATOM      7  O   UNL     1     -18.453  39.001 -11.324  0.00  0.00    +0.000 OA
ATOM      8  N   UNL     1     -20.037  40.372 -12.257  0.00  0.00    +0.000 N 
ATOM      9  C   UNL     1     -19.239  39.954 -11.197  0.00  0.00    +0.000 C 
ATOM     10  H   UNL     1     -20.690  41.144 -12.169  0.00  0.00    +0.000 HD
ATOM     11  H   UNL     1     -19.987  39.912 -13.159  0.00  0.00    +0.000 HD
ENDBRANCH   3   9
BRANCH   2  12
ATOM     12  N   UNL     1     -17.314  41.824 -10.273  0.00  0.00    +0.000 N 
ATOM     13  H   UNL     1     -16.889  40.995 -10.680  0.00  0.00    +0.000 HD
BRANCH  12  14
ATOM     14  C   UNL     1     -16.979  43.047 -10.940  0.00  0.00    +0.000 C 
ATOM     15  C   UNL     1     -16.663  43.795 -12.906  0.00  0.00    +0.000 C 
ATOM     16  C   UNL     1     -17.918  43.353 -12.125  0.00  0.00    +0.000 C 
ATOM     17  C   UNL     1     -15.853  42.865 -11.980  0.00  0.00    +0.000 C 
BRANCH  15  18
ATOM     18  N   UNL     1     -16.360  45.179 -12.575  0.00  0.00    +0.000 NA
ATOM     19  H   UNL     1     -17.052  45.843 -12.921  0.00  0.00    +0.000 HD
ATOM     20  H   UNL     1     -15.461  45.498 -12.937  0.00  0.00    +0.000 HD
ENDBRANCH  15  18
ENDBRANCH  12  14
ENDBRANCH   2  12
TORSDOF 4
ENDMDL
MODEL 2
REMARK VINA RESULT:    -5.611      1.727      4.749
REMARK INTER + INTRA:          -7.395
REMARK INTER:                  -6.770
REMARK INTRA:                  -0.625
REMARK UNBOUND:                -0.636
REMARK  Name = 43599314
REMARK  4 active torsions:
REMARK  status: ('A' for Active; 'I' for Inactive)
REMARK    1  A    between atoms: N_2  and  C_6
REMARK    2  A    between atoms: N_2  and  C_10
REMARK    3  A    between atoms: N_3  and  C_7
REMARK    4  A    between atoms: C_11  and  C_13
REMARK                            x       y       z     vdW  Elec       q    Type
REMARK                         _______ _______ _______ _____ _____    ______ ____
ROOT
ATOM      1  N   UNL     1     -17.509  43.758 -10.776  0.00  0.00    +0.000 NA
ATOM      2  C   UNL     1     -17.435  42.416 -10.915  0.00  0.00    +0.000 A 
ATOM      3  C   UNL     1     -16.990  41.778 -12.062  0.00  0.00    +0.000 A 
ATOM      4  C   UNL     1     -16.595  42.570 -13.135  0.00  0.00    +0.000 A 
ATOM      5  C   UNL     1     -17.116  44.495 -11.840  0.00  0.00    +0.000 A 
ATOM      6  C   UNL     1     -16.657  43.955 -13.029  0.00  0.00    +0.000 A 
ENDROOT
BRANCH   3   9
ATOM      7  O   UNL     1     -16.068  39.667 -11.573  0.00  0.00    +0.000 OA
ATOM      8  N   UNL     1     -17.867  39.705 -12.994  0.00  0.00    +0.000 N 
ATOM      9  C   UNL     1     -16.924  40.328 -12.184  0.00  0.00    +0.000 C 
ATOM     10  H   UNL     1     -18.579  40.229 -13.495  0.00  0.00    +0.000 HD
ATOM     11  H   UNL     1     -17.872  38.698 -13.109  0.00  0.00    +0.000 HD
ENDBRANCH   3   9
BRANCH   2  12
ATOM     12  N   UNL     1     -17.837  41.625  -9.830  0.00  0.00    +0.000 N 
ATOM     13  H   UNL     1     -17.106  41.436  -9.149  0.00  0.00    +0.000 HD
BRANCH  12  14
ATOM     14  C   UNL     1     -19.169  41.447  -9.332  0.00  0.00    +0.000 C 
ATOM     15  C   UNL     1     -20.399  39.936  -8.479  0.00  0.00    +0.000 C 
ATOM     16  C   UNL     1     -19.200  40.753  -7.955  0.00  0.00    +0.000 C 
ATOM     17  C   UNL     1     -19.849  40.183  -9.899  0.00  0.00    +0.000 C 
BRANCH  15  18
ATOM     18  N   UNL     1     -21.617  40.712  -8.299  0.00  0.00    +0.000 NA
ATOM     19  H   UNL     1     -22.460  40.141  -8.236  0.00  0.00    +0.000 HD
ATOM     20  H   UNL     1     -21.790  41.382  -9.048  0.00  0.00    +0.000 HD
ENDBRANCH  15  18
ENDBRANCH  12  14
ENDBRANCH   2  12
TORSDOF 4
ENDMDL
MODEL 3
REMARK VINA RESULT:    -5.599      3.173      6.150
REMARK INTER + INTRA:          -7.381
REMARK INTER:                  -6.863
REMARK INTRA:                  -0.518
REMARK UNBOUND:                -0.636
REMARK  Name = 43599314
REMARK  4 active torsions:
REMARK  status: ('A' for Active; 'I' for Inactive)
REMARK    1  A    between atoms: N_2  and  C_6
REMARK    2  A    between atoms: N_2  and  C_10
REMARK    3  A    between atoms: N_3  and  C_7
REMARK    4  A    between atoms: C_11  and  C_13
REMARK                            x       y       z     vdW  Elec       q    Type
REMARK                         _______ _______ _______ _____ _____    ______ ____
ROOT
ATOM      1  N   UNL     1     -20.267  42.613 -14.924  0.00  0.00    +0.000 NA
ATOM      2  C   UNL     1     -19.292  43.147 -14.155  0.00  0.00    +0.000 A 
ATOM      3  C   UNL     1     -18.636  44.333 -14.445  0.00  0.00    +0.000 A 
ATOM      4  C   UNL     1     -19.006  45.014 -15.600  0.00  0.00    +0.000 A 
ATOM      5  C   UNL     1     -20.600  43.304 -16.038  0.00  0.00    +0.000 A 
ATOM      6  C   UNL     1     -20.005  44.496 -16.416  0.00  0.00    +0.000 A 
ENDROOT
BRANCH   3   9
ATOM      7  O   UNL     1     -17.842  45.362 -12.482  0.00  0.00    +0.000 OA
ATOM      8  N   UNL     1     -16.281  44.834 -14.076  0.00  0.00    +0.000 N 
ATOM      9  C   UNL     1     -17.586  44.883 -13.599  0.00  0.00    +0.000 C 
ATOM     10  H   UNL     1     -16.052  44.438 -14.983  0.00  0.00    +0.000 HD
ATOM     11  H   UNL     1     -15.510  45.196 -13.525  0.00  0.00    +0.000 HD
ENDBRANCH   3   9
BRANCH   2  12
ATOM     12  N   UNL     1     -18.923  42.453 -12.994  0.00  0.00    +0.000 N 
ATOM     13  H   UNL     1     -18.660  43.046 -12.211  0.00  0.00    +0.000 HD
BRANCH  12  14
ATOM     14  C   UNL     1     -19.293  41.119 -12.626  0.00  0.00    +0.000 C 
ATOM     15  C   UNL     1     -18.613  39.521 -11.399  0.00  0.00    +0.000 C 
ATOM     16  C   UNL     1     -19.255  40.891 -11.101  0.00  0.00    +0.000 C 
ATOM     17  C   UNL     1     -18.113  40.128 -12.725  0.00  0.00    +0.000 C 
BRANCH  15  18
ATOM     18  N   UNL     1     -19.662  38.554 -11.683  0.00  0.00    +0.000 NA
ATOM     19  H   UNL     1     -20.334  38.444 -10.923  0.00  0.00    +0.000 HD
ATOM     20  H   UNL     1     -19.313  37.617 -11.884  0.00  0.00    +0.000 HD
ENDBRANCH  15  18
ENDBRANCH  12  14
ENDBRANCH   2  12
TORSDOF 4
ENDMDL
MODEL 4
REMARK VINA RESULT:    -5.507      1.689      4.673
REMARK INTER + INTRA:          -7.270
REMARK INTER:                  -6.676
REMARK INTRA:                  -0.594
REMARK UNBOUND:                -0.636
REMARK  Name = 43599314
REMARK  4 active torsions:
REMARK  status: ('A' for Active; 'I' for Inactive)
REMARK    1  A    between atoms: N_2  and  C_6
REMARK    2  A    between atoms: N_2  and  C_10
REMARK    3  A    between atoms: N_3  and  C_7
REMARK    4  A    between atoms: C_11  and  C_13
REMARK                            x       y       z     vdW  Elec       q    Type
REMARK                         _______ _______ _______ _____ _____    ______ ____
ROOT
ATOM      1  N   UNL     1     -15.745  42.594 -11.298  0.00  0.00    +0.000 NA
ATOM      2  C   UNL     1     -16.800  41.932 -11.823  0.00  0.00    +0.000 A 
ATOM      3  C   UNL     1     -17.562  42.399 -12.881  0.00  0.00    +0.000 A 
ATOM      4  C   UNL     1     -17.219  43.627 -13.437  0.00  0.00    +0.000 A 
ATOM      5  C   UNL     1     -15.441  43.784 -11.865  0.00  0.00    +0.000 A 
ATOM      6  C   UNL     1     -16.140  44.339 -12.925  0.00  0.00    +0.000 A 
ENDROOT
BRANCH   3   9
ATOM      7  O   UNL     1     -18.650  40.432 -13.583  0.00  0.00    +0.000 OA
ATOM      8  N   UNL     1     -19.842  42.385 -13.740  0.00  0.00    +0.000 N 
ATOM      9  C   UNL     1     -18.696  41.664 -13.424  0.00  0.00    +0.000 C 
ATOM     10  H   UNL     1     -19.900  43.391 -13.609  0.00  0.00    +0.000 HD
ATOM     11  H   UNL     1     -20.663  41.923 -14.114  0.00  0.00    +0.000 HD
ENDBRANCH   3   9
BRANCH   2  12
ATOM     12  N   UNL     1     -17.141  40.696 -11.256  0.00  0.00    +0.000 N 
ATOM     13  H   UNL     1     -16.599  39.907 -11.600  0.00  0.00    +0.000 HD
BRANCH  12  14
ATOM     14  C   UNL     1     -17.780  40.467  -9.995  0.00  0.00    +0.000 C 
ATOM     15  C   UNL     1     -19.601  40.912  -8.988  0.00  0.00    +0.000 C 
ATOM     16  C   UNL     1     -19.231  39.964 -10.147  0.00  0.00    +0.000 C 
ATOM     17  C   UNL     1     -18.373  41.756  -9.389  0.00  0.00    +0.000 C 
BRANCH  15  18
ATOM     18  N   UNL     1     -19.329  40.246  -7.724  0.00  0.00    +0.000 NA
ATOM     19  H   UNL     1     -18.775  40.807  -7.077  0.00  0.00    +0.000 HD
ATOM     20  H   UNL     1     -18.828  39.363  -7.825  0.00  0.00    +0.000 HD
ENDBRANCH  15  18
ENDBRANCH  12  14
ENDBRANCH   2  12
TORSDOF 4
ENDMDL
MODEL 5
REMARK VINA RESULT:    -5.411      2.907      3.820
REMARK INTER + INTRA:          -7.155
REMARK INTER:                  -6.447
REMARK INTRA:                  -0.708
REMARK UNBOUND:                -0.636
REMARK  Name = 43599314
REMARK  4 active torsions:
REMARK  status: ('A' for Active; 'I' for Inactive)
REMARK    1  A    between atoms: N_2  and  C_6
REMARK    2  A    between atoms: N_2  and  C_10
REMARK    3  A    between atoms: N_3  and  C_7
REMARK    4  A    between atoms: C_11  and  C_13
REMARK                            x       y       z     vdW  Elec       q    Type
REMARK                         _______ _______ _______ _____ _____    ______ ____
ROOT
ATOM      1  N   UNL     1     -19.117  41.156 -13.136  0.00  0.00    +0.000 NA
ATOM      2  C   UNL     1     -17.901  41.630 -12.786  0.00  0.00    +0.000 A 
ATOM      3  C   UNL     1     -17.155  41.146 -11.723  0.00  0.00    +0.000 A 
ATOM      4  C   UNL     1     -17.693  40.107 -10.971  0.00  0.00    +0.000 A 
ATOM      5  C   UNL     1     -19.608  40.146 -12.382  0.00  0.00    +0.000 A 
ATOM      6  C   UNL     1     -18.942  39.592 -11.300  0.00  0.00    +0.000 A 
ENDROOT
BRANCH   3   9
ATOM      7  O   UNL     1     -15.662  42.901 -11.240  0.00  0.00    +0.000 OA
ATOM      8  N   UNL     1     -14.816  40.771 -11.156  0.00  0.00    +0.000 N 
ATOM      9  C   UNL     1     -15.848  41.680 -11.368  0.00  0.00    +0.000 C 
ATOM     10  H   UNL     1     -14.951  39.769 -11.249  0.00  0.00    +0.000 HD
ATOM     11  H   UNL     1     -13.887  41.088 -10.900  0.00  0.00    +0.000 HD
ENDBRANCH   3   9
BRANCH   2  12
ATOM     12  N   UNL     1     -17.367  42.679 -13.547  0.00  0.00    +0.000 N 
ATOM     13  H   UNL     1     -16.706  42.389 -14.264  0.00  0.00    +0.000 HD
BRANCH  12  14
ATOM     14  C   UNL     1     -17.938  43.975 -13.761  0.00  0.00    +0.000 C 
ATOM     15  C   UNL     1     -17.803  45.959 -13.006  0.00  0.00    +0.000 C 
ATOM     16  C   UNL     1     -16.872  45.084 -13.870  0.00  0.00    +0.000 C 
ATOM     17  C   UNL     1     -18.391  44.647 -12.447  0.00  0.00    +0.000 C 
BRANCH  15  18
ATOM     18  N   UNL     1     -18.790  46.596 -13.864  0.00  0.00    +0.000 NA
ATOM     19  H   UNL     1     -19.650  46.852 -13.380  0.00  0.00    +0.000 HD
ATOM     20  H   UNL     1     -19.077  46.020 -14.656  0.00  0.00    +0.000 HD
ENDBRANCH  15  18
ENDBRANCH  12  14
ENDBRANCH   2  12
TORSDOF 4
ENDMDL
