MODEL 1
REMARK VINA RESULT:    -7.917      0.000      0.000
REMARK INTER + INTRA:          -9.154
REMARK INTER:                  -9.074
REMARK INTRA:                  -0.080
REMARK UNBOUND:                -0.080
REMARK  Name = 43599315
REMARK  3 active torsions:
REMARK  status: ('A' for Active; 'I' for Inactive)
REMARK    1  A    between atoms: N_2  and  C_6
REMARK    2  A    between atoms: N_3  and  C_7
REMARK    3  A    between atoms: C_13  and  C_15
REMARK                            x       y       z     vdW  Elec       q    Type
REMARK                         _______ _______ _______ _____ _____    ______ ____
ROOT
ATOM      1  N   UNL     1     -17.763  40.973  -9.448  0.00  0.00    +0.000 N 
ATOM      2  N   UNL     1     -18.852  42.127  -7.689  0.00  0.00    +0.000 NA
ATOM      3  C   UNL     1     -18.922  41.242  -8.708  0.00  0.00    +0.000 A 
ATOM      4  C   UNL     1     -20.079  40.571  -9.074  0.00  0.00    +0.000 A 
ATOM      5  C   UNL     1     -21.237  40.826  -8.348  0.00  0.00    +0.000 A 
ATOM      6  C   UNL     1     -21.203  41.731  -7.293  0.00  0.00    +0.000 A 
ATOM      7  C   UNL     1     -19.997  42.350  -7.006  0.00  0.00    +0.000 A 
ATOM      8  H   UNL     1     -16.947  41.508  -9.166  0.00  0.00    +0.000 HD
ENDROOT
BRANCH   6  11
ATOM      9  O   UNL     1     -23.391  41.272  -6.553  0.00  0.00    +0.000 OA
ATOM     10  N   UNL     1     -22.387  43.151  -5.705  0.00  0.00    +0.000 N 
ATOM     11  C   UNL     1     -22.396  42.017  -6.515  0.00  0.00    +0.000 C 
ATOM     12  H   UNL     1     -21.619  43.803  -5.614  0.00  0.00    +0.000 HD
ATOM     13  H   UNL     1     -23.204  43.370  -5.145  0.00  0.00    +0.000 HD
ENDBRANCH   6  11
BRANCH   1  14
ATOM     14  C   UNL     1     -17.628  40.068 -10.551  0.00  0.00    +0.000 C 
ATOM     15  C   UNL     1     -16.954  41.296 -12.152  0.00  0.00    +0.000 C 
ATOM     16  C   UNL     1     -16.277  40.218 -11.280  0.00  0.00    +0.000 C 
ATOM     17  C   UNL     1     -18.294  40.599 -11.838  0.00  0.00    +0.000 C 
BRANCH  15  18
ATOM     18  N   UNL     1     -16.611  41.063 -13.547  0.00  0.00    +0.000 NA
ATOM     19  H   UNL     1     -15.768  40.505 -13.673  0.00  0.00    +0.000 HD
ATOM     20  H   UNL     1     -16.463  41.919 -14.080  0.00  0.00    +0.000 HD
ENDBRANCH  15  18
ENDBRANCH   1  14
TORSDOF 3
ENDMDL
MODEL 2
REMARK VINA RESULT:    -7.018      2.806      6.532
REMARK INTER + INTRA:          -8.123
REMARK INTER:                  -7.857
REMARK INTRA:                  -0.266
REMARK UNBOUND:                -0.080
REMARK  Name = 43599315
REMARK  3 active torsions:
REMARK  status: ('A' for Active; 'I' for Inactive)
REMARK    1  A    between atoms: N_2  and  C_6
REMARK    2  A    between atoms: N_3  and  C_7
REMARK    3  A    between atoms: C_13  and  C_15
REMARK                            x       y       z     vdW  Elec       q    Type
REMARK                         _______ _______ _______ _____ _____    ______ ____
ROOT
ATOM      1  N   UNL     1     -20.494  40.734  -8.187  0.00  0.00    +0.000 N 
ATOM      2  N   UNL     1     -19.881  39.636 -10.194  0.00  0.00    +0.000 NA
ATOM      3  C   UNL     1     -19.555  40.489  -9.198  0.00  0.00    +0.000 A 
ATOM      4  C   UNL     1     -18.338  41.147  -9.108  0.00  0.00    +0.000 A 
ATOM      5  C   UNL     1     -17.396  40.913 -10.103  0.00  0.00    +0.000 A 
ATOM      6  C   UNL     1     -17.696  40.042 -11.145  0.00  0.00    +0.000 A 
ATOM      7  C   UNL     1     -18.941  39.434 -11.145  0.00  0.00    +0.000 A 
ATOM      8  H   UNL     1     -21.381  40.256  -8.308  0.00  0.00    +0.000 HD
ENDROOT
BRANCH   6  11
ATOM      9  O   UNL     1     -17.081  39.682 -13.390  0.00  0.00    +0.000 OA
ATOM     10  N   UNL     1     -15.393  39.646 -11.837  0.00  0.00    +0.000 N 
ATOM     11  C   UNL     1     -16.733  39.776 -12.199  0.00  0.00    +0.000 C 
ATOM     12  H   UNL     1     -15.029  39.714 -10.897  0.00  0.00    +0.000 HD
ATOM     13  H   UNL     1     -14.698  39.467 -12.555  0.00  0.00    +0.000 HD
ENDBRANCH   6  11
BRANCH   1  14
ATOM     14  C   UNL     1     -20.338  41.591  -7.048  0.00  0.00    +0.000 C 
ATOM     15  C   UNL     1     -22.327  42.167  -6.557  0.00  0.00    +0.000 C 
ATOM     16  C   UNL     1     -21.297  41.226  -5.896  0.00  0.00    +0.000 C 
ATOM     17  C   UNL     1     -21.129  42.909  -7.187  0.00  0.00    +0.000 C 
BRANCH  15  18
ATOM     18  N   UNL     1     -22.924  43.011  -5.533  0.00  0.00    +0.000 NA
ATOM     19  H   UNL     1     -22.987  43.993  -5.799  0.00  0.00    +0.000 HD
ATOM     20  H   UNL     1     -22.423  42.993  -4.646  0.00  0.00    +0.000 HD
ENDBRANCH  15  18
ENDBRANCH   1  14
TORSDOF 3
ENDMDL
MODEL 3
REMARK VINA RESULT:    -6.120      4.803      6.572
REMARK INTER + INTRA:          -7.095
REMARK INTER:                  -6.841
REMARK INTRA:                  -0.254
REMARK UNBOUND:                -0.080
REMARK  Name = 43599315
REMARK  3 active torsions:
REMARK  status: ('A' for Active; 'I' for Inactive)
REMARK    1  A    between atoms: N_2  and  C_6
REMARK    2  A    between atoms: N_3  and  C_7
REMARK    3  A    between atoms: C_13  and  C_15
REMARK                            x       y       z     vdW  Elec       q    Type
REMARK                         _______ _______ _______ _____ _____    ______ ____
ROOT
ATOM      1  N   UNL     1     -20.183  42.679 -15.333  0.00  0.00    +0.000 N 
ATOM      2  N   UNL     1     -19.820  41.405 -13.369  0.00  0.00    +0.000 NA
ATOM      3  C   UNL     1     -19.568  42.525 -14.083  0.00  0.00    +0.000 A 
ATOM      4  C   UNL     1     -18.732  43.545 -13.656  0.00  0.00    +0.000 A 
ATOM      5  C   UNL     1     -18.116  43.407 -12.417  0.00  0.00    +0.000 A 
ATOM      6  C   UNL     1     -18.350  42.268 -11.654  0.00  0.00    +0.000 A 
ATOM      7  C   UNL     1     -19.203  41.305 -12.170  0.00  0.00    +0.000 A 
ATOM      8  H   UNL     1     -20.761  41.896 -15.619  0.00  0.00    +0.000 HD
ENDROOT
BRANCH   6  11
ATOM      9  O   UNL     1     -17.776  42.982  -9.485  0.00  0.00    +0.000 OA
ATOM     10  N   UNL     1     -17.069  40.890 -10.105  0.00  0.00    +0.000 N 
ATOM     11  C   UNL     1     -17.723  42.095 -10.356  0.00  0.00    +0.000 C 
ATOM     12  H   UNL     1     -16.986  40.120 -10.755  0.00  0.00    +0.000 HD
ATOM     13  H   UNL     1     -16.628  40.741  -9.204  0.00  0.00    +0.000 HD
ENDBRANCH   6  11
BRANCH   1  14
ATOM     14  C   UNL     1     -20.053  43.788 -16.232  0.00  0.00    +0.000 C 
ATOM     15  C   UNL     1     -21.166  43.199 -17.947  0.00  0.00    +0.000 C 
ATOM     16  C   UNL     1     -21.406  44.231 -16.825  0.00  0.00    +0.000 C 
ATOM     17  C   UNL     1     -19.658  43.352 -17.658  0.00  0.00    +0.000 C 
BRANCH  15  18
ATOM     18  N   UNL     1     -21.469  43.813 -19.231  0.00  0.00    +0.000 NA
ATOM     19  H   UNL     1     -21.558  43.143 -19.993  0.00  0.00    +0.000 HD
ATOM     20  H   UNL     1     -20.771  44.491 -19.534  0.00  0.00    +0.000 HD
ENDBRANCH  15  18
ENDBRANCH   1  14
TORSDOF 3
ENDMDL
MODEL 4
REMARK VINA RESULT:    -5.560      4.950      7.265
REMARK INTER + INTRA:          -6.453
REMARK INTER:                  -6.196
REMARK INTRA:                  -0.257
REMARK UNBOUND:                -0.080
REMARK  Name = 43599315
REMARK  3 active torsions:
REMARK  status: ('A' for Active; 'I' for Inactive)
REMARK    1  A    between atoms: N_2  and  C_6
REMARK    2  A    between atoms: N_3  and  C_7
REMARK    3  A    between atoms: C_13  and  C_15
REMARK                            x       y       z     vdW  Elec       q    Type
REMARK                         _______ _______ _______ _____ _____    ______ ____
ROOT
ATOM      1  N   UNL     1     -18.290  41.681 -12.813  0.00  0.00    +0.000 N 
ATOM      2  N   UNL     1     -19.563  42.358 -14.692  0.00  0.00    +0.000 NA
ATOM      3  C   UNL     1     -18.649  42.664 -13.745  0.00  0.00    +0.000 A 
ATOM      4  C   UNL     1     -18.033  43.901 -13.632  0.00  0.00    +0.000 A 
ATOM      5  C   UNL     1     -18.378  44.886 -14.551  0.00  0.00    +0.000 A 
ATOM      6  C   UNL     1     -19.316  44.609 -15.539  0.00  0.00    +0.000 A 
ATOM      7  C   UNL     1     -19.874  43.341 -15.567  0.00  0.00    +0.000 A 
ATOM      8  H   UNL     1     -18.786  40.801 -12.914  0.00  0.00    +0.000 HD
ENDROOT
BRANCH   6  11
ATOM      9  O   UNL     1     -18.845  46.322 -17.085  0.00  0.00    +0.000 OA
ATOM     10  N   UNL     1     -21.051  45.759 -16.807  0.00  0.00    +0.000 N 
ATOM     11  C   UNL     1     -19.696  45.616 -16.513  0.00  0.00    +0.000 C 
ATOM     12  H   UNL     1     -21.801  45.222 -16.393  0.00  0.00    +0.000 HD
ATOM     13  H   UNL     1     -21.343  46.450 -17.489  0.00  0.00    +0.000 HD
ENDBRANCH   6  11
BRANCH   1  14
ATOM     14  C   UNL     1     -17.340  41.803 -11.746  0.00  0.00    +0.000 C 
ATOM     15  C   UNL     1     -18.194  40.671 -10.160  0.00  0.00    +0.000 C 
ATOM     16  C   UNL     1     -16.994  40.444 -11.103  0.00  0.00    +0.000 C 
ATOM     17  C   UNL     1     -18.003  42.182 -10.405  0.00  0.00    +0.000 C 
BRANCH  15  18
ATOM     18  N   UNL     1     -17.794  40.355  -8.797  0.00  0.00    +0.000 NA
ATOM     19  H   UNL     1     -16.791  40.210  -8.689  0.00  0.00    +0.000 HD
ATOM     20  H   UNL     1     -18.240  39.518  -8.424  0.00  0.00    +0.000 HD
ENDBRANCH  15  18
ENDBRANCH   1  14
TORSDOF 3
ENDMDL
MODEL 5
REMARK VINA RESULT:    -5.473      4.804      6.481
REMARK INTER + INTRA:          -6.353
REMARK INTER:                  -6.088
REMARK INTRA:                  -0.264
REMARK UNBOUND:                -0.080
REMARK  Name = 43599315
REMARK  3 active torsions:
REMARK  status: ('A' for Active; 'I' for Inactive)
REMARK    1  A    between atoms: N_2  and  C_6
REMARK    2  A    between atoms: N_3  and  C_7
REMARK    3  A    between atoms: C_13  and  C_15
REMARK                            x       y       z     vdW  Elec       q    Type
REMARK                         _______ _______ _______ _____ _____    ______ ____
ROOT
ATOM      1  N   UNL     1     -18.201  42.394 -12.908  0.00  0.00    +0.000 N 
ATOM      2  N   UNL     1     -18.388  44.527 -13.921  0.00  0.00    +0.000 NA
ATOM      3  C   UNL     1     -18.090  43.789 -12.829  0.00  0.00    +0.000 A 
ATOM      4  C   UNL     1     -17.677  44.325 -11.619  0.00  0.00    +0.000 A 
ATOM      5  C   UNL     1     -17.562  45.707 -11.525  0.00  0.00    +0.000 A 
ATOM      6  C   UNL     1     -17.860  46.500 -12.628  0.00  0.00    +0.000 A 
ATOM      7  C   UNL     1     -18.265  45.868 -13.792  0.00  0.00    +0.000 A 
ATOM      8  H   UNL     1     -18.535  42.046 -13.801  0.00  0.00    +0.000 HD
ENDROOT
BRANCH   6  11
ATOM      9  O   UNL     1     -18.744  48.682 -12.681  0.00  0.00    +0.000 OA
ATOM     10  N   UNL     1     -16.485  48.491 -12.342  0.00  0.00    +0.000 N 
ATOM     11  C   UNL     1     -17.748  47.947 -12.562  0.00  0.00    +0.000 C 
ATOM     12  H   UNL     1     -15.629  47.965 -12.229  0.00  0.00    +0.000 HD
ATOM     13  H   UNL     1     -16.379  49.499 -12.284  0.00  0.00    +0.000 HD
ENDBRANCH   6  11
BRANCH   1  14
ATOM     14  C   UNL     1     -17.924  41.442 -11.873  0.00  0.00    +0.000 C 
ATOM     15  C   UNL     1     -19.263  39.837 -12.273  0.00  0.00    +0.000 C 
ATOM     16  C   UNL     1     -17.736  40.011 -12.418  0.00  0.00    +0.000 C 
ATOM     17  C   UNL     1     -19.205  40.928 -11.184  0.00  0.00    +0.000 C 
BRANCH  15  18
ATOM     18  N   UNL     1     -19.537  38.553 -11.646  0.00  0.00    +0.000 NA
ATOM     19  H   UNL     1     -19.201  38.487 -10.686  0.00  0.00    +0.000 HD
ATOM     20  H   UNL     1     -19.127  37.761 -12.141  0.00  0.00    +0.000 HD
ENDBRANCH  15  18
ENDBRANCH   1  14
TORSDOF 3
ENDMDL
