MODEL 1
REMARK VINA RESULT:    -6.165      0.000      0.000
REMARK INTER + INTRA:          -6.755
REMARK INTER:                  -6.706
REMARK INTRA:                  -0.049
REMARK UNBOUND:                -0.049
REMARK  Name = 44122614
REMARK  2 active torsions:
REMARK  status: ('A' for Active; 'I' for Inactive)
REMARK    1  A    between atoms: N_4  and  C_9
REMARK    2  A    between atoms: C_6  and  C_11
REMARK                            x       y       z     vdW  Elec       q    Type
REMARK                         _______ _______ _______ _____ _____    ______ ____
ROOT
ATOM      1 BR   UNL     1     -23.175  40.917  -7.288  0.00  0.00    +0.000 Br
ATOM      2  N   UNL     1     -19.221  42.253  -7.349  0.00  0.00    +0.000 NA
ATOM      3  C   UNL     1     -19.501  40.719  -9.196  0.00  0.00    +0.000 A 
ATOM      4  C   UNL     1     -20.832  40.526  -8.845  0.00  0.00    +0.000 A 
ATOM      5  C   UNL     1     -21.359  41.197  -7.746  0.00  0.00    +0.000 A 
ATOM      6  C   UNL     1     -20.519  42.041  -7.037  0.00  0.00    +0.000 A 
ATOM      7  C   UNL     1     -18.743  41.584  -8.423  0.00  0.00    +0.000 A 
ENDROOT
BRANCH   3  10
ATOM      8  O   UNL     1     -17.695  40.056 -10.556  0.00  0.00    +0.000 OA
ATOM      9  N   UNL     1     -19.780  39.329 -11.179  0.00  0.00    +0.000 N 
ATOM     10  C   UNL     1     -18.921  40.034 -10.338  0.00  0.00    +0.000 C 
ATOM     11  H   UNL     1     -20.784  39.259 -11.068  0.00  0.00    +0.000 HD
ATOM     12  H   UNL     1     -19.400  38.836 -11.980  0.00  0.00    +0.000 HD
ENDBRANCH   3  10
BRANCH   6  13
ATOM     13  N   UNL     1     -21.033  42.735  -5.914  0.00  0.00    +0.000 N 
ATOM     14  H   UNL     1     -20.784  42.403  -4.991  0.00  0.00    +0.000 HD
ATOM     15  H   UNL     1     -21.917  43.214  -6.033  0.00  0.00    +0.000 HD
ENDBRANCH   6  13
TORSDOF 2
ENDMDL
MODEL 2
REMARK VINA RESULT:    -5.978      2.853      4.173
REMARK INTER + INTRA:          -6.551
REMARK INTER:                  -6.503
REMARK INTRA:                  -0.048
REMARK UNBOUND:                -0.049
REMARK  Name = 44122614
REMARK  2 active torsions:
REMARK  status: ('A' for Active; 'I' for Inactive)
REMARK    1  A    between atoms: N_4  and  C_9
REMARK    2  A    between atoms: C_6  and  C_11
REMARK                            x       y       z     vdW  Elec       q    Type
REMARK                         _______ _______ _______ _____ _____    ______ ____
ROOT
ATOM      1 BR   UNL     1     -19.515  39.328 -11.106  0.00  0.00    +0.000 Br
ATOM      2  N   UNL     1     -18.743  41.880  -7.895  0.00  0.00    +0.000 NA
ATOM      3  C   UNL     1     -21.105  41.365  -7.866  0.00  0.00    +0.000 A 
ATOM      4  C   UNL     1     -20.952  40.566  -8.993  0.00  0.00    +0.000 A 
ATOM      5  C   UNL     1     -19.696  40.423  -9.572  0.00  0.00    +0.000 A 
ATOM      6  C   UNL     1     -18.633  41.095  -8.990  0.00  0.00    +0.000 A 
ATOM      7  C   UNL     1     -19.980  41.996  -7.360  0.00  0.00    +0.000 A 
ENDROOT
BRANCH   3  10
ATOM      8  O   UNL     1     -23.353  40.770  -7.490  0.00  0.00    +0.000 OA
ATOM      9  N   UNL     1     -22.553  42.577  -6.325  0.00  0.00    +0.000 N 
ATOM     10  C   UNL     1     -22.404  41.535  -7.238  0.00  0.00    +0.000 C 
ATOM     11  H   UNL     1     -21.832  43.237  -6.064  0.00  0.00    +0.000 HD
ATOM     12  H   UNL     1     -23.448  42.713  -5.867  0.00  0.00    +0.000 HD
ENDBRANCH   3  10
BRANCH   6  13
ATOM     13  N   UNL     1     -17.343  40.964  -9.562  0.00  0.00    +0.000 N 
ATOM     14  H   UNL     1     -16.863  41.805  -9.857  0.00  0.00    +0.000 HD
ATOM     15  H   UNL     1     -17.137  40.097 -10.041  0.00  0.00    +0.000 HD
ENDBRANCH   6  13
TORSDOF 2
ENDMDL
MODEL 3
REMARK VINA RESULT:    -5.614      2.486      3.438
REMARK INTER + INTRA:          -6.155
REMARK INTER:                  -6.117
REMARK INTRA:                  -0.038
REMARK UNBOUND:                -0.049
REMARK  Name = 44122614
REMARK  2 active torsions:
REMARK  status: ('A' for Active; 'I' for Inactive)
REMARK    1  A    between atoms: N_4  and  C_9
REMARK    2  A    between atoms: C_6  and  C_11
REMARK                            x       y       z     vdW  Elec       q    Type
REMARK                         _______ _______ _______ _____ _____    ______ ____
ROOT
ATOM      1 BR   UNL     1     -19.820  42.041  -7.246  0.00  0.00    +0.000 Br
ATOM      2  N   UNL     1     -19.452  39.469 -10.515  0.00  0.00    +0.000 NA
ATOM      3  C   UNL     1     -17.583  41.003 -10.578  0.00  0.00    +0.000 A 
ATOM      4  C   UNL     1     -18.046  41.627  -9.425  0.00  0.00    +0.000 A 
ATOM      5  C   UNL     1     -19.211  41.173  -8.816  0.00  0.00    +0.000 A 
ATOM      6  C   UNL     1     -19.871  40.101  -9.395  0.00  0.00    +0.000 A 
ATOM      7  C   UNL     1     -18.315  39.938 -11.079  0.00  0.00    +0.000 A 
ENDROOT
BRANCH   3  10
ATOM      8  O   UNL     1     -16.319  42.546 -11.831  0.00  0.00    +0.000 OA
ATOM      9  N   UNL     1     -15.250  40.627 -11.173  0.00  0.00    +0.000 N 
ATOM     10  C   UNL     1     -16.370  41.453 -11.238  0.00  0.00    +0.000 C 
ATOM     11  H   UNL     1     -15.208  39.728 -10.709  0.00  0.00    +0.000 HD
ATOM     12  H   UNL     1     -14.388  40.921 -11.620  0.00  0.00    +0.000 HD
ENDBRANCH   3  10
BRANCH   6  13
ATOM     13  N   UNL     1     -21.060  39.622  -8.792  0.00  0.00    +0.000 N 
ATOM     14  H   UNL     1     -21.571  40.245  -8.179  0.00  0.00    +0.000 HD
ATOM     15  H   UNL     1     -21.126  38.624  -8.631  0.00  0.00    +0.000 HD
ENDBRANCH   6  13
TORSDOF 2
ENDMDL
MODEL 4
REMARK VINA RESULT:    -5.132      4.054      5.579
REMARK INTER + INTRA:          -5.631
REMARK INTER:                  -5.583
REMARK INTRA:                  -0.049
REMARK UNBOUND:                -0.049
REMARK  Name = 44122614
REMARK  2 active torsions:
REMARK  status: ('A' for Active; 'I' for Inactive)
REMARK    1  A    between atoms: N_4  and  C_9
REMARK    2  A    between atoms: C_6  and  C_11
REMARK                            x       y       z     vdW  Elec       q    Type
REMARK                         _______ _______ _______ _____ _____    ______ ____
ROOT
ATOM      1 BR   UNL     1     -16.269  44.026 -12.716  0.00  0.00    +0.000 Br
ATOM      2  N   UNL     1     -19.616  41.595 -13.274  0.00  0.00    +0.000 NA
ATOM      3  C   UNL     1     -18.771  41.173 -11.049  0.00  0.00    +0.000 A 
ATOM      4  C   UNL     1     -17.752  42.097 -11.252  0.00  0.00    +0.000 A 
ATOM      5  C   UNL     1     -17.666  42.771 -12.465  0.00  0.00    +0.000 A 
ATOM      6  C   UNL     1     -18.613  42.487 -13.435  0.00  0.00    +0.000 A 
ATOM      7  C   UNL     1     -19.669  40.959 -12.082  0.00  0.00    +0.000 A 
ENDROOT
BRANCH   3  10
ATOM      8  O   UNL     1     -19.903  39.782  -9.521  0.00  0.00    +0.000 OA
ATOM      9  N   UNL     1     -17.819  40.516  -8.903  0.00  0.00    +0.000 N 
ATOM     10  C   UNL     1     -18.889  40.452  -9.794  0.00  0.00    +0.000 C 
ATOM     11  H   UNL     1     -16.961  41.032  -9.051  0.00  0.00    +0.000 HD
ATOM     12  H   UNL     1     -17.873  40.016  -8.022  0.00  0.00    +0.000 HD
ENDBRANCH   3  10
BRANCH   6  13
ATOM     13  N   UNL     1     -18.544  43.162 -14.679  0.00  0.00    +0.000 N 
ATOM     14  H   UNL     1     -19.102  42.809 -15.447  0.00  0.00    +0.000 HD
ATOM     15  H   UNL     1     -17.683  43.650 -14.892  0.00  0.00    +0.000 HD
ENDBRANCH   6  13
TORSDOF 2
ENDMDL
MODEL 5
REMARK VINA RESULT:    -5.118      3.851      4.888
REMARK INTER + INTRA:          -5.615
REMARK INTER:                  -5.578
REMARK INTRA:                  -0.037
REMARK UNBOUND:                -0.049
REMARK  Name = 44122614
REMARK  2 active torsions:
REMARK  status: ('A' for Active; 'I' for Inactive)
REMARK    1  A    between atoms: N_4  and  C_9
REMARK    2  A    between atoms: C_6  and  C_11
REMARK                            x       y       z     vdW  Elec       q    Type
REMARK                         _______ _______ _______ _____ _____    ______ ____
ROOT
ATOM      1 BR   UNL     1     -20.023  40.330  -9.095  0.00  0.00    +0.000 Br
ATOM      2  N   UNL     1     -17.986  39.799 -12.701  0.00  0.00    +0.000 NA
ATOM      3  C   UNL     1     -16.875  41.572 -11.489  0.00  0.00    +0.000 A 
ATOM      4  C   UNL     1     -17.786  41.441 -10.446  0.00  0.00    +0.000 A 
ATOM      5  C   UNL     1     -18.796  40.489 -10.530  0.00  0.00    +0.000 A 
ATOM      6  C   UNL     1     -18.853  39.700 -11.668  0.00  0.00    +0.000 A 
ATOM      7  C   UNL     1     -17.017  40.736 -12.584  0.00  0.00    +0.000 A 
ENDROOT
BRANCH   3  10
ATOM      8  O   UNL     1     -16.035  43.771 -11.587  0.00  0.00    +0.000 OA
ATOM      9  N   UNL     1     -14.516  42.101 -11.180  0.00  0.00    +0.000 N 
ATOM     10  C   UNL     1     -15.809  42.556 -11.433  0.00  0.00    +0.000 C 
ATOM     11  H   UNL     1     -14.251  41.134 -11.040  0.00  0.00    +0.000 HD
ATOM     12  H   UNL     1     -13.754  42.768 -11.130  0.00  0.00    +0.000 HD
ENDBRANCH   3  10
BRANCH   6  13
ATOM     13  N   UNL     1     -19.874  38.724 -11.774  0.00  0.00    +0.000 N 
ATOM     14  H   UNL     1     -20.501  38.772 -12.568  0.00  0.00    +0.000 HD
ATOM     15  H   UNL     1     -20.216  38.318 -10.913  0.00  0.00    +0.000 HD
ENDBRANCH   6  13
TORSDOF 2
ENDMDL
