MODEL 1
REMARK VINA RESULT:    -6.816      0.000      0.000
REMARK INTER + INTRA:          -8.139
REMARK INTER:                  -7.812
REMARK INTRA:                  -0.327
REMARK UNBOUND:                -0.327
REMARK  Name = 44180375
REMARK  3 active torsions:
REMARK  status: ('A' for Active; 'I' for Inactive)
REMARK    1  A    between atoms: N_4  and  C_12
REMARK    2  A    between atoms: C_6  and  C_7
REMARK    3  A    between atoms: C_7  and  C_12
REMARK                            x       y       z     vdW  Elec       q    Type
REMARK                         _______ _______ _______ _____ _____    ______ ____
ROOT
ATOM      1  O   UNL     1     -19.551  38.866 -11.351  0.00  0.00    +0.000 OA
ATOM      2  N   UNL     1     -19.569  40.100  -9.430  0.00  0.00    +0.000 N 
ATOM      3  N   UNL     1     -17.030  41.689 -13.233  0.00  0.00    +0.000 NA
ATOM      4  N   UNL     1     -18.197  39.669 -13.446  0.00  0.00    +0.000 N 
ATOM      5  C   UNL     1     -19.189  41.199  -8.688  0.00  0.00    +0.000 A 
ATOM      6  C   UNL     1     -17.915  42.003 -10.588  0.00  0.00    +0.000 A 
ATOM      7  C   UNL     1     -18.298  40.890 -11.343  0.00  0.00    +0.000 A 
ATOM      8  C   UNL     1     -18.390  42.142  -9.212  0.00  0.00    +0.000 A 
ATOM      9  C   UNL     1     -19.180  39.863 -10.741  0.00  0.00    +0.000 A 
ATOM     10  C   UNL     1     -17.836  40.777 -12.646  0.00  0.00    +0.000 A 
ATOM     11  C   UNL     1     -17.085  42.959 -11.169  0.00  0.00    +0.000 A 
ATOM     12  C   UNL     1     -16.676  42.756 -12.480  0.00  0.00    +0.000 A 
ATOM     13  H   UNL     1     -20.177  39.419  -8.984  0.00  0.00    +0.000 HD
ATOM     14  H   UNL     1     -18.361  38.778 -12.994  0.00  0.00    +0.000 HD
ATOM     15  H   UNL     1     -17.831  39.653 -14.390  0.00  0.00    +0.000 HD
ENDROOT
BRANCH   5  16
ATOM     16  C   UNL     1     -19.718  41.267  -7.289  0.00  0.00    +0.000 C 
BRANCH  16  17
ATOM     17  C   UNL     1     -21.117  41.866  -7.262  0.00  0.00    +0.000 C 
BRANCH  17  18
ATOM     18  N   UNL     1     -22.066  40.949  -7.884  0.00  0.00    +0.000 NA
ATOM     19  H   UNL     1     -22.826  41.483  -8.303  0.00  0.00    +0.000 HD
ATOM     20  H   UNL     1     -22.492  40.360  -7.169  0.00  0.00    +0.000 HD
ENDBRANCH  17  18
ENDBRANCH  16  17
ENDBRANCH   5  16
TORSDOF 3
ENDMDL
MODEL 2
REMARK VINA RESULT:    -6.469      1.671      4.943
REMARK INTER + INTRA:          -7.742
REMARK INTER:                  -7.618
REMARK INTRA:                  -0.124
REMARK UNBOUND:                -0.327
REMARK  Name = 44180375
REMARK  3 active torsions:
REMARK  status: ('A' for Active; 'I' for Inactive)
REMARK    1  A    between atoms: N_4  and  C_12
REMARK    2  A    between atoms: C_6  and  C_7
REMARK    3  A    between atoms: C_7  and  C_12
REMARK                            x       y       z     vdW  Elec       q    Type
REMARK                         _______ _______ _______ _____ _____    ______ ____
ROOT
ATOM      1  O   UNL     1     -18.060  39.821 -13.534  0.00  0.00    +0.000 OA
ATOM      2  N   UNL     1     -16.849  41.711 -13.118  0.00  0.00    +0.000 N 
ATOM      3  N   UNL     1     -19.585  39.838  -9.591  0.00  0.00    +0.000 NA
ATOM      4  N   UNL     1     -19.562  38.756 -11.669  0.00  0.00    +0.000 N 
ATOM      5  C   UNL     1     -16.433  42.730 -12.285  0.00  0.00    +0.000 A 
ATOM      6  C   UNL     1     -17.800  41.798 -10.513  0.00  0.00    +0.000 A 
ATOM      7  C   UNL     1     -18.224  40.764 -11.354  0.00  0.00    +0.000 A 
ATOM      8  C   UNL     1     -16.870  42.807 -11.019  0.00  0.00    +0.000 A 
ATOM      9  C   UNL     1     -17.727  40.701 -12.748  0.00  0.00    +0.000 A 
ATOM     10  C   UNL     1     -19.107  39.818 -10.855  0.00  0.00    +0.000 A 
ATOM     11  C   UNL     1     -18.278  41.842  -9.205  0.00  0.00    +0.000 A 
ATOM     12  C   UNL     1     -19.158  40.849  -8.799  0.00  0.00    +0.000 A 
ATOM     13  H   UNL     1     -16.484  41.700 -14.066  0.00  0.00    +0.000 HD
ATOM     14  H   UNL     1     -19.655  38.914 -12.664  0.00  0.00    +0.000 HD
ATOM     15  H   UNL     1     -20.199  38.096 -11.238  0.00  0.00    +0.000 HD
ENDROOT
BRANCH   5  16
ATOM     16  C   UNL     1     -15.481  43.721 -12.880  0.00  0.00    +0.000 C 
BRANCH  16  17
ATOM     17  C   UNL     1     -14.249  43.890 -12.001  0.00  0.00    +0.000 C 
BRANCH  17  18
ATOM     18  N   UNL     1     -13.150  43.082 -12.521  0.00  0.00    +0.000 NA
ATOM     19  H   UNL     1     -12.901  43.410 -13.452  0.00  0.00    +0.000 HD
ATOM     20  H   UNL     1     -13.457  42.116 -12.631  0.00  0.00    +0.000 HD
ENDBRANCH  17  18
ENDBRANCH  16  17
ENDBRANCH   5  16
TORSDOF 3
ENDMDL
MODEL 3
REMARK VINA RESULT:    -6.257      2.101      4.513
REMARK INTER + INTRA:          -7.499
REMARK INTER:                  -7.143
REMARK INTRA:                  -0.356
REMARK UNBOUND:                -0.327
REMARK  Name = 44180375
REMARK  3 active torsions:
REMARK  status: ('A' for Active; 'I' for Inactive)
REMARK    1  A    between atoms: N_4  and  C_12
REMARK    2  A    between atoms: C_6  and  C_7
REMARK    3  A    between atoms: C_7  and  C_12
REMARK                            x       y       z     vdW  Elec       q    Type
REMARK                         _______ _______ _______ _____ _____    ______ ____
ROOT
ATOM      1  O   UNL     1     -18.857  41.321 -13.945  0.00  0.00    +0.000 OA
ATOM      2  N   UNL     1     -17.815  43.130 -13.022  0.00  0.00    +0.000 N 
ATOM      3  N   UNL     1     -19.485  39.633 -10.120  0.00  0.00    +0.000 NA
ATOM      4  N   UNL     1     -19.784  39.393 -12.431  0.00  0.00    +0.000 N 
ATOM      5  C   UNL     1     -17.351  43.842 -11.934  0.00  0.00    +0.000 A 
ATOM      6  C   UNL     1     -18.184  42.095 -10.474  0.00  0.00    +0.000 A 
ATOM      7  C   UNL     1     -18.655  41.371 -11.574  0.00  0.00    +0.000 A 
ATOM      8  C   UNL     1     -17.510  43.376 -10.686  0.00  0.00    +0.000 A 
ATOM      9  C   UNL     1     -18.467  41.908 -12.941  0.00  0.00    +0.000 A 
ATOM     10  C   UNL     1     -19.292  40.159 -11.350  0.00  0.00    +0.000 A 
ATOM     11  C   UNL     1     -18.370  41.576  -9.194  0.00  0.00    +0.000 A 
ATOM     12  C   UNL     1     -19.019  40.355  -9.075  0.00  0.00    +0.000 A 
ATOM     13  H   UNL     1     -17.665  43.529 -13.944  0.00  0.00    +0.000 HD
ATOM     14  H   UNL     1     -20.108  39.877 -13.259  0.00  0.00    +0.000 HD
ATOM     15  H   UNL     1     -20.232  38.515 -12.197  0.00  0.00    +0.000 HD
ENDROOT
BRANCH   5  16
ATOM     16  C   UNL     1     -16.674  45.143 -12.237  0.00  0.00    +0.000 C 
BRANCH  16  17
ATOM     17  C   UNL     1     -17.503  45.980 -13.201  0.00  0.00    +0.000 C 
BRANCH  17  18
ATOM     18  N   UNL     1     -18.890  46.032 -12.752  0.00  0.00    +0.000 NA
ATOM     19  H   UNL     1     -18.964  45.602 -11.831  0.00  0.00    +0.000 HD
ATOM     20  H   UNL     1     -19.474  45.476 -13.375  0.00  0.00    +0.000 HD
ENDBRANCH  17  18
ENDBRANCH  16  17
ENDBRANCH   5  16
TORSDOF 3
ENDMDL
MODEL 4
REMARK VINA RESULT:    -5.928      2.951      4.236
REMARK INTER + INTRA:          -7.121
REMARK INTER:                  -6.892
REMARK INTRA:                  -0.229
REMARK UNBOUND:                -0.327
REMARK  Name = 44180375
REMARK  3 active torsions:
REMARK  status: ('A' for Active; 'I' for Inactive)
REMARK    1  A    between atoms: N_4  and  C_12
REMARK    2  A    between atoms: C_6  and  C_7
REMARK    3  A    between atoms: C_7  and  C_12
REMARK                            x       y       z     vdW  Elec       q    Type
REMARK                         _______ _______ _______ _____ _____    ______ ____
ROOT
ATOM      1  O   UNL     1     -19.580  42.512 -15.110  0.00  0.00    +0.000 OA
ATOM      2  N   UNL     1     -18.731  41.465 -13.267  0.00  0.00    +0.000 N 
ATOM      3  N   UNL     1     -18.475  46.290 -13.568  0.00  0.00    +0.000 NA
ATOM      4  N   UNL     1     -19.473  45.120 -15.335  0.00  0.00    +0.000 N 
ATOM      5  C   UNL     1     -18.104  41.486 -12.038  0.00  0.00    +0.000 A 
ATOM      6  C   UNL     1     -17.972  43.903 -12.180  0.00  0.00    +0.000 A 
ATOM      7  C   UNL     1     -18.608  43.885 -13.426  0.00  0.00    +0.000 A 
ATOM      8  C   UNL     1     -17.722  42.644 -11.478  0.00  0.00    +0.000 A 
ATOM      9  C   UNL     1     -19.019  42.593 -14.022  0.00  0.00    +0.000 A 
ATOM     10  C   UNL     1     -18.835  45.090 -14.075  0.00  0.00    +0.000 A 
ATOM     11  C   UNL     1     -17.591  45.126 -11.634  0.00  0.00    +0.000 A 
ATOM     12  C   UNL     1     -17.863  46.277 -12.361  0.00  0.00    +0.000 A 
ATOM     13  H   UNL     1     -19.001  40.560 -13.642  0.00  0.00    +0.000 HD
ATOM     14  H   UNL     1     -19.341  44.338 -15.964  0.00  0.00    +0.000 HD
ATOM     15  H   UNL     1     -19.614  46.034 -15.750  0.00  0.00    +0.000 HD
ENDROOT
BRANCH   5  16
ATOM     16  C   UNL     1     -17.885  40.156 -11.386  0.00  0.00    +0.000 C 
BRANCH  16  17
ATOM     17  C   UNL     1     -19.192  39.589 -10.846  0.00  0.00    +0.000 C 
BRANCH  17  18
ATOM     18  N   UNL     1     -19.693  38.550 -11.740  0.00  0.00    +0.000 NA
ATOM     19  H   UNL     1     -19.322  37.647 -11.448  0.00  0.00    +0.000 HD
ATOM     20  H   UNL     1     -19.343  38.711 -12.684  0.00  0.00    +0.000 HD
ENDBRANCH  17  18
ENDBRANCH  16  17
ENDBRANCH   5  16
TORSDOF 3
ENDMDL
MODEL 5
REMARK VINA RESULT:    -5.742      3.168      5.606
REMARK INTER + INTRA:          -6.908
REMARK INTER:                  -6.798
REMARK INTRA:                  -0.109
REMARK UNBOUND:                -0.327
REMARK  Name = 44180375
REMARK  3 active torsions:
REMARK  status: ('A' for Active; 'I' for Inactive)
REMARK    1  A    between atoms: N_4  and  C_12
REMARK    2  A    between atoms: C_6  and  C_7
REMARK    3  A    between atoms: C_7  and  C_12
REMARK                            x       y       z     vdW  Elec       q    Type
REMARK                         _______ _______ _______ _____ _____    ______ ____
ROOT
ATOM      1  O   UNL     1     -16.082  43.412 -13.098  0.00  0.00    +0.000 OA
ATOM      2  N   UNL     1     -18.098  43.380 -14.170  0.00  0.00    +0.000 N 
ATOM      3  N   UNL     1     -17.417  40.503 -10.337  0.00  0.00    +0.000 NA
ATOM      4  N   UNL     1     -15.648  41.880 -11.017  0.00  0.00    +0.000 N 
ATOM      5  C   UNL     1     -19.387  42.913 -14.320  0.00  0.00    +0.000 A 
ATOM      6  C   UNL     1     -19.056  41.469 -12.401  0.00  0.00    +0.000 A 
ATOM      7  C   UNL     1     -17.748  41.940 -12.246  0.00  0.00    +0.000 A 
ATOM      8  C   UNL     1     -19.888  41.989 -13.486  0.00  0.00    +0.000 A 
ATOM      9  C   UNL     1     -17.219  42.960 -13.181  0.00  0.00    +0.000 A 
ATOM     10  C   UNL     1     -16.975  41.433 -11.211  0.00  0.00    +0.000 A 
ATOM     11  C   UNL     1     -19.537  40.509 -11.513  0.00  0.00    +0.000 A 
ATOM     12  C   UNL     1     -18.686  40.065 -10.510  0.00  0.00    +0.000 A 
ATOM     13  H   UNL     1     -17.771  44.081 -14.829  0.00  0.00    +0.000 HD
ATOM     14  H   UNL     1     -15.110  42.165 -11.825  0.00  0.00    +0.000 HD
ATOM     15  H   UNL     1     -15.143  41.474 -10.238  0.00  0.00    +0.000 HD
ENDROOT
BRANCH   5  16
ATOM     16  C   UNL     1     -20.173  43.495 -15.454  0.00  0.00    +0.000 C 
BRANCH  16  17
ATOM     17  C   UNL     1     -19.638  43.010 -16.795  0.00  0.00    +0.000 C 
BRANCH  17  18
ATOM     18  N   UNL     1     -20.607  42.120 -17.427  0.00  0.00    +0.000 NA
ATOM     19  H   UNL     1     -21.545  42.495 -17.296  0.00  0.00    +0.000 HD
ATOM     20  H   UNL     1     -20.594  41.213 -16.961  0.00  0.00    +0.000 HD
ENDBRANCH  17  18
ENDBRANCH  16  17
ENDBRANCH   5  16
TORSDOF 3
ENDMDL
