MODEL 1
REMARK VINA RESULT:    -6.022      0.000      0.000
REMARK INTER + INTRA:          -8.399
REMARK INTER:                  -7.783
REMARK INTRA:                  -0.617
REMARK UNBOUND:                -0.617
REMARK  Name = 44764071
REMARK  10 active torsions:
REMARK  status: ('A' for Active; 'I' for Inactive)
REMARK    1  A    between atoms: N_2  and  C_7
REMARK    2  A    between atoms: N_3  and  C_13
REMARK    3  A    between atoms: C_5  and  C_6
REMARK    4  A    between atoms: C_5  and  C_7
REMARK    5  A    between atoms: C_6  and  C_8
REMARK    6  A    between atoms: C_6  and  C_9
REMARK    7  A    between atoms: C_7  and  C_10
REMARK    8  A    between atoms: C_11  and  C_12
REMARK    9  A    between atoms: C_13  and  C_18
REMARK   10  A    between atoms: C_13  and  C_19
REMARK                            x       y       z     vdW  Elec       q    Type
REMARK                         _______ _______ _______ _____ _____    ______ ____
ROOT
ATOM      1  N   UNL     1     -20.323  44.934 -17.035  0.00  0.00    +0.000 N 
ATOM      2  N   UNL     1     -20.063  43.159 -15.466  0.00  0.00    +0.000 NA
ATOM      3  C   UNL     1     -18.494  43.404 -13.643  0.00  0.00    +0.000 A 
ATOM      4  C   UNL     1     -19.706  44.397 -15.877  0.00  0.00    +0.000 A 
ATOM      5  C   UNL     1     -18.155  44.673 -14.097  0.00  0.00    +0.000 A 
ATOM      6  C   UNL     1     -19.447  42.693 -14.357  0.00  0.00    +0.000 A 
ATOM      7  C   UNL     1     -18.768  45.186 -15.234  0.00  0.00    +0.000 A 
ATOM      8  H   UNL     1     -19.817  45.683 -17.498  0.00  0.00    +0.000 HD
ENDROOT
BRANCH   3  11
ATOM      9  O   UNL     1     -17.086  43.519 -11.772  0.00  0.00    +0.000 OA
ATOM     10  N   UNL     1     -18.217  41.525 -12.120  0.00  0.00    +0.000 N 
ATOM     11  C   UNL     1     -17.858  42.827 -12.431  0.00  0.00    +0.000 C 
ATOM     12  H   UNL     1     -18.866  41.013 -12.709  0.00  0.00    +0.000 HD
BRANCH  10  13
ATOM     13  C   UNL     1     -17.704  40.835 -10.960  0.00  0.00    +0.000 C 
ATOM     14  C   UNL     1     -16.531  39.948 -11.369  0.00  0.00    +0.000 C 
BRANCH  13  15
ATOM     15  C   UNL     1     -18.798  40.003 -10.272  0.00  0.00    +0.000 C 
BRANCH  15  16
ATOM     16  C   UNL     1     -19.183  40.477  -8.853  0.00  0.00    +0.000 C 
ATOM     17  C   UNL     1     -20.694  40.469  -8.623  0.00  0.00    +0.000 C 
ATOM     18  C   UNL     1     -18.632  41.886  -8.615  0.00  0.00    +0.000 C 
ENDBRANCH  15  16
ENDBRANCH  13  15
ENDBRANCH  10  13
ENDBRANCH   3  11
BRANCH   1  19
ATOM     19  C   UNL     1     -21.305  44.221 -17.786  0.00  0.00    +0.000 C 
ATOM     20  C   UNL     1     -22.687  44.780 -17.475  0.00  0.00    +0.000 C 
ATOM     21  C   UNL     1     -20.982  44.334 -19.269  0.00  0.00    +0.000 C 
ENDBRANCH   1  19
TORSDOF 5
ENDMDL
MODEL 2
REMARK VINA RESULT:    -5.656      1.470      2.129
REMARK INTER + INTRA:          -7.926
REMARK INTER:                  -7.303
REMARK INTRA:                  -0.623
REMARK UNBOUND:                -0.617
REMARK  Name = 44764071
REMARK  10 active torsions:
REMARK  status: ('A' for Active; 'I' for Inactive)
REMARK    1  A    between atoms: N_2  and  C_7
REMARK    2  A    between atoms: N_3  and  C_13
REMARK    3  A    between atoms: C_5  and  C_6
REMARK    4  A    between atoms: C_5  and  C_7
REMARK    5  A    between atoms: C_6  and  C_8
REMARK    6  A    between atoms: C_6  and  C_9
REMARK    7  A    between atoms: C_7  and  C_10
REMARK    8  A    between atoms: C_11  and  C_12
REMARK    9  A    between atoms: C_13  and  C_18
REMARK   10  A    between atoms: C_13  and  C_19
REMARK                            x       y       z     vdW  Elec       q    Type
REMARK                         _______ _______ _______ _____ _____    ______ ____
ROOT
ATOM      1  N   UNL     1     -21.532  45.163 -18.022  0.00  0.00    +0.000 N 
ATOM      2  N   UNL     1     -19.674  45.231 -16.531  0.00  0.00    +0.000 NA
ATOM      3  C   UNL     1     -19.396  43.471 -14.898  0.00  0.00    +0.000 A 
ATOM      4  C   UNL     1     -20.791  44.597 -16.954  0.00  0.00    +0.000 A 
ATOM      5  C   UNL     1     -20.549  42.848 -15.361  0.00  0.00    +0.000 A 
ATOM      6  C   UNL     1     -19.004  44.650 -15.511  0.00  0.00    +0.000 A 
ATOM      7  C   UNL     1     -21.266  43.416 -16.409  0.00  0.00    +0.000 A 
ATOM      8  H   UNL     1     -22.502  44.870 -18.091  0.00  0.00    +0.000 HD
ENDROOT
BRANCH   3  11
ATOM      9  O   UNL     1     -17.778  43.588 -13.205  0.00  0.00    +0.000 OA
ATOM     10  N   UNL     1     -18.900  41.574 -13.453  0.00  0.00    +0.000 N 
ATOM     11  C   UNL     1     -18.608  42.889 -13.780  0.00  0.00    +0.000 C 
ATOM     12  H   UNL     1     -19.603  41.057 -13.971  0.00  0.00    +0.000 HD
BRANCH  10  13
ATOM     13  C   UNL     1     -18.238  40.878 -12.376  0.00  0.00    +0.000 C 
ATOM     14  C   UNL     1     -17.247  39.868 -12.950  0.00  0.00    +0.000 C 
BRANCH  13  15
ATOM     15  C   UNL     1     -19.250  40.179 -11.453  0.00  0.00    +0.000 C 
BRANCH  15  16
ATOM     16  C   UNL     1     -18.941  40.290  -9.944  0.00  0.00    +0.000 C 
ATOM     17  C   UNL     1     -20.192  40.138  -9.078  0.00  0.00    +0.000 C 
ATOM     18  C   UNL     1     -18.272  41.636  -9.653  0.00  0.00    +0.000 C 
ENDBRANCH  15  16
ENDBRANCH  13  15
ENDBRANCH  10  13
ENDBRANCH   3  11
BRANCH   1  19
ATOM     19  C   UNL     1     -21.148  46.376 -18.668  0.00  0.00    +0.000 C 
ATOM     20  C   UNL     1     -20.824  46.093 -20.130  0.00  0.00    +0.000 C 
ATOM     21  C   UNL     1     -22.274  47.393 -18.536  0.00  0.00    +0.000 C 
ENDBRANCH   1  19
TORSDOF 5
ENDMDL
MODEL 3
REMARK VINA RESULT:    -5.417      1.671      7.201
REMARK INTER + INTRA:          -7.617
REMARK INTER:                  -7.102
REMARK INTRA:                  -0.515
REMARK UNBOUND:                -0.617
REMARK  Name = 44764071
REMARK  10 active torsions:
REMARK  status: ('A' for Active; 'I' for Inactive)
REMARK    1  A    between atoms: N_2  and  C_7
REMARK    2  A    between atoms: N_3  and  C_13
REMARK    3  A    between atoms: C_5  and  C_6
REMARK    4  A    between atoms: C_5  and  C_7
REMARK    5  A    between atoms: C_6  and  C_8
REMARK    6  A    between atoms: C_6  and  C_9
REMARK    7  A    between atoms: C_7  and  C_10
REMARK    8  A    between atoms: C_11  and  C_12
REMARK    9  A    between atoms: C_13  and  C_18
REMARK   10  A    between atoms: C_13  and  C_19
REMARK                            x       y       z     vdW  Elec       q    Type
REMARK                         _______ _______ _______ _____ _____    ______ ____
ROOT
ATOM      1  N   UNL     1     -18.458  41.623 -10.584  0.00  0.00    +0.000 N 
ATOM      2  N   UNL     1     -19.286  42.302 -12.713  0.00  0.00    +0.000 NA
ATOM      3  C   UNL     1     -18.377  44.278 -13.766  0.00  0.00    +0.000 A 
ATOM      4  C   UNL     1     -18.442  42.522 -11.679  0.00  0.00    +0.000 A 
ATOM      5  C   UNL     1     -17.524  44.471 -12.686  0.00  0.00    +0.000 A 
ATOM      6  C   UNL     1     -19.231  43.188 -13.732  0.00  0.00    +0.000 A 
ATOM      7  C   UNL     1     -17.551  43.580 -11.618  0.00  0.00    +0.000 A 
ATOM      8  H   UNL     1     -18.081  41.981  -9.712  0.00  0.00    +0.000 HD
ENDROOT
BRANCH   3  11
ATOM      9  O   UNL     1     -17.316  45.740 -15.262  0.00  0.00    +0.000 OA
ATOM     10  N   UNL     1     -19.591  45.397 -15.555  0.00  0.00    +0.000 N 
ATOM     11  C   UNL     1     -18.372  45.212 -14.922  0.00  0.00    +0.000 C 
ATOM     12  H   UNL     1     -20.424  44.924 -15.221  0.00  0.00    +0.000 HD
BRANCH  10  13
ATOM     13  C   UNL     1     -19.744  46.253 -16.708  0.00  0.00    +0.000 C 
ATOM     14  C   UNL     1     -20.001  47.687 -16.251  0.00  0.00    +0.000 C 
BRANCH  13  15
ATOM     15  C   UNL     1     -20.877  45.765 -17.624  0.00  0.00    +0.000 C 
BRANCH  15  16
ATOM     16  C   UNL     1     -21.715  44.596 -17.059  0.00  0.00    +0.000 C 
ATOM     17  C   UNL     1     -21.416  43.270 -17.760  0.00  0.00    +0.000 C 
ATOM     18  C   UNL     1     -23.205  44.923 -17.187  0.00  0.00    +0.000 C 
ENDBRANCH  15  16
ENDBRANCH  13  15
ENDBRANCH  10  13
ENDBRANCH   3  11
BRANCH   1  19
ATOM     19  C   UNL     1     -19.329  40.493 -10.526  0.00  0.00    +0.000 C 
ATOM     20  C   UNL     1     -18.692  39.322 -11.264  0.00  0.00    +0.000 C 
ATOM     21  C   UNL     1     -19.605  40.147  -9.070  0.00  0.00    +0.000 C 
ENDBRANCH   1  19
TORSDOF 5
ENDMDL
MODEL 4
REMARK VINA RESULT:    -5.326      2.918      4.773
REMARK INTER + INTRA:          -7.499
REMARK INTER:                  -6.944
REMARK INTRA:                  -0.555
REMARK UNBOUND:                -0.617
REMARK  Name = 44764071
REMARK  10 active torsions:
REMARK  status: ('A' for Active; 'I' for Inactive)
REMARK    1  A    between atoms: N_2  and  C_7
REMARK    2  A    between atoms: N_3  and  C_13
REMARK    3  A    between atoms: C_5  and  C_6
REMARK    4  A    between atoms: C_5  and  C_7
REMARK    5  A    between atoms: C_6  and  C_8
REMARK    6  A    between atoms: C_6  and  C_9
REMARK    7  A    between atoms: C_7  and  C_10
REMARK    8  A    between atoms: C_11  and  C_12
REMARK    9  A    between atoms: C_13  and  C_18
REMARK   10  A    between atoms: C_13  and  C_19
REMARK                            x       y       z     vdW  Elec       q    Type
REMARK                         _______ _______ _______ _____ _____    ______ ____
ROOT
ATOM      1  N   UNL     1     -23.944  46.958 -18.334  0.00  0.00    +0.000 N 
ATOM      2  N   UNL     1     -21.716  46.254 -17.868  0.00  0.00    +0.000 NA
ATOM      3  C   UNL     1     -21.349  44.178 -16.685  0.00  0.00    +0.000 A 
ATOM      4  C   UNL     1     -23.044  46.017 -17.775  0.00  0.00    +0.000 A 
ATOM      5  C   UNL     1     -22.721  43.969 -16.610  0.00  0.00    +0.000 A 
ATOM      6  C   UNL     1     -20.900  45.326 -17.319  0.00  0.00    +0.000 A 
ATOM      7  C   UNL     1     -23.591  44.901 -17.163  0.00  0.00    +0.000 A 
ATOM      8  H   UNL     1     -24.892  46.933 -17.970  0.00  0.00    +0.000 HD
ENDROOT
BRANCH   3  11
ATOM      9  O   UNL     1     -20.093  42.198 -16.749  0.00  0.00    +0.000 OA
ATOM     10  N   UNL     1     -19.881  43.521 -14.856  0.00  0.00    +0.000 N 
ATOM     11  C   UNL     1     -20.392  43.200 -16.104  0.00  0.00    +0.000 C 
ATOM     12  H   UNL     1     -20.171  44.371 -14.382  0.00  0.00    +0.000 HD
BRANCH  10  13
ATOM     13  C   UNL     1     -18.923  42.686 -14.172  0.00  0.00    +0.000 C 
ATOM     14  C   UNL     1     -19.623  41.906 -13.062  0.00  0.00    +0.000 C 
BRANCH  13  15
ATOM     15  C   UNL     1     -17.761  43.515 -13.602  0.00  0.00    +0.000 C 
BRANCH  15  16
ATOM     16  C   UNL     1     -17.995  44.075 -12.181  0.00  0.00    +0.000 C 
ATOM     17  C   UNL     1     -17.944  45.603 -12.139  0.00  0.00    +0.000 C 
ATOM     18  C   UNL     1     -16.951  43.497 -11.222  0.00  0.00    +0.000 C 
ENDBRANCH  15  16
ENDBRANCH  13  15
ENDBRANCH  10  13
ENDBRANCH   3  11
BRANCH   1  19
ATOM     19  C   UNL     1     -23.506  48.147 -18.991  0.00  0.00    +0.000 C 
ATOM     20  C   UNL     1     -24.396  48.418 -20.197  0.00  0.00    +0.000 C 
ATOM     21  C   UNL     1     -23.540  49.306 -18.005  0.00  0.00    +0.000 C 
ENDBRANCH   1  19
TORSDOF 5
ENDMDL
MODEL 5
REMARK VINA RESULT:    -5.252      2.109      7.771
REMARK INTER + INTRA:          -7.404
REMARK INTER:                  -6.806
REMARK INTRA:                  -0.598
REMARK UNBOUND:                -0.617
REMARK  Name = 44764071
REMARK  10 active torsions:
REMARK  status: ('A' for Active; 'I' for Inactive)
REMARK    1  A    between atoms: N_2  and  C_7
REMARK    2  A    between atoms: N_3  and  C_13
REMARK    3  A    between atoms: C_5  and  C_6
REMARK    4  A    between atoms: C_5  and  C_7
REMARK    5  A    between atoms: C_6  and  C_8
REMARK    6  A    between atoms: C_6  and  C_9
REMARK    7  A    between atoms: C_7  and  C_10
REMARK    8  A    between atoms: C_11  and  C_12
REMARK    9  A    between atoms: C_13  and  C_18
REMARK   10  A    between atoms: C_13  and  C_19
REMARK                            x       y       z     vdW  Elec       q    Type
REMARK                         _______ _______ _______ _____ _____    ______ ____
ROOT
ATOM      1  N   UNL     1     -17.878  42.357 -10.732  0.00  0.00    +0.000 N 
ATOM      2  N   UNL     1     -18.842  42.233 -12.908  0.00  0.00    +0.000 NA
ATOM      3  C   UNL     1     -18.772  44.170 -14.352  0.00  0.00    +0.000 A 
ATOM      4  C   UNL     1     -18.191  42.963 -11.974  0.00  0.00    +0.000 A 
ATOM      5  C   UNL     1     -18.103  44.888 -13.368  0.00  0.00    +0.000 A 
ATOM      6  C   UNL     1     -19.117  42.857 -14.075  0.00  0.00    +0.000 A 
ATOM      7  C   UNL     1     -17.803  44.280 -12.154  0.00  0.00    +0.000 A 
ATOM      8  H   UNL     1     -17.705  42.995  -9.961  0.00  0.00    +0.000 HD
ENDROOT
BRANCH   3  11
ATOM      9  O   UNL     1     -19.142  46.015 -15.751  0.00  0.00    +0.000 OA
ATOM     10  N   UNL     1     -19.335  43.911 -16.706  0.00  0.00    +0.000 N 
ATOM     11  C   UNL     1     -19.107  44.791 -15.660  0.00  0.00    +0.000 C 
ATOM     12  H   UNL     1     -19.285  42.908 -16.558  0.00  0.00    +0.000 HD
BRANCH  10  13
ATOM     13  C   UNL     1     -19.646  44.359 -18.042  0.00  0.00    +0.000 C 
ATOM     14  C   UNL     1     -21.054  43.907 -18.421  0.00  0.00    +0.000 C 
BRANCH  13  15
ATOM     15  C   UNL     1     -18.618  43.842 -19.062  0.00  0.00    +0.000 C 
BRANCH  15  16
ATOM     16  C   UNL     1     -17.780  44.938 -19.757  0.00  0.00    +0.000 C 
ATOM     17  C   UNL     1     -16.914  45.725 -18.772  0.00  0.00    +0.000 C 
ATOM     18  C   UNL     1     -18.708  45.897 -20.508  0.00  0.00    +0.000 C 
ENDBRANCH  15  16
ENDBRANCH  13  15
ENDBRANCH  10  13
ENDBRANCH   3  11
BRANCH   1  19
ATOM     19  C   UNL     1     -18.223  41.007 -10.424  0.00  0.00    +0.000 C 
ATOM     20  C   UNL     1     -17.109  40.079 -10.891  0.00  0.00    +0.000 C 
ATOM     21  C   UNL     1     -18.461  40.879  -8.926  0.00  0.00    +0.000 C 
ENDBRANCH   1  19
TORSDOF 5
ENDMDL
