MODEL 1
REMARK VINA RESULT:    -6.653      0.000      0.000
REMARK INTER + INTRA:          -9.407
REMARK INTER:                  -8.986
REMARK INTRA:                  -0.420
REMARK UNBOUND:                -0.420
REMARK  Name = 44764063
REMARK  9 active torsions:
REMARK  status: ('A' for Active; 'I' for Inactive)
REMARK    1  A    between atoms: N_2  and  C_7
REMARK    2  A    between atoms: N_3  and  C_9
REMARK    3  A    between atoms: C_5  and  C_6
REMARK    4  A    between atoms: C_5  and  C_7
REMARK    5  A    between atoms: C_6  and  C_8
REMARK    6  A    between atoms: C_8  and  C_10
REMARK    7  A    between atoms: C_9  and  C_14
REMARK    8  A    between atoms: C_9  and  C_15
REMARK    9  A    between atoms: C_11  and  C_12
REMARK                            x       y       z     vdW  Elec       q    Type
REMARK                         _______ _______ _______ _____ _____    ______ ____
ROOT
ATOM      1  N   UNL     1     -19.798  44.024 -15.548  0.00  0.00    +0.000 N 
ATOM      2  N   UNL     1     -19.584  42.090 -14.174  0.00  0.00    +0.000 NA
ATOM      3  C   UNL     1     -18.404  42.250 -12.071  0.00  0.00    +0.000 A 
ATOM      4  C   UNL     1     -19.328  43.404 -14.365  0.00  0.00    +0.000 A 
ATOM      5  C   UNL     1     -18.161  43.599 -12.301  0.00  0.00    +0.000 A 
ATOM      6  C   UNL     1     -18.628  44.195 -13.468  0.00  0.00    +0.000 A 
ATOM      7  C   UNL     1     -19.115  41.546 -13.029  0.00  0.00    +0.000 A 
ATOM      8  H   UNL     1     -19.323  44.882 -15.817  0.00  0.00    +0.000 HD
ENDROOT
BRANCH   3  11
ATOM      9  O   UNL     1     -16.725  41.307 -10.731  0.00  0.00    +0.000 OA
ATOM     10  N   UNL     1     -18.873  41.344  -9.853  0.00  0.00    +0.000 N 
ATOM     11  C   UNL     1     -17.918  41.585 -10.835  0.00  0.00    +0.000 C 
ATOM     12  H   UNL     1     -19.832  41.650  -9.984  0.00  0.00    +0.000 HD
BRANCH  10  13
ATOM     13  C   UNL     1     -18.554  40.731  -8.593  0.00  0.00    +0.000 C 
BRANCH  13  14
ATOM     14  C   UNL     1     -19.497  41.194  -7.489  0.00  0.00    +0.000 C 
BRANCH  14  15
ATOM     15  C   UNL     1     -20.951  41.193  -7.963  0.00  0.00    +0.000 C 
BRANCH  15  16
ATOM     16  C   UNL     1     -21.865  41.888  -6.955  0.00  0.00    +0.000 C 
ATOM     17  C   UNL     1     -21.175  42.077  -5.613  0.00  0.00    +0.000 C 
ENDBRANCH  15  16
ENDBRANCH  14  15
ENDBRANCH  13  14
ENDBRANCH  10  13
ENDBRANCH   3  11
BRANCH   1  18
ATOM     18  C   UNL     1     -20.531  43.320 -16.549  0.00  0.00    +0.000 C 
ATOM     19  C   UNL     1     -21.987  43.765 -16.521  0.00  0.00    +0.000 C 
ATOM     20  C   UNL     1     -19.897  43.578 -17.909  0.00  0.00    +0.000 C 
ENDBRANCH   1  18
TORSDOF 6
ENDMDL
MODEL 2
REMARK VINA RESULT:    -5.347      2.572      7.374
REMARK INTER + INTRA:          -7.643
REMARK INTER:                  -7.147
REMARK INTRA:                  -0.495
REMARK UNBOUND:                -0.420
REMARK  Name = 44764063
REMARK  9 active torsions:
REMARK  status: ('A' for Active; 'I' for Inactive)
REMARK    1  A    between atoms: N_2  and  C_7
REMARK    2  A    between atoms: N_3  and  C_9
REMARK    3  A    between atoms: C_5  and  C_6
REMARK    4  A    between atoms: C_5  and  C_7
REMARK    5  A    between atoms: C_6  and  C_8
REMARK    6  A    between atoms: C_8  and  C_10
REMARK    7  A    between atoms: C_9  and  C_14
REMARK    8  A    between atoms: C_9  and  C_15
REMARK    9  A    between atoms: C_11  and  C_12
REMARK                            x       y       z     vdW  Elec       q    Type
REMARK                         _______ _______ _______ _____ _____    ______ ____
ROOT
ATOM      1  N   UNL     1     -17.716  42.428 -10.727  0.00  0.00    +0.000 N 
ATOM      2  N   UNL     1     -18.715  42.314 -12.886  0.00  0.00    +0.000 NA
ATOM      3  C   UNL     1     -18.692  44.265 -14.312  0.00  0.00    +0.000 A 
ATOM      4  C   UNL     1     -18.057  43.042 -11.957  0.00  0.00    +0.000 A 
ATOM      5  C   UNL     1     -18.014  44.982 -13.332  0.00  0.00    +0.000 A 
ATOM      6  C   UNL     1     -17.687  44.367 -12.129  0.00  0.00    +0.000 A 
ATOM      7  C   UNL     1     -19.016  42.946 -14.043  0.00  0.00    +0.000 A 
ATOM      8  H   UNL     1     -17.537  43.060  -9.951  0.00  0.00    +0.000 HD
ENDROOT
BRANCH   3  11
ATOM      9  O   UNL     1     -19.225  46.111 -15.658  0.00  0.00    +0.000 OA
ATOM     10  N   UNL     1     -19.157  44.038 -16.697  0.00  0.00    +0.000 N 
ATOM     11  C   UNL     1     -19.056  44.895 -15.607  0.00  0.00    +0.000 C 
ATOM     12  H   UNL     1     -18.951  43.049 -16.595  0.00  0.00    +0.000 HD
BRANCH  10  13
ATOM     13  C   UNL     1     -19.477  44.499 -18.021  0.00  0.00    +0.000 C 
BRANCH  13  14
ATOM     14  C   UNL     1     -20.896  44.114 -18.421  0.00  0.00    +0.000 C 
BRANCH  14  15
ATOM     15  C   UNL     1     -21.499  43.112 -17.436  0.00  0.00    +0.000 C 
BRANCH  15  16
ATOM     16  C   UNL     1     -22.542  43.775 -16.537  0.00  0.00    +0.000 C 
ATOM     17  C   UNL     1     -23.012  45.102 -17.111  0.00  0.00    +0.000 C 
ENDBRANCH  15  16
ENDBRANCH  14  15
ENDBRANCH  13  14
ENDBRANCH  10  13
ENDBRANCH   3  11
BRANCH   1  18
ATOM     18  C   UNL     1     -18.040  41.072 -10.426  0.00  0.00    +0.000 C 
ATOM     19  C   UNL     1     -16.884  40.169 -10.837  0.00  0.00    +0.000 C 
ATOM     20  C   UNL     1     -18.343  40.945  -8.940  0.00  0.00    +0.000 C 
ENDBRANCH   1  18
TORSDOF 6
ENDMDL
MODEL 3
REMARK VINA RESULT:    -5.341      4.268      7.269
REMARK INTER + INTRA:          -7.635
REMARK INTER:                  -7.209
REMARK INTRA:                  -0.427
REMARK UNBOUND:                -0.420
REMARK  Name = 44764063
REMARK  9 active torsions:
REMARK  status: ('A' for Active; 'I' for Inactive)
REMARK    1  A    between atoms: N_2  and  C_7
REMARK    2  A    between atoms: N_3  and  C_9
REMARK    3  A    between atoms: C_5  and  C_6
REMARK    4  A    between atoms: C_5  and  C_7
REMARK    5  A    between atoms: C_6  and  C_8
REMARK    6  A    between atoms: C_8  and  C_10
REMARK    7  A    between atoms: C_9  and  C_14
REMARK    8  A    between atoms: C_9  and  C_15
REMARK    9  A    between atoms: C_11  and  C_12
REMARK                            x       y       z     vdW  Elec       q    Type
REMARK                         _______ _______ _______ _____ _____    ______ ____
ROOT
ATOM      1  N   UNL     1     -21.041  41.098  -7.802  0.00  0.00    +0.000 N 
ATOM      2  N   UNL     1     -19.089  42.281  -8.485  0.00  0.00    +0.000 NA
ATOM      3  C   UNL     1     -17.609  41.291 -10.119  0.00  0.00    +0.000 A 
ATOM      4  C   UNL     1     -19.865  41.178  -8.587  0.00  0.00    +0.000 A 
ATOM      5  C   UNL     1     -18.431  40.172 -10.198  0.00  0.00    +0.000 A 
ATOM      6  C   UNL     1     -19.583  40.107  -9.420  0.00  0.00    +0.000 A 
ATOM      7  C   UNL     1     -17.979  42.309  -9.256  0.00  0.00    +0.000 A 
ATOM      8  H   UNL     1     -21.406  40.162  -7.647  0.00  0.00    +0.000 HD
ENDROOT
BRANCH   3  11
ATOM      9  O   UNL     1     -15.955  40.392 -11.519  0.00  0.00    +0.000 OA
ATOM     10  N   UNL     1     -15.780  42.646 -10.998  0.00  0.00    +0.000 N 
ATOM     11  C   UNL     1     -16.372  41.390 -10.936  0.00  0.00    +0.000 C 
ATOM     12  H   UNL     1     -16.208  43.441 -10.535  0.00  0.00    +0.000 HD
BRANCH  10  13
ATOM     13  C   UNL     1     -14.593  42.908 -11.767  0.00  0.00    +0.000 C 
BRANCH  13  14
ATOM     14  C   UNL     1     -13.374  43.091 -10.871  0.00  0.00    +0.000 C 
BRANCH  14  15
ATOM     15  C   UNL     1     -12.602  41.781 -10.708  0.00  0.00    +0.000 C 
BRANCH  15  16
ATOM     16  C   UNL     1     -11.515  41.905  -9.640  0.00  0.00    +0.000 C 
ATOM     17  C   UNL     1     -11.864  42.968  -8.611  0.00  0.00    +0.000 C 
ENDBRANCH  15  16
ENDBRANCH  14  15
ENDBRANCH  13  14
ENDBRANCH  10  13
ENDBRANCH   3  11
BRANCH   1  18
ATOM     18  C   UNL     1     -21.442  42.132  -6.906  0.00  0.00    +0.000 C 
ATOM     19  C   UNL     1     -22.962  42.167  -6.816  0.00  0.00    +0.000 C 
ATOM     20  C   UNL     1     -20.810  41.888  -5.543  0.00  0.00    +0.000 C 
ENDBRANCH   1  18
TORSDOF 6
ENDMDL
MODEL 4
REMARK VINA RESULT:    -5.320      1.829      2.568
REMARK INTER + INTRA:          -7.606
REMARK INTER:                  -7.265
REMARK INTRA:                  -0.340
REMARK UNBOUND:                -0.420
REMARK  Name = 44764063
REMARK  9 active torsions:
REMARK  status: ('A' for Active; 'I' for Inactive)
REMARK    1  A    between atoms: N_2  and  C_7
REMARK    2  A    between atoms: N_3  and  C_9
REMARK    3  A    between atoms: C_5  and  C_6
REMARK    4  A    between atoms: C_5  and  C_7
REMARK    5  A    between atoms: C_6  and  C_8
REMARK    6  A    between atoms: C_8  and  C_10
REMARK    7  A    between atoms: C_9  and  C_14
REMARK    8  A    between atoms: C_9  and  C_15
REMARK    9  A    between atoms: C_11  and  C_12
REMARK                            x       y       z     vdW  Elec       q    Type
REMARK                         _______ _______ _______ _____ _____    ______ ____
ROOT
ATOM      1  N   UNL     1     -20.082  45.981 -16.656  0.00  0.00    +0.000 N 
ATOM      2  N   UNL     1     -20.320  43.725 -15.930  0.00  0.00    +0.000 NA
ATOM      3  C   UNL     1     -18.883  42.881 -14.178  0.00  0.00    +0.000 A 
ATOM      4  C   UNL     1     -19.684  44.912 -15.816  0.00  0.00    +0.000 A 
ATOM      5  C   UNL     1     -18.253  44.117 -14.090  0.00  0.00    +0.000 A 
ATOM      6  C   UNL     1     -18.654  45.158 -14.921  0.00  0.00    +0.000 A 
ATOM      7  C   UNL     1     -19.903  42.738 -15.106  0.00  0.00    +0.000 A 
ATOM      8  H   UNL     1     -19.397  46.721 -16.786  0.00  0.00    +0.000 HD
ENDROOT
BRANCH   3  11
ATOM      9  O   UNL     1     -17.285  41.476 -13.193  0.00  0.00    +0.000 OA
ATOM     10  N   UNL     1     -19.505  41.089 -12.644  0.00  0.00    +0.000 N 
ATOM     11  C   UNL     1     -18.477  41.751 -13.305  0.00  0.00    +0.000 C 
ATOM     12  H   UNL     1     -20.466  41.403 -12.740  0.00  0.00    +0.000 HD
BRANCH  10  13
ATOM     13  C   UNL     1     -19.271  39.991 -11.746  0.00  0.00    +0.000 C 
BRANCH  13  14
ATOM     14  C   UNL     1     -18.877  40.477 -10.356  0.00  0.00    +0.000 C 
BRANCH  14  15
ATOM     15  C   UNL     1     -20.020  40.295  -9.358  0.00  0.00    +0.000 C 
BRANCH  15  16
ATOM     16  C   UNL     1     -19.536  40.470  -7.919  0.00  0.00    +0.000 C 
ATOM     17  C   UNL     1     -19.706  41.904  -7.444  0.00  0.00    +0.000 C 
ENDBRANCH  15  16
ENDBRANCH  14  15
ENDBRANCH  13  14
ENDBRANCH  10  13
ENDBRANCH   3  11
BRANCH   1  18
ATOM     18  C   UNL     1     -21.128  45.857 -17.618  0.00  0.00    +0.000 C 
ATOM     19  C   UNL     1     -21.920  47.157 -17.680  0.00  0.00    +0.000 C 
ATOM     20  C   UNL     1     -20.525  45.509 -18.972  0.00  0.00    +0.000 C 
ENDBRANCH   1  18
TORSDOF 6
ENDMDL
MODEL 5
REMARK VINA RESULT:    -5.203      2.304      4.044
REMARK INTER + INTRA:          -7.448
REMARK INTER:                  -7.048
REMARK INTRA:                  -0.400
REMARK UNBOUND:                -0.420
REMARK  Name = 44764063
REMARK  9 active torsions:
REMARK  status: ('A' for Active; 'I' for Inactive)
REMARK    1  A    between atoms: N_2  and  C_7
REMARK    2  A    between atoms: N_3  and  C_9
REMARK    3  A    between atoms: C_5  and  C_6
REMARK    4  A    between atoms: C_5  and  C_7
REMARK    5  A    between atoms: C_6  and  C_8
REMARK    6  A    between atoms: C_8  and  C_10
REMARK    7  A    between atoms: C_9  and  C_14
REMARK    8  A    between atoms: C_9  and  C_15
REMARK    9  A    between atoms: C_11  and  C_12
REMARK                            x       y       z     vdW  Elec       q    Type
REMARK                         _______ _______ _______ _____ _____    ______ ____
ROOT
ATOM      1  N   UNL     1     -21.799  45.337 -18.349  0.00  0.00    +0.000 N 
ATOM      2  N   UNL     1     -19.859  45.231 -16.971  0.00  0.00    +0.000 NA
ATOM      3  C   UNL     1     -19.712  43.538 -15.252  0.00  0.00    +0.000 A 
ATOM      4  C   UNL     1     -21.074  44.733 -17.293  0.00  0.00    +0.000 A 
ATOM      5  C   UNL     1     -20.964  43.053 -15.612  0.00  0.00    +0.000 A 
ATOM      6  C   UNL     1     -21.665  43.657 -16.651  0.00  0.00    +0.000 A 
ATOM      7  C   UNL     1     -19.207  44.619 -15.957  0.00  0.00    +0.000 A 
ATOM      8  H   UNL     1     -22.803  45.174 -18.347  0.00  0.00    +0.000 HD
ENDROOT
BRANCH   3  11
ATOM      9  O   UNL     1     -18.042  43.557 -13.605  0.00  0.00    +0.000 OA
ATOM     10  N   UNL     1     -19.318  41.627 -13.786  0.00  0.00    +0.000 N 
ATOM     11  C   UNL     1     -18.939  42.916 -14.147  0.00  0.00    +0.000 C 
ATOM     12  H   UNL     1     -20.105  41.176 -14.242  0.00  0.00    +0.000 HD
BRANCH  10  13
ATOM     13  C   UNL     1     -18.683  40.901 -12.721  0.00  0.00    +0.000 C 
BRANCH  13  14
ATOM     14  C   UNL     1     -19.471  41.009 -11.421  0.00  0.00    +0.000 C 
BRANCH  14  15
ATOM     15  C   UNL     1     -18.941  40.037 -10.367  0.00  0.00    +0.000 C 
BRANCH  15  16
ATOM     16  C   UNL     1     -18.370  40.781  -9.160  0.00  0.00    +0.000 C 
ATOM     17  C   UNL     1     -19.311  40.715  -7.968  0.00  0.00    +0.000 C 
ENDBRANCH  15  16
ENDBRANCH  14  15
ENDBRANCH  13  14
ENDBRANCH  10  13
ENDBRANCH   3  11
BRANCH   1  18
ATOM     18  C   UNL     1     -21.301  46.451 -19.088  0.00  0.00    +0.000 C 
ATOM     19  C   UNL     1     -20.767  45.972 -20.432  0.00  0.00    +0.000 C 
ATOM     20  C   UNL     1     -22.415  47.474 -19.266  0.00  0.00    +0.000 C 
ENDBRANCH   1  18
TORSDOF 6
ENDMDL
