MODEL 1
REMARK VINA RESULT:    -5.300      0.000      0.000
REMARK INTER + INTRA:          -6.768
REMARK INTER:                  -6.229
REMARK INTRA:                  -0.538
REMARK UNBOUND:                -0.538
REMARK  Name = 44769615
REMARK  6 active torsions:
REMARK  status: ('A' for Active; 'I' for Inactive)
REMARK    1  A    between atoms: N_2  and  C_5
REMARK    2  A    between atoms: N_2  and  C_6
REMARK    3  A    between atoms: N_4  and  C_14
REMARK    4  A    between atoms: C_5  and  C_7
REMARK    5  A    between atoms: C_5  and  C_8
REMARK    6  A    between atoms: C_9  and  C_11
REMARK                            x       y       z     vdW  Elec       q    Type
REMARK                         _______ _______ _______ _____ _____    ______ ____
ROOT
ATOM      1  N   UNL     1     -19.093  40.702 -13.182  0.00  0.00    +0.000 NA
ATOM      2  C   UNL     1     -18.137  41.621 -12.918  0.00  0.00    +0.000 A 
ATOM      3  C   UNL     1     -17.308  41.581 -11.809  0.00  0.00    +0.000 A 
ATOM      4  C   UNL     1     -17.469  40.530 -10.912  0.00  0.00    +0.000 A 
ATOM      5  C   UNL     1     -18.441  39.564 -11.150  0.00  0.00    +0.000 A 
ATOM      6  C   UNL     1     -19.220  39.695 -12.289  0.00  0.00    +0.000 A 
ENDROOT
BRANCH   3   9
ATOM      7  O   UNL     1     -16.595  43.791 -11.481  0.00  0.00    +0.000 OA
ATOM      8  N   UNL     1     -14.980  42.131 -11.364  0.00  0.00    +0.000 N 
ATOM      9  C   UNL     1     -16.288  42.589 -11.549  0.00  0.00    +0.000 C 
ATOM     10  C   UNL     1     -13.864  43.003 -11.076  0.00  0.00    +0.000 C 
ATOM     11  H   UNL     1     -14.789  41.137 -11.448  0.00  0.00    +0.000 HD
ENDBRANCH   3   9
BRANCH   2  12
ATOM     12  N   UNL     1     -17.983  42.667 -13.814  0.00  0.00    +0.000 N 
ATOM     13  H   UNL     1     -17.033  42.960 -14.019  0.00  0.00    +0.000 HD
BRANCH  12  14
ATOM     14  C   UNL     1     -19.020  43.625 -14.113  0.00  0.00    +0.000 C 
ATOM     15  C   UNL     1     -19.711  43.265 -15.423  0.00  0.00    +0.000 C 
ATOM     16  C   UNL     1     -18.448  45.036 -14.160  0.00  0.00    +0.000 C 
ENDBRANCH  12  14
ENDBRANCH   2  12
TORSDOF 3
ENDMDL
MODEL 2
REMARK VINA RESULT:    -5.238      2.643      3.763
REMARK INTER + INTRA:          -6.695
REMARK INTER:                  -6.240
REMARK INTRA:                  -0.455
REMARK UNBOUND:                -0.538
REMARK  Name = 44769615
REMARK  6 active torsions:
REMARK  status: ('A' for Active; 'I' for Inactive)
REMARK    1  A    between atoms: N_2  and  C_5
REMARK    2  A    between atoms: N_2  and  C_6
REMARK    3  A    between atoms: N_4  and  C_14
REMARK    4  A    between atoms: C_5  and  C_7
REMARK    5  A    between atoms: C_5  and  C_8
REMARK    6  A    between atoms: C_9  and  C_11
REMARK                            x       y       z     vdW  Elec       q    Type
REMARK                         _______ _______ _______ _____ _____    ______ ____
ROOT
ATOM      1  N   UNL     1     -17.935  41.364 -12.656  0.00  0.00    +0.000 NA
ATOM      2  C   UNL     1     -18.142  41.760 -11.380  0.00  0.00    +0.000 A 
ATOM      3  C   UNL     1     -18.799  40.999 -10.428  0.00  0.00    +0.000 A 
ATOM      4  C   UNL     1     -19.275  39.749 -10.809  0.00  0.00    +0.000 A 
ATOM      5  C   UNL     1     -19.082  39.305 -12.113  0.00  0.00    +0.000 A 
ATOM      6  C   UNL     1     -18.411  40.143 -12.989  0.00  0.00    +0.000 A 
ENDROOT
BRANCH   3   9
ATOM      7  O   UNL     1     -18.094  42.017  -8.437  0.00  0.00    +0.000 OA
ATOM      8  N   UNL     1     -20.280  41.248  -8.514  0.00  0.00    +0.000 N 
ATOM      9  C   UNL     1     -19.010  41.455  -9.060  0.00  0.00    +0.000 C 
ATOM     10  C   UNL     1     -20.651  41.665  -7.180  0.00  0.00    +0.000 C 
ATOM     11  H   UNL     1     -20.983  40.769  -9.068  0.00  0.00    +0.000 HD
ENDBRANCH   3   9
BRANCH   2  12
ATOM     12  N   UNL     1     -17.667  43.009 -11.008  0.00  0.00    +0.000 N 
ATOM     13  H   UNL     1     -17.987  43.374 -10.117  0.00  0.00    +0.000 HD
BRANCH  12  14
ATOM     14  C   UNL     1     -17.147  43.978 -11.941  0.00  0.00    +0.000 C 
ATOM     15  C   UNL     1     -15.624  44.010 -11.877  0.00  0.00    +0.000 C 
ATOM     16  C   UNL     1     -17.739  45.355 -11.667  0.00  0.00    +0.000 C 
ENDBRANCH  12  14
ENDBRANCH   2  12
TORSDOF 3
ENDMDL
MODEL 3
REMARK VINA RESULT:    -5.120      1.648      3.830
REMARK INTER + INTRA:          -6.556
REMARK INTER:                  -6.054
REMARK INTRA:                  -0.502
REMARK UNBOUND:                -0.538
REMARK  Name = 44769615
REMARK  6 active torsions:
REMARK  status: ('A' for Active; 'I' for Inactive)
REMARK    1  A    between atoms: N_2  and  C_5
REMARK    2  A    between atoms: N_2  and  C_6
REMARK    3  A    between atoms: N_4  and  C_14
REMARK    4  A    between atoms: C_5  and  C_7
REMARK    5  A    between atoms: C_5  and  C_8
REMARK    6  A    between atoms: C_9  and  C_11
REMARK                            x       y       z     vdW  Elec       q    Type
REMARK                         _______ _______ _______ _____ _____    ______ ____
ROOT
ATOM      1  N   UNL     1     -16.875  40.519 -11.753  0.00  0.00    +0.000 NA
ATOM      2  C   UNL     1     -17.354  41.518 -12.528  0.00  0.00    +0.000 A 
ATOM      3  C   UNL     1     -18.693  41.686 -12.839  0.00  0.00    +0.000 A 
ATOM      4  C   UNL     1     -19.602  40.770 -12.320  0.00  0.00    +0.000 A 
ATOM      5  C   UNL     1     -19.149  39.728 -11.518  0.00  0.00    +0.000 A 
ATOM      6  C   UNL     1     -17.788  39.648 -11.267  0.00  0.00    +0.000 A 
ENDROOT
BRANCH   3   9
ATOM      7  O   UNL     1     -19.160  43.944 -13.267  0.00  0.00    +0.000 OA
ATOM      8  N   UNL     1     -19.634  42.428 -14.957  0.00  0.00    +0.000 N 
ATOM      9  C   UNL     1     -19.178  42.772 -13.680  0.00  0.00    +0.000 C 
ATOM     10  C   UNL     1     -20.123  43.393 -15.915  0.00  0.00    +0.000 C 
ATOM     11  H   UNL     1     -19.639  41.450 -15.231  0.00  0.00    +0.000 HD
ENDBRANCH   3   9
BRANCH   2  12
ATOM     12  N   UNL     1     -16.442  42.426 -13.044  0.00  0.00    +0.000 N 
ATOM     13  H   UNL     1     -15.895  42.124 -13.843  0.00  0.00    +0.000 HD
BRANCH  12  14
ATOM     14  C   UNL     1     -15.910  43.539 -12.297  0.00  0.00    +0.000 C 
ATOM     15  C   UNL     1     -15.683  44.734 -13.215  0.00  0.00    +0.000 C 
ATOM     16  C   UNL     1     -14.624  43.140 -11.584  0.00  0.00    +0.000 C 
ENDBRANCH  12  14
ENDBRANCH   2  12
TORSDOF 3
ENDMDL
MODEL 4
REMARK VINA RESULT:    -5.078      2.360      3.914
REMARK INTER + INTRA:          -6.507
REMARK INTER:                  -5.965
REMARK INTRA:                  -0.542
REMARK UNBOUND:                -0.538
REMARK  Name = 44769615
REMARK  6 active torsions:
REMARK  status: ('A' for Active; 'I' for Inactive)
REMARK    1  A    between atoms: N_2  and  C_5
REMARK    2  A    between atoms: N_2  and  C_6
REMARK    3  A    between atoms: N_4  and  C_14
REMARK    4  A    between atoms: C_5  and  C_7
REMARK    5  A    between atoms: C_5  and  C_8
REMARK    6  A    between atoms: C_9  and  C_11
REMARK                            x       y       z     vdW  Elec       q    Type
REMARK                         _______ _______ _______ _____ _____    ______ ____
ROOT
ATOM      1  N   UNL     1     -18.740  45.350 -14.400  0.00  0.00    +0.000 NA
ATOM      2  C   UNL     1     -18.721  44.001 -14.319  0.00  0.00    +0.000 A 
ATOM      3  C   UNL     1     -18.284  43.296 -13.209  0.00  0.00    +0.000 A 
ATOM      4  C   UNL     1     -17.837  44.023 -12.110  0.00  0.00    +0.000 A 
ATOM      5  C   UNL     1     -17.842  45.413 -12.156  0.00  0.00    +0.000 A 
ATOM      6  C   UNL     1     -18.300  46.023 -13.314  0.00  0.00    +0.000 A 
ENDROOT
BRANCH   3   9
ATOM      7  O   UNL     1     -19.320  41.196 -13.323  0.00  0.00    +0.000 OA
ATOM      8  N   UNL     1     -17.037  41.227 -12.922  0.00  0.00    +0.000 N 
ATOM      9  C   UNL     1     -18.272  41.840 -13.152  0.00  0.00    +0.000 C 
ATOM     10  C   UNL     1     -16.858  39.793 -12.862  0.00  0.00    +0.000 C 
ATOM     11  H   UNL     1     -16.218  41.808 -12.775  0.00  0.00    +0.000 HD
ENDBRANCH   3   9
BRANCH   2  12
ATOM     12  N   UNL     1     -19.165  43.282 -15.418  0.00  0.00    +0.000 N 
ATOM     13  H   UNL     1     -18.626  42.462 -15.678  0.00  0.00    +0.000 HD
BRANCH  12  14
ATOM     14  C   UNL     1     -20.015  43.833 -16.445  0.00  0.00    +0.000 C 
ATOM     15  C   UNL     1     -21.452  43.366 -16.248  0.00  0.00    +0.000 C 
ATOM     16  C   UNL     1     -19.498  43.456 -17.828  0.00  0.00    +0.000 C 
ENDBRANCH  12  14
ENDBRANCH   2  12
TORSDOF 3
ENDMDL
MODEL 5
REMARK VINA RESULT:    -4.973      2.141      5.069
REMARK INTER + INTRA:          -6.383
REMARK INTER:                  -5.914
REMARK INTRA:                  -0.469
REMARK UNBOUND:                -0.538
REMARK  Name = 44769615
REMARK  6 active torsions:
REMARK  status: ('A' for Active; 'I' for Inactive)
REMARK    1  A    between atoms: N_2  and  C_5
REMARK    2  A    between atoms: N_2  and  C_6
REMARK    3  A    between atoms: N_4  and  C_14
REMARK    4  A    between atoms: C_5  and  C_7
REMARK    5  A    between atoms: C_5  and  C_8
REMARK    6  A    between atoms: C_9  and  C_11
REMARK                            x       y       z     vdW  Elec       q    Type
REMARK                         _______ _______ _______ _____ _____    ______ ____
ROOT
ATOM      1  N   UNL     1     -17.516  43.116 -11.464  0.00  0.00    +0.000 NA
ATOM      2  C   UNL     1     -18.184  42.750 -12.581  0.00  0.00    +0.000 A 
ATOM      3  C   UNL     1     -18.721  43.644 -13.493  0.00  0.00    +0.000 A 
ATOM      4  C   UNL     1     -18.560  45.003 -13.245  0.00  0.00    +0.000 A 
ATOM      5  C   UNL     1     -17.878  45.420 -12.106  0.00  0.00    +0.000 A 
ATOM      6  C   UNL     1     -17.380  44.445 -11.257  0.00  0.00    +0.000 A 
ENDROOT
BRANCH   3   9
ATOM      7  O   UNL     1     -20.305  42.329 -14.616  0.00  0.00    +0.000 OA
ATOM      8  N   UNL     1     -19.120  43.868 -15.883  0.00  0.00    +0.000 N 
ATOM      9  C   UNL     1     -19.439  43.218 -14.687  0.00  0.00    +0.000 C 
ATOM     10  C   UNL     1     -19.761  43.575 -17.145  0.00  0.00    +0.000 C 
ATOM     11  H   UNL     1     -18.391  44.576 -15.880  0.00  0.00    +0.000 HD
ENDBRANCH   3   9
BRANCH   2  12
ATOM     12  N   UNL     1     -18.343  41.394 -12.822  0.00  0.00    +0.000 N 
ATOM     13  H   UNL     1     -18.988  41.131 -13.560  0.00  0.00    +0.000 HD
BRANCH  12  14
ATOM     14  C   UNL     1     -18.032  40.367 -11.857  0.00  0.00    +0.000 C 
ATOM     15  C   UNL     1     -16.670  39.754 -12.158  0.00  0.00    +0.000 C 
ATOM     16  C   UNL     1     -19.123  39.305 -11.835  0.00  0.00    +0.000 C 
ENDBRANCH  12  14
ENDBRANCH   2  12
TORSDOF 3
ENDMDL
