MODEL 1
REMARK VINA RESULT:    -5.997      0.000      0.000
REMARK INTER + INTRA:          -6.377
REMARK INTER:                  -6.348
REMARK INTRA:                  -0.029
REMARK UNBOUND:                -0.029
REMARK  Name = 450552
REMARK  1 active torsions:
REMARK  status: ('A' for Active; 'I' for Inactive)
REMARK    1  A    between atoms: C_4  and  C_8
REMARK                            x       y       z     vdW  Elec       q    Type
REMARK                         _______ _______ _______ _____ _____    ______ ____
ROOT
ATOM      1  N   UNL     1     -20.288  39.943  -9.078  0.00  0.00    +0.000 NA
ATOM      2  C   UNL     1     -21.147  41.592  -7.534  0.00  0.00    +0.000 A 
ATOM      3  C   UNL     1     -19.875  42.133  -7.393  0.00  0.00    +0.000 A 
ATOM      4  C   UNL     1     -21.299  40.506  -8.382  0.00  0.00    +0.000 A 
ATOM      5  C   UNL     1     -18.808  41.581  -8.093  0.00  0.00    +0.000 A 
ATOM      6  C   UNL     1     -19.065  40.497  -8.916  0.00  0.00    +0.000 A 
ENDROOT
BRANCH   2   9
ATOM      7  O   UNL     1     -23.303  41.470  -6.594  0.00  0.00    +0.000 OA
ATOM      8  N   UNL     1     -22.186  43.459  -6.364  0.00  0.00    +0.000 N 
ATOM      9  C   UNL     1     -22.281  42.146  -6.816  0.00  0.00    +0.000 C 
ATOM     10  H   UNL     1     -21.392  44.072  -6.499  0.00  0.00    +0.000 HD
ATOM     11  H   UNL     1     -22.962  43.869  -5.853  0.00  0.00    +0.000 HD
ENDBRANCH   2   9
TORSDOF 1
ENDMDL
MODEL 2
REMARK VINA RESULT:    -5.984      1.092      1.692
REMARK INTER + INTRA:          -6.363
REMARK INTER:                  -6.336
REMARK INTRA:                  -0.027
REMARK UNBOUND:                -0.029
REMARK  Name = 450552
REMARK  1 active torsions:
REMARK  status: ('A' for Active; 'I' for Inactive)
REMARK    1  A    between atoms: C_4  and  C_8
REMARK                            x       y       z     vdW  Elec       q    Type
REMARK                         _______ _______ _______ _____ _____    ______ ____
ROOT
ATOM      1  N   UNL     1     -18.687  41.599  -8.118  0.00  0.00    +0.000 NA
ATOM      2  C   UNL     1     -20.978  41.736  -7.360  0.00  0.00    +0.000 A 
ATOM      3  C   UNL     1     -21.309  40.632  -8.137  0.00  0.00    +0.000 A 
ATOM      4  C   UNL     1     -19.664  42.177  -7.386  0.00  0.00    +0.000 A 
ATOM      5  C   UNL     1     -20.330  40.009  -8.905  0.00  0.00    +0.000 A 
ATOM      6  C   UNL     1     -19.046  40.527  -8.860  0.00  0.00    +0.000 A 
ENDROOT
BRANCH   2   9
ATOM      7  O   UNL     1     -23.182  42.399  -6.862  0.00  0.00    +0.000 OA
ATOM      8  N   UNL     1     -21.549  43.051  -5.391  0.00  0.00    +0.000 N 
ATOM      9  C   UNL     1     -21.977  42.407  -6.549  0.00  0.00    +0.000 C 
ATOM     10  H   UNL     1     -20.592  43.099  -5.064  0.00  0.00    +0.000 HD
ATOM     11  H   UNL     1     -22.228  43.522  -4.801  0.00  0.00    +0.000 HD
ENDBRANCH   2   9
TORSDOF 1
ENDMDL
MODEL 3
REMARK VINA RESULT:    -5.661      2.389      3.622
REMARK INTER + INTRA:          -6.021
REMARK INTER:                  -5.999
REMARK INTRA:                  -0.022
REMARK UNBOUND:                -0.029
REMARK  Name = 450552
REMARK  1 active torsions:
REMARK  status: ('A' for Active; 'I' for Inactive)
REMARK    1  A    between atoms: C_4  and  C_8
REMARK                            x       y       z     vdW  Elec       q    Type
REMARK                         _______ _______ _______ _____ _____    ______ ____
ROOT
ATOM      1  N   UNL     1     -22.326  40.805  -7.916  0.00  0.00    +0.000 NA
ATOM      2  C   UNL     1     -20.042  41.589  -7.823  0.00  0.00    +0.000 A 
ATOM      3  C   UNL     1     -20.331  42.317  -6.675  0.00  0.00    +0.000 A 
ATOM      4  C   UNL     1     -21.066  40.856  -8.401  0.00  0.00    +0.000 A 
ATOM      5  C   UNL     1     -21.616  42.290  -6.145  0.00  0.00    +0.000 A 
ATOM      6  C   UNL     1     -22.569  41.525  -6.797  0.00  0.00    +0.000 A 
ENDROOT
BRANCH   2   9
ATOM      7  O   UNL     1     -18.118  42.663  -8.655  0.00  0.00    +0.000 OA
ATOM      8  N   UNL     1     -18.100  40.370  -8.646  0.00  0.00    +0.000 N 
ATOM      9  C   UNL     1     -18.709  41.597  -8.400  0.00  0.00    +0.000 C 
ATOM     10  H   UNL     1     -18.509  39.463  -8.463  0.00  0.00    +0.000 HD
ATOM     11  H   UNL     1     -17.165  40.347  -9.042  0.00  0.00    +0.000 HD
ENDBRANCH   2   9
TORSDOF 1
ENDMDL
MODEL 4
REMARK VINA RESULT:    -5.313      3.128      4.420
REMARK INTER + INTRA:          -5.652
REMARK INTER:                  -5.634
REMARK INTRA:                  -0.018
REMARK UNBOUND:                -0.029
REMARK  Name = 450552
REMARK  1 active torsions:
REMARK  status: ('A' for Active; 'I' for Inactive)
REMARK    1  A    between atoms: C_4  and  C_8
REMARK                            x       y       z     vdW  Elec       q    Type
REMARK                         _______ _______ _______ _____ _____    ______ ____
ROOT
ATOM      1  N   UNL     1     -18.541  42.266  -8.289  0.00  0.00    +0.000 NA
ATOM      2  C   UNL     1     -19.381  40.658  -9.887  0.00  0.00    +0.000 A 
ATOM      3  C   UNL     1     -20.453  40.375  -9.049  0.00  0.00    +0.000 A 
ATOM      4  C   UNL     1     -18.460  41.604  -9.464  0.00  0.00    +0.000 A 
ATOM      5  C   UNL     1     -20.571  41.036  -7.831  0.00  0.00    +0.000 A 
ATOM      6  C   UNL     1     -19.598  41.964  -7.501  0.00  0.00    +0.000 A 
ENDROOT
BRANCH   2   9
ATOM      7  O   UNL     1     -18.505  38.981 -11.289  0.00  0.00    +0.000 OA
ATOM      8  N   UNL     1     -19.940  40.488 -12.252  0.00  0.00    +0.000 N 
ATOM      9  C   UNL     1     -19.230  39.985 -11.165  0.00  0.00    +0.000 C 
ATOM     10  H   UNL     1     -20.552  41.293 -12.233  0.00  0.00    +0.000 HD
ATOM     11  H   UNL     1     -19.858  40.032 -13.155  0.00  0.00    +0.000 HD
ENDBRANCH   2   9
TORSDOF 1
ENDMDL
MODEL 5
REMARK VINA RESULT:    -5.257      2.698      4.080
REMARK INTER + INTRA:          -5.594
REMARK INTER:                  -5.563
REMARK INTRA:                  -0.031
REMARK UNBOUND:                -0.029
REMARK  Name = 450552
REMARK  1 active torsions:
REMARK  status: ('A' for Active; 'I' for Inactive)
REMARK    1  A    between atoms: C_4  and  C_8
REMARK                            x       y       z     vdW  Elec       q    Type
REMARK                         _______ _______ _______ _____ _____    ______ ____
ROOT
ATOM      1  N   UNL     1     -21.470  40.604  -8.306  0.00  0.00    +0.000 NA
ATOM      2  C   UNL     1     -19.234  40.637  -9.222  0.00  0.00    +0.000 A 
ATOM      3  C   UNL     1     -18.862  41.606  -8.298  0.00  0.00    +0.000 A 
ATOM      4  C   UNL     1     -20.539  40.173  -9.185  0.00  0.00    +0.000 A 
ATOM      5  C   UNL     1     -19.792  42.075  -7.377  0.00  0.00    +0.000 A 
ATOM      6  C   UNL     1     -21.072  41.546  -7.422  0.00  0.00    +0.000 A 
ENDROOT
BRANCH   2   9
ATOM      7  O   UNL     1     -18.605  39.246 -11.015  0.00  0.00    +0.000 OA
ATOM      8  N   UNL     1     -17.003  40.670 -10.201  0.00  0.00    +0.000 N 
ATOM      9  C   UNL     1     -18.285  40.127 -10.196  0.00  0.00    +0.000 C 
ATOM     10  H   UNL     1     -16.667  41.390  -9.574  0.00  0.00    +0.000 HD
ATOM     11  H   UNL     1     -16.322  40.337 -10.876  0.00  0.00    +0.000 HD
ENDBRANCH   2   9
TORSDOF 1
ENDMDL
