MODEL 1
REMARK VINA RESULT:    -6.220      0.000      0.000
REMARK INTER + INTRA:          -6.220
REMARK INTER:                  -6.220
REMARK INTRA:                   0.000
REMARK UNBOUND:                 0.000
REMARK  Name = 45079619
REMARK  0 active torsions:
REMARK  status: ('A' for Active; 'I' for Inactive)
REMARK                            x       y       z     vdW  Elec       q    Type
REMARK                         _______ _______ _______ _____ _____    ______ ____
ROOT
ATOM      1  O   UNL     1     -22.974  42.848  -5.825  0.00  0.00    +0.000 OA
ATOM      2  N   UNL     1     -22.977  41.045  -7.413  0.00  0.00    +0.000 N 
ATOM      3  N   UNL     1     -21.063  40.009  -8.720  0.00  0.00    +0.000 NA
ATOM      4  C   UNL     1     -21.196  41.804  -7.110  0.00  0.00    +0.000 A 
ATOM      5  C   UNL     1     -21.712  40.806  -7.884  0.00  0.00    +0.000 A 
ATOM      6  C   UNL     1     -22.519  42.063  -6.611  0.00  0.00    +0.000 C 
ATOM      7  C   UNL     1     -19.872  42.101  -7.121  0.00  0.00    +0.000 A 
ATOM      8  C   UNL     1     -19.104  41.306  -7.979  0.00  0.00    +0.000 A 
ATOM      9  C   UNL     1     -19.732  40.294  -8.741  0.00  0.00    +0.000 A 
ATOM     10  H   UNL     1     -23.875  40.622  -7.601  0.00  0.00    +0.000 HD
ENDROOT
TORSDOF 0
ENDMDL
MODEL 2
REMARK VINA RESULT:    -6.057      1.596      2.015
REMARK INTER + INTRA:          -6.057
REMARK INTER:                  -6.057
REMARK INTRA:                   0.000
REMARK UNBOUND:                 0.000
REMARK  Name = 45079619
REMARK  0 active torsions:
REMARK  status: ('A' for Active; 'I' for Inactive)
REMARK                            x       y       z     vdW  Elec       q    Type
REMARK                         _______ _______ _______ _____ _____    ______ ____
ROOT
ATOM      1  O   UNL     1     -23.180  41.890  -6.594  0.00  0.00    +0.000 OA
ATOM      2  N   UNL     1     -20.945  42.766  -6.493  0.00  0.00    +0.000 N 
ATOM      3  N   UNL     1     -18.850  42.058  -7.742  0.00  0.00    +0.000 NA
ATOM      4  C   UNL     1     -21.134  41.273  -7.748  0.00  0.00    +0.000 A 
ATOM      5  C   UNL     1     -20.113  42.082  -7.343  0.00  0.00    +0.000 A 
ATOM      6  C   UNL     1     -22.014  41.984  -6.861  0.00  0.00    +0.000 C 
ATOM      7  C   UNL     1     -20.943  40.292  -8.667  0.00  0.00    +0.000 A 
ATOM      8  C   UNL     1     -19.633  40.192  -9.147  0.00  0.00    +0.000 A 
ATOM      9  C   UNL     1     -18.642  41.079  -8.664  0.00  0.00    +0.000 A 
ATOM     10  H   UNL     1     -20.799  43.538  -5.859  0.00  0.00    +0.000 HD
ENDROOT
TORSDOF 0
ENDMDL
MODEL 3
REMARK VINA RESULT:    -6.050      2.191      3.261
REMARK INTER + INTRA:          -6.050
REMARK INTER:                  -6.050
REMARK INTRA:                   0.000
REMARK UNBOUND:                 0.000
REMARK  Name = 45079619
REMARK  0 active torsions:
REMARK  status: ('A' for Active; 'I' for Inactive)
REMARK                            x       y       z     vdW  Elec       q    Type
REMARK                         _______ _______ _______ _____ _____    ______ ____
ROOT
ATOM      1  O   UNL     1     -18.135  40.464  -8.915  0.00  0.00    +0.000 OA
ATOM      2  N   UNL     1     -20.471  39.979  -9.200  0.00  0.00    +0.000 N 
ATOM      3  N   UNL     1     -22.486  40.796  -7.888  0.00  0.00    +0.000 NA
ATOM      4  C   UNL     1     -20.112  41.200  -7.710  0.00  0.00    +0.000 A 
ATOM      5  C   UNL     1     -21.225  40.638  -8.263  0.00  0.00    +0.000 A 
ATOM      6  C   UNL     1     -19.313  40.513  -8.688  0.00  0.00    +0.000 C 
ATOM      7  C   UNL     1     -20.191  42.037  -6.644  0.00  0.00    +0.000 A 
ATOM      8  C   UNL     1     -21.490  42.263  -6.177  0.00  0.00    +0.000 A 
ATOM      9  C   UNL     1     -22.582  41.633  -6.819  0.00  0.00    +0.000 A 
ATOM     10  H   UNL     1     -20.705  39.353  -9.956  0.00  0.00    +0.000 HD
ENDROOT
TORSDOF 0
ENDMDL
MODEL 4
REMARK VINA RESULT:    -5.675      2.939      4.018
REMARK INTER + INTRA:          -5.675
REMARK INTER:                  -5.675
REMARK INTRA:                   0.000
REMARK UNBOUND:                 0.000
REMARK  Name = 45079619
REMARK  0 active torsions:
REMARK  status: ('A' for Active; 'I' for Inactive)
REMARK                            x       y       z     vdW  Elec       q    Type
REMARK                         _______ _______ _______ _____ _____    ______ ____
ROOT
ATOM      1  O   UNL     1     -19.090  39.347 -10.588  0.00  0.00    +0.000 OA
ATOM      2  N   UNL     1     -18.172  40.949  -9.052  0.00  0.00    +0.000 N 
ATOM      3  N   UNL     1     -19.293  42.265  -7.192  0.00  0.00    +0.000 NA
ATOM      4  C   UNL     1     -20.089  40.641  -8.791  0.00  0.00    +0.000 A 
ATOM      5  C   UNL     1     -19.139  41.423  -8.202  0.00  0.00    +0.000 A 
ATOM      6  C   UNL     1     -19.082  40.139  -9.686  0.00  0.00    +0.000 C 
ATOM      7  C   UNL     1     -21.380  40.649  -8.370  0.00  0.00    +0.000 A 
ATOM      8  C   UNL     1     -21.636  41.514  -7.301  0.00  0.00    +0.000 A 
ATOM      9  C   UNL     1     -20.583  42.285  -6.757  0.00  0.00    +0.000 A 
ATOM     10  H   UNL     1     -17.185  41.141  -9.148  0.00  0.00    +0.000 HD
ENDROOT
TORSDOF 0
ENDMDL
MODEL 5
REMARK VINA RESULT:    -5.059      2.221      3.000
REMARK INTER + INTRA:          -5.059
REMARK INTER:                  -5.059
REMARK INTRA:                   0.000
REMARK UNBOUND:                 0.000
REMARK  Name = 45079619
REMARK  0 active torsions:
REMARK  status: ('A' for Active; 'I' for Inactive)
REMARK                            x       y       z     vdW  Elec       q    Type
REMARK                         _______ _______ _______ _____ _____    ______ ____
ROOT
ATOM      1  O   UNL     1     -20.787  41.741  -7.438  0.00  0.00    +0.000 OA
ATOM      2  N   UNL     1     -20.745  39.902  -8.984  0.00  0.00    +0.000 N 
ATOM      3  N   UNL     1     -19.092  39.352 -10.831  0.00  0.00    +0.000 NA
ATOM      4  C   UNL     1     -19.251  41.147  -9.223  0.00  0.00    +0.000 A 
ATOM      5  C   UNL     1     -19.663  39.993  -9.822  0.00  0.00    +0.000 A 
ATOM      6  C   UNL     1     -20.381  41.061  -8.339  0.00  0.00    +0.000 C 
ATOM      7  C   UNL     1     -18.133  41.801  -9.631  0.00  0.00    +0.000 A 
ATOM      8  C   UNL     1     -17.461  41.194 -10.697  0.00  0.00    +0.000 A 
ATOM      9  C   UNL     1     -17.968  39.996 -11.251  0.00  0.00    +0.000 A 
ATOM     10  H   UNL     1     -21.496  39.234  -8.898  0.00  0.00    +0.000 HD
ENDROOT
TORSDOF 0
ENDMDL
