MODEL 1
REMARK VINA RESULT:    -5.615      0.000      0.000
REMARK INTER + INTRA:          -6.635
REMARK INTER:                  -6.272
REMARK INTRA:                  -0.363
REMARK UNBOUND:                -0.363
REMARK  Name = 45079607
REMARK  2 active torsions:
REMARK  status: ('A' for Active; 'I' for Inactive)
REMARK    1  A    between atoms: N_3  and  C_6
REMARK    2  A    between atoms: C_5  and  C_10
REMARK                            x       y       z     vdW  Elec       q    Type
REMARK                         _______ _______ _______ _____ _____    ______ ____
ROOT
ATOM      1  N   UNL     1     -18.598  42.225  -8.084  0.00  0.00    +0.000 NA
ATOM      2  C   UNL     1     -19.547  40.554  -9.551  0.00  0.00    +0.000 A 
ATOM      3  C   UNL     1     -18.544  41.434  -9.179  0.00  0.00    +0.000 A 
ATOM      4  C   UNL     1     -20.680  40.482  -8.748  0.00  0.00    +0.000 A 
ATOM      5  C   UNL     1     -20.772  41.280  -7.613  0.00  0.00    +0.000 A 
ATOM      6  C   UNL     1     -19.714  42.127  -7.327  0.00  0.00    +0.000 A 
ENDROOT
BRANCH   3   8
ATOM      7  O   UNL     1     -17.647  43.550 -11.159  0.00  0.00    +0.000 OA
ATOM      8  N   UNL     1     -17.395  41.516  -9.979  0.00  0.00    +0.000 N 
ATOM      9  C   UNL     1     -17.050  42.524 -10.868  0.00  0.00    +0.000 C 
ATOM     10  H   UNL     1     -16.726  40.757  -9.913  0.00  0.00    +0.000 HD
ENDBRANCH   3   8
BRANCH   2  12
ATOM     11  O   UNL     1     -18.449  39.082 -11.040  0.00  0.00    +0.000 OA
ATOM     12  C   UNL     1     -19.461  39.716 -10.739  0.00  0.00    +0.000 C 
ENDBRANCH   2  12
TORSDOF 2
ENDMDL
MODEL 2
REMARK VINA RESULT:    -5.085      1.997      2.772
REMARK INTER + INTRA:          -6.043
REMARK INTER:                  -5.809
REMARK INTRA:                  -0.234
REMARK UNBOUND:                -0.363
REMARK  Name = 45079607
REMARK  2 active torsions:
REMARK  status: ('A' for Active; 'I' for Inactive)
REMARK    1  A    between atoms: N_3  and  C_6
REMARK    2  A    between atoms: C_5  and  C_10
REMARK                            x       y       z     vdW  Elec       q    Type
REMARK                         _______ _______ _______ _____ _____    ______ ____
ROOT
ATOM      1  N   UNL     1     -20.353  39.859  -9.394  0.00  0.00    +0.000 NA
ATOM      2  C   UNL     1     -18.272  41.000  -9.857  0.00  0.00    +0.000 A 
ATOM      3  C   UNL     1     -19.246  40.058 -10.145  0.00  0.00    +0.000 A 
ATOM      4  C   UNL     1     -18.444  41.790  -8.726  0.00  0.00    +0.000 A 
ATOM      5  C   UNL     1     -19.570  41.615  -7.929  0.00  0.00    +0.000 A 
ATOM      6  C   UNL     1     -20.486  40.646  -8.303  0.00  0.00    +0.000 A 
ENDROOT
BRANCH   3   8
ATOM      7  O   UNL     1     -19.738  40.647 -13.081  0.00  0.00    +0.000 OA
ATOM      8  N   UNL     1     -19.085  39.255 -11.284  0.00  0.00    +0.000 N 
ATOM      9  C   UNL     1     -19.332  39.596 -12.606  0.00  0.00    +0.000 C 
ATOM     10  H   UNL     1     -18.749  38.308 -11.142  0.00  0.00    +0.000 HD
ENDBRANCH   3   8
BRANCH   2  12
ATOM     11  O   UNL     1     -16.306  40.276 -10.955  0.00  0.00    +0.000 OA
ATOM     12  C   UNL     1     -17.088  41.189 -10.685  0.00  0.00    +0.000 C 
ENDBRANCH   2  12
TORSDOF 2
ENDMDL
MODEL 3
REMARK VINA RESULT:    -4.814      2.001      3.603
REMARK INTER + INTRA:          -5.740
REMARK INTER:                  -5.361
REMARK INTRA:                  -0.378
REMARK UNBOUND:                -0.363
REMARK  Name = 45079607
REMARK  2 active torsions:
REMARK  status: ('A' for Active; 'I' for Inactive)
REMARK    1  A    between atoms: N_3  and  C_6
REMARK    2  A    between atoms: C_5  and  C_10
REMARK                            x       y       z     vdW  Elec       q    Type
REMARK                         _______ _______ _______ _____ _____    ______ ____
ROOT
ATOM      1  N   UNL     1     -17.454  42.866 -10.516  0.00  0.00    +0.000 NA
ATOM      2  C   UNL     1     -18.043  40.921 -11.825  0.00  0.00    +0.000 A 
ATOM      3  C   UNL     1     -17.741  41.550 -10.628  0.00  0.00    +0.000 A 
ATOM      4  C   UNL     1     -18.051  41.692 -12.982  0.00  0.00    +0.000 A 
ATOM      5  C   UNL     1     -17.762  43.049 -12.907  0.00  0.00    +0.000 A 
ATOM      6  C   UNL     1     -17.472  43.584 -11.662  0.00  0.00    +0.000 A 
ENDROOT
BRANCH   3   8
ATOM      7  O   UNL     1     -19.638  41.509  -8.261  0.00  0.00    +0.000 OA
ATOM      8  N   UNL     1     -17.729  40.784  -9.453  0.00  0.00    +0.000 N 
ATOM      9  C   UNL     1     -18.638  40.820  -8.406  0.00  0.00    +0.000 C 
ATOM     10  H   UNL     1     -16.972  40.118  -9.340  0.00  0.00    +0.000 HD
ENDBRANCH   3   8
BRANCH   2  12
ATOM     11  O   UNL     1     -19.256  38.965 -11.278  0.00  0.00    +0.000 OA
ATOM     12  C   UNL     1     -18.346  39.498 -11.914  0.00  0.00    +0.000 C 
ENDBRANCH   2  12
TORSDOF 2
ENDMDL
MODEL 4
REMARK VINA RESULT:    -4.721      3.233      4.394
REMARK INTER + INTRA:          -5.636
REMARK INTER:                  -5.306
REMARK INTRA:                  -0.330
REMARK UNBOUND:                -0.363
REMARK  Name = 45079607
REMARK  2 active torsions:
REMARK  status: ('A' for Active; 'I' for Inactive)
REMARK    1  A    between atoms: N_3  and  C_6
REMARK    2  A    between atoms: C_5  and  C_10
REMARK                            x       y       z     vdW  Elec       q    Type
REMARK                         _______ _______ _______ _____ _____    ______ ____
ROOT
ATOM      1  N   UNL     1     -19.000  40.342 -13.188  0.00  0.00    +0.000 NA
ATOM      2  C   UNL     1     -18.163  42.001 -11.641  0.00  0.00    +0.000 A 
ATOM      3  C   UNL     1     -18.514  41.573 -12.910  0.00  0.00    +0.000 A 
ATOM      4  C   UNL     1     -18.320  41.108 -10.586  0.00  0.00    +0.000 A 
ATOM      5  C   UNL     1     -18.817  39.832 -10.832  0.00  0.00    +0.000 A 
ATOM      6  C   UNL     1     -19.138  39.502 -12.138  0.00  0.00    +0.000 A 
ENDROOT
BRANCH   3   8
ATOM      7  O   UNL     1     -20.554  42.758 -14.819  0.00  0.00    +0.000 OA
ATOM      8  N   UNL     1     -18.362  42.464 -13.983  0.00  0.00    +0.000 N 
ATOM      9  C   UNL     1     -19.349  42.967 -14.817  0.00  0.00    +0.000 C 
ATOM     10  H   UNL     1     -17.423  42.791 -14.186  0.00  0.00    +0.000 HD
ENDBRANCH   3   8
BRANCH   2  12
ATOM     11  O   UNL     1     -16.610  43.767 -11.892  0.00  0.00    +0.000 OA
ATOM     12  C   UNL     1     -17.640  43.334 -11.373  0.00  0.00    +0.000 C 
ENDBRANCH   2  12
TORSDOF 2
ENDMDL
MODEL 5
REMARK VINA RESULT:    -4.586      3.640      4.818
REMARK INTER + INTRA:          -5.486
REMARK INTER:                  -5.179
REMARK INTRA:                  -0.306
REMARK UNBOUND:                -0.363
REMARK  Name = 45079607
REMARK  2 active torsions:
REMARK  status: ('A' for Active; 'I' for Inactive)
REMARK    1  A    between atoms: N_3  and  C_6
REMARK    2  A    between atoms: C_5  and  C_10
REMARK                            x       y       z     vdW  Elec       q    Type
REMARK                         _______ _______ _______ _____ _____    ______ ____
ROOT
ATOM      1  N   UNL     1     -16.799  41.206 -11.987  0.00  0.00    +0.000 NA
ATOM      2  C   UNL     1     -18.421  42.711 -12.962  0.00  0.00    +0.000 A 
ATOM      3  C   UNL     1     -17.943  41.445 -12.667  0.00  0.00    +0.000 A 
ATOM      4  C   UNL     1     -17.677  43.804 -12.532  0.00  0.00    +0.000 A 
ATOM      5  C   UNL     1     -16.495  43.599 -11.829  0.00  0.00    +0.000 A 
ATOM      6  C   UNL     1     -16.103  42.293 -11.585  0.00  0.00    +0.000 A 
ENDROOT
BRANCH   3   8
ATOM      7  O   UNL     1     -19.158  39.144 -11.105  0.00  0.00    +0.000 OA
ATOM      8  N   UNL     1     -18.684  40.333 -13.094  0.00  0.00    +0.000 N 
ATOM      9  C   UNL     1     -19.212  39.313 -12.315  0.00  0.00    +0.000 C 
ATOM     10  H   UNL     1     -18.866  40.249 -14.088  0.00  0.00    +0.000 HD
ENDBRANCH   3   8
BRANCH   2  12
ATOM     11  O   UNL     1     -19.853  42.493 -14.831  0.00  0.00    +0.000 OA
ATOM     12  C   UNL     1     -19.658  42.935 -13.698  0.00  0.00    +0.000 C 
ENDBRANCH   2  12
TORSDOF 2
ENDMDL
