MODEL 1
REMARK VINA RESULT:    -6.831      0.000      0.000
REMARK INTER + INTRA:          -7.885
REMARK INTER:                  -7.829
REMARK INTRA:                  -0.056
REMARK UNBOUND:                -0.056
REMARK  Name = 45084631
REMARK  3 active torsions:
REMARK  status: ('A' for Active; 'I' for Inactive)
REMARK    1  A    between atoms: N_3  and  C_7
REMARK    2  A    between atoms: C_6  and  C_10
REMARK    3  A    between atoms: C_9  and  C_12
REMARK                            x       y       z     vdW  Elec       q    Type
REMARK                         _______ _______ _______ _____ _____    ______ ____
ROOT
ATOM      1  N   UNL     1     -19.095  41.847  -7.152  0.00  0.00    +0.000 NA
ATOM      2  C   UNL     1     -21.436  41.335  -7.480  0.00  0.00    +0.000 A 
ATOM      3  C   UNL     1     -20.393  41.919  -6.779  0.00  0.00    +0.000 A 
ATOM      4  C   UNL     1     -21.127  40.632  -8.639  0.00  0.00    +0.000 A 
ATOM      5  C   UNL     1     -19.804  40.536  -9.056  0.00  0.00    +0.000 A 
ATOM      6  C   UNL     1     -18.834  41.155  -8.284  0.00  0.00    +0.000 A 
ENDROOT
BRANCH   2   9
ATOM      7  O   UNL     1     -23.223  42.386  -6.363  0.00  0.00    +0.000 OA
ATOM      8  N   UNL     1     -23.698  40.431  -7.464  0.00  0.00    +0.000 N 
ATOM      9  C   UNL     1     -22.825  41.434  -7.054  0.00  0.00    +0.000 C 
ATOM     10  H   UNL     1     -23.392  39.649  -8.033  0.00  0.00    +0.000 HD
ATOM     11  H   UNL     1     -24.678  40.453  -7.200  0.00  0.00    +0.000 HD
ENDBRANCH   2   9
BRANCH   3  12
ATOM     12  N   UNL     1     -20.701  42.637  -5.596  0.00  0.00    +0.000 N 
ATOM     13  H   UNL     1     -20.595  42.171  -4.704  0.00  0.00    +0.000 HD
ATOM     14  H   UNL     1     -21.421  43.346  -5.673  0.00  0.00    +0.000 HD
ENDBRANCH   3  12
BRANCH   5  16
ATOM     15  N   UNL     1     -19.173  39.239 -11.204  0.00  0.00    +0.000 NA
ATOM     16  C   UNL     1     -19.456  39.821 -10.240  0.00  0.00    +0.000 C 
ENDBRANCH   5  16
TORSDOF 3
ENDMDL
MODEL 2
REMARK VINA RESULT:    -5.683      3.592      6.163
REMARK INTER + INTRA:          -6.569
REMARK INTER:                  -6.266
REMARK INTRA:                  -0.303
REMARK UNBOUND:                -0.056
REMARK  Name = 45084631
REMARK  3 active torsions:
REMARK  status: ('A' for Active; 'I' for Inactive)
REMARK    1  A    between atoms: N_3  and  C_7
REMARK    2  A    between atoms: C_6  and  C_10
REMARK    3  A    between atoms: C_9  and  C_12
REMARK                            x       y       z     vdW  Elec       q    Type
REMARK                         _______ _______ _______ _____ _____    ______ ____
ROOT
ATOM      1  N   UNL     1     -18.907  39.488 -10.924  0.00  0.00    +0.000 NA
ATOM      2  C   UNL     1     -17.329  41.310 -11.115  0.00  0.00    +0.000 A 
ATOM      3  C   UNL     1     -17.917  40.142 -11.572  0.00  0.00    +0.000 A 
ATOM      4  C   UNL     1     -17.786  41.842  -9.915  0.00  0.00    +0.000 A 
ATOM      5  C   UNL     1     -18.803  41.198  -9.219  0.00  0.00    +0.000 A 
ATOM      6  C   UNL     1     -19.325  40.035  -9.760  0.00  0.00    +0.000 A 
ENDROOT
BRANCH   2   9
ATOM      7  O   UNL     1     -16.487  42.576 -12.914  0.00  0.00    +0.000 OA
ATOM      8  N   UNL     1     -14.994  41.986 -11.276  0.00  0.00    +0.000 N 
ATOM      9  C   UNL     1     -16.266  41.993 -11.839  0.00  0.00    +0.000 C 
ATOM     10  H   UNL     1     -14.796  41.520 -10.397  0.00  0.00    +0.000 HD
ATOM     11  H   UNL     1     -14.217  42.451 -11.735  0.00  0.00    +0.000 HD
ENDBRANCH   2   9
BRANCH   3  12
ATOM     12  N   UNL     1     -17.455  39.594 -12.796  0.00  0.00    +0.000 N 
ATOM     13  H   UNL     1     -18.086  39.573 -13.587  0.00  0.00    +0.000 HD
ATOM     14  H   UNL     1     -16.764  38.856 -12.728  0.00  0.00    +0.000 HD
ENDBRANCH   3  12
BRANCH   5  16
ATOM     15  N   UNL     1     -19.692  42.143  -6.980  0.00  0.00    +0.000 NA
ATOM     16  C   UNL     1     -19.293  41.719  -7.984  0.00  0.00    +0.000 C 
ENDBRANCH   5  16
TORSDOF 3
ENDMDL
MODEL 3
REMARK VINA RESULT:    -5.484      3.549      5.454
REMARK INTER + INTRA:          -6.341
REMARK INTER:                  -6.051
REMARK INTRA:                  -0.290
REMARK UNBOUND:                -0.056
REMARK  Name = 45084631
REMARK  3 active torsions:
REMARK  status: ('A' for Active; 'I' for Inactive)
REMARK    1  A    between atoms: N_3  and  C_7
REMARK    2  A    between atoms: C_6  and  C_10
REMARK    3  A    between atoms: C_9  and  C_12
REMARK                            x       y       z     vdW  Elec       q    Type
REMARK                         _______ _______ _______ _____ _____    ______ ____
ROOT
ATOM      1  N   UNL     1     -18.790  40.705 -13.337  0.00  0.00    +0.000 NA
ATOM      2  C   UNL     1     -18.779  40.963 -10.932  0.00  0.00    +0.000 A 
ATOM      3  C   UNL     1     -19.055  40.253 -12.089  0.00  0.00    +0.000 A 
ATOM      4  C   UNL     1     -18.194  42.218 -11.063  0.00  0.00    +0.000 A 
ATOM      5  C   UNL     1     -17.907  42.716 -12.328  0.00  0.00    +0.000 A 
ATOM      6  C   UNL     1     -18.221  41.928 -13.423  0.00  0.00    +0.000 A 
ENDROOT
BRANCH   2   9
ATOM      7  O   UNL     1     -20.199  40.010  -9.313  0.00  0.00    +0.000 OA
ATOM      8  N   UNL     1     -18.042  40.447  -8.668  0.00  0.00    +0.000 N 
ATOM      9  C   UNL     1     -19.073  40.448  -9.602  0.00  0.00    +0.000 C 
ATOM     10  H   UNL     1     -17.115  40.795  -8.889  0.00  0.00    +0.000 HD
ATOM     11  H   UNL     1     -18.190  40.094  -7.728  0.00  0.00    +0.000 HD
ENDBRANCH   2   9
BRANCH   3  12
ATOM     12  N   UNL     1     -19.651  38.973 -11.964  0.00  0.00    +0.000 N 
ATOM     13  H   UNL     1     -20.597  38.844 -12.298  0.00  0.00    +0.000 HD
ATOM     14  H   UNL     1     -19.351  38.411 -11.176  0.00  0.00    +0.000 HD
ENDBRANCH   3  12
BRANCH   5  16
ATOM     15  N   UNL     1     -16.819  45.045 -12.630  0.00  0.00    +0.000 NA
ATOM     16  C   UNL     1     -17.307  44.000 -12.494  0.00  0.00    +0.000 C 
ENDBRANCH   5  16
TORSDOF 3
ENDMDL
MODEL 4
REMARK VINA RESULT:    -5.335      3.651      5.672
REMARK INTER + INTRA:          -6.171
REMARK INTER:                  -5.915
REMARK INTRA:                  -0.255
REMARK UNBOUND:                -0.056
REMARK  Name = 45084631
REMARK  3 active torsions:
REMARK  status: ('A' for Active; 'I' for Inactive)
REMARK    1  A    between atoms: N_3  and  C_7
REMARK    2  A    between atoms: C_6  and  C_10
REMARK    3  A    between atoms: C_9  and  C_12
REMARK                            x       y       z     vdW  Elec       q    Type
REMARK                         _______ _______ _______ _____ _____    ______ ____
ROOT
ATOM      1  N   UNL     1     -17.110  42.893 -10.690  0.00  0.00    +0.000 NA
ATOM      2  C   UNL     1     -18.084  40.830 -11.494  0.00  0.00    +0.000 A 
ATOM      3  C   UNL     1     -17.278  41.947 -11.642  0.00  0.00    +0.000 A 
ATOM      4  C   UNL     1     -18.763  40.673 -10.290  0.00  0.00    +0.000 A 
ATOM      5  C   UNL     1     -18.616  41.624  -9.287  0.00  0.00    +0.000 A 
ATOM      6  C   UNL     1     -17.786  42.706  -9.534  0.00  0.00    +0.000 A 
ENDROOT
BRANCH   2   9
ATOM      7  O   UNL     1     -17.269  39.418 -13.193  0.00  0.00    +0.000 OA
ATOM      8  N   UNL     1     -19.520  39.327 -12.764  0.00  0.00    +0.000 N 
ATOM      9  C   UNL     1     -18.242  39.827 -12.537  0.00  0.00    +0.000 C 
ATOM     10  H   UNL     1     -20.325  39.644 -12.234  0.00  0.00    +0.000 HD
ATOM     11  H   UNL     1     -19.685  38.622 -13.475  0.00  0.00    +0.000 HD
ENDBRANCH   2   9
BRANCH   3  12
ATOM     12  N   UNL     1     -16.583  42.113 -12.867  0.00  0.00    +0.000 N 
ATOM     13  H   UNL     1     -16.066  42.969 -13.019  0.00  0.00    +0.000 HD
ATOM     14  H   UNL     1     -16.983  41.657 -13.678  0.00  0.00    +0.000 HD
ENDBRANCH   3  12
BRANCH   5  16
ATOM     15  N   UNL     1     -19.855  41.384  -7.028  0.00  0.00    +0.000 NA
ATOM     16  C   UNL     1     -19.299  41.491  -8.041  0.00  0.00    +0.000 C 
ENDBRANCH   5  16
TORSDOF 3
ENDMDL
MODEL 5
REMARK VINA RESULT:    -5.247      4.093      5.379
REMARK INTER + INTRA:          -6.069
REMARK INTER:                  -5.808
REMARK INTRA:                  -0.262
REMARK UNBOUND:                -0.056
REMARK  Name = 45084631
REMARK  3 active torsions:
REMARK  status: ('A' for Active; 'I' for Inactive)
REMARK    1  A    between atoms: N_3  and  C_7
REMARK    2  A    between atoms: C_6  and  C_10
REMARK    3  A    between atoms: C_9  and  C_12
REMARK                            x       y       z     vdW  Elec       q    Type
REMARK                         _______ _______ _______ _____ _____    ______ ____
ROOT
ATOM      1  N   UNL     1     -17.614  43.363 -11.696  0.00  0.00    +0.000 NA
ATOM      2  C   UNL     1     -18.860  41.292 -11.623  0.00  0.00    +0.000 A 
ATOM      3  C   UNL     1     -17.984  42.217 -11.080  0.00  0.00    +0.000 A 
ATOM      4  C   UNL     1     -19.392  41.560 -12.880  0.00  0.00    +0.000 A 
ATOM      5  C   UNL     1     -19.036  42.728 -13.545  0.00  0.00    +0.000 A 
ATOM      6  C   UNL     1     -18.152  43.589 -12.916  0.00  0.00    +0.000 A 
ENDROOT
BRANCH   2   9
ATOM      7  O   UNL     1     -19.518  40.068  -9.722  0.00  0.00    +0.000 OA
ATOM      8  N   UNL     1     -19.305  38.898 -11.683  0.00  0.00    +0.000 N 
ATOM      9  C   UNL     1     -19.242  40.068 -10.933  0.00  0.00    +0.000 C 
ATOM     10  H   UNL     1     -19.089  38.880 -12.674  0.00  0.00    +0.000 HD
ATOM     11  H   UNL     1     -19.570  38.017 -11.254  0.00  0.00    +0.000 HD
ENDBRANCH   2   9
BRANCH   3  12
ATOM     12  N   UNL     1     -17.438  41.951  -9.799  0.00  0.00    +0.000 N 
ATOM     13  H   UNL     1     -16.432  41.962  -9.689  0.00  0.00    +0.000 HD
ATOM     14  H   UNL     1     -17.969  41.326  -9.204  0.00  0.00    +0.000 HD
ENDBRANCH   3  12
BRANCH   5  16
ATOM     15  N   UNL     1     -19.995  43.275 -15.885  0.00  0.00    +0.000 NA
ATOM     16  C   UNL     1     -19.565  43.030 -14.835  0.00  0.00    +0.000 C 
ENDBRANCH   5  16
TORSDOF 3
ENDMDL
