MODEL 1
REMARK VINA RESULT:    -5.989      0.000      0.000
REMARK INTER + INTRA:          -6.801
REMARK INTER:                  -6.690
REMARK INTRA:                  -0.111
REMARK UNBOUND:                -0.111
REMARK  Name = 45081094
REMARK  2 active torsions:
REMARK  status: ('A' for Active; 'I' for Inactive)
REMARK    1  A    between atoms: C_5  and  C_7
REMARK    2  A    between atoms: C_7  and  C_11
REMARK                            x       y       z     vdW  Elec       q    Type
REMARK                         _______ _______ _______ _____ _____    ______ ____
ROOT
ATOM      1  N   UNL     1     -18.846  42.227  -7.930  0.00  0.00    +0.000 NA
ATOM      2  N   UNL     1     -20.578  42.560  -6.328  0.00  0.00    +0.000 N 
ATOM      3  C   UNL     1     -19.106  40.524  -9.625  0.00  0.00    +0.000 A 
ATOM      4  C   UNL     1     -20.352  40.188  -9.107  0.00  0.00    +0.000 A 
ATOM      5  C   UNL     1     -18.399  41.542  -9.005  0.00  0.00    +0.000 A 
ATOM      6  C   UNL     1     -20.846  40.871  -8.002  0.00  0.00    +0.000 A 
ATOM      7  C   UNL     1     -20.061  41.873  -7.455  0.00  0.00    +0.000 A 
ATOM      8  H   UNL     1     -21.584  42.631  -6.226  0.00  0.00    +0.000 HD
ATOM      9  H   UNL     1     -20.005  43.296  -5.936  0.00  0.00    +0.000 HD
ENDROOT
BRANCH   3  11
ATOM     10  O   UNL     1     -19.225  38.933 -11.342  0.00  0.00    +0.000 OA
ATOM     11  C   UNL     1     -18.562  39.829 -10.779  0.00  0.00    +0.000 C 
BRANCH  11  13
ATOM     12 BR   UNL     1     -17.261  41.433 -12.778  0.00  0.00    +0.000 Br
ATOM     13  C   UNL     1     -17.165  40.197 -11.283  0.00  0.00    +0.000 C 
ENDBRANCH  11  13
ENDBRANCH   3  11
TORSDOF 2
ENDMDL
MODEL 2
REMARK VINA RESULT:    -5.872      3.662      4.930
REMARK INTER + INTRA:          -6.670
REMARK INTER:                  -6.606
REMARK INTRA:                  -0.064
REMARK UNBOUND:                -0.111
REMARK  Name = 45081094
REMARK  2 active torsions:
REMARK  status: ('A' for Active; 'I' for Inactive)
REMARK    1  A    between atoms: C_5  and  C_7
REMARK    2  A    between atoms: C_7  and  C_11
REMARK                            x       y       z     vdW  Elec       q    Type
REMARK                         _______ _______ _______ _____ _____    ______ ____
ROOT
ATOM      1  N   UNL     1     -18.963  39.417 -10.894  0.00  0.00    +0.000 NA
ATOM      2  N   UNL     1     -17.214  39.584 -12.503  0.00  0.00    +0.000 N 
ATOM      3  C   UNL     1     -19.154  41.096  -9.166  0.00  0.00    +0.000 A 
ATOM      4  C   UNL     1     -18.044  41.759  -9.678  0.00  0.00    +0.000 A 
ATOM      5  C   UNL     1     -19.570  39.939  -9.805  0.00  0.00    +0.000 A 
ATOM      6  C   UNL     1     -17.393  41.253 -10.797  0.00  0.00    +0.000 A 
ATOM      7  C   UNL     1     -17.888  40.089 -11.363  0.00  0.00    +0.000 A 
ATOM      8  H   UNL     1     -16.727  40.238 -13.103  0.00  0.00    +0.000 HD
ATOM      9  H   UNL     1     -17.582  38.737 -12.917  0.00  0.00    +0.000 HD
ENDROOT
BRANCH   3  11
ATOM     10  O   UNL     1     -19.248  42.279  -7.145  0.00  0.00    +0.000 OA
ATOM     11  C   UNL     1     -19.855  41.601  -7.999  0.00  0.00    +0.000 C 
BRANCH  11  13
ATOM     12 BR   UNL     1     -22.174  42.483  -6.545  0.00  0.00    +0.000 Br
ATOM     13  C   UNL     1     -21.341  41.278  -7.822  0.00  0.00    +0.000 C 
ENDBRANCH  11  13
ENDBRANCH   3  11
TORSDOF 2
ENDMDL
MODEL 3
REMARK VINA RESULT:    -5.615      1.923      2.414
REMARK INTER + INTRA:          -6.382
REMARK INTER:                  -6.271
REMARK INTRA:                  -0.111
REMARK UNBOUND:                -0.111
REMARK  Name = 45081094
REMARK  2 active torsions:
REMARK  status: ('A' for Active; 'I' for Inactive)
REMARK    1  A    between atoms: C_5  and  C_7
REMARK    2  A    between atoms: C_7  and  C_11
REMARK                            x       y       z     vdW  Elec       q    Type
REMARK                         _______ _______ _______ _____ _____    ______ ____
ROOT
ATOM      1  N   UNL     1     -22.117  41.273  -7.629  0.00  0.00    +0.000 NA
ATOM      2  N   UNL     1     -22.574  42.821  -5.876  0.00  0.00    +0.000 N 
ATOM      3  C   UNL     1     -19.852  41.029  -8.437  0.00  0.00    +0.000 A 
ATOM      4  C   UNL     1     -19.416  41.987  -7.528  0.00  0.00    +0.000 A 
ATOM      5  C   UNL     1     -21.200  40.711  -8.448  0.00  0.00    +0.000 A 
ATOM      6  C   UNL     1     -20.329  42.588  -6.669  0.00  0.00    +0.000 A 
ATOM      7  C   UNL     1     -21.656  42.200  -6.758  0.00  0.00    +0.000 A 
ATOM      8  H   UNL     1     -22.233  43.157  -4.983  0.00  0.00    +0.000 HD
ATOM      9  H   UNL     1     -23.541  42.530  -5.940  0.00  0.00    +0.000 HD
ENDROOT
BRANCH   3  11
ATOM     10  O   UNL     1     -17.705  40.338  -9.076  0.00  0.00    +0.000 OA
ATOM     11  C   UNL     1     -18.923  40.383  -9.348  0.00  0.00    +0.000 C 
BRANCH  11  13
ATOM     12 BR   UNL     1     -19.266  41.017 -12.131  0.00  0.00    +0.000 Br
ATOM     13  C   UNL     1     -19.452  39.775 -10.649  0.00  0.00    +0.000 C 
ENDBRANCH  11  13
ENDBRANCH   3  11
TORSDOF 2
ENDMDL
MODEL 4
REMARK VINA RESULT:    -5.038      3.752      4.830
REMARK INTER + INTRA:          -5.739
REMARK INTER:                  -5.619
REMARK INTRA:                  -0.120
REMARK UNBOUND:                -0.111
REMARK  Name = 45081094
REMARK  2 active torsions:
REMARK  status: ('A' for Active; 'I' for Inactive)
REMARK    1  A    between atoms: C_5  and  C_7
REMARK    2  A    between atoms: C_7  and  C_11
REMARK                            x       y       z     vdW  Elec       q    Type
REMARK                         _______ _______ _______ _____ _____    ______ ____
ROOT
ATOM      1  N   UNL     1     -19.429  42.031 -13.756  0.00  0.00    +0.000 NA
ATOM      2  N   UNL     1     -18.502  44.086 -14.529  0.00  0.00    +0.000 N 
ATOM      3  C   UNL     1     -18.831  41.209 -11.563  0.00  0.00    +0.000 A 
ATOM      4  C   UNL     1     -18.013  42.315 -11.363  0.00  0.00    +0.000 A 
ATOM      5  C   UNL     1     -19.511  41.114 -12.766  0.00  0.00    +0.000 A 
ATOM      6  C   UNL     1     -17.903  43.280 -12.357  0.00  0.00    +0.000 A 
ATOM      7  C   UNL     1     -18.625  43.094 -13.525  0.00  0.00    +0.000 A 
ATOM      8  H   UNL     1     -18.288  45.034 -14.246  0.00  0.00    +0.000 HD
ATOM      9  H   UNL     1     -19.036  43.949 -15.378  0.00  0.00    +0.000 HD
ENDROOT
BRANCH   3  11
ATOM     10  O   UNL     1     -19.234  39.008 -10.866  0.00  0.00    +0.000 OA
ATOM     11  C   UNL     1     -18.967  40.183 -10.543  0.00  0.00    +0.000 C 
BRANCH  11  13
ATOM     12 BR   UNL     1     -20.508  40.961  -8.244  0.00  0.00    +0.000 Br
ATOM     13  C   UNL     1     -18.795  40.566  -9.071  0.00  0.00    +0.000 C 
ENDBRANCH  11  13
ENDBRANCH   3  11
TORSDOF 2
ENDMDL
MODEL 5
REMARK VINA RESULT:    -4.918      2.034      2.677
REMARK INTER + INTRA:          -5.605
REMARK INTER:                  -5.440
REMARK INTRA:                  -0.165
REMARK UNBOUND:                -0.111
REMARK  Name = 45081094
REMARK  2 active torsions:
REMARK  status: ('A' for Active; 'I' for Inactive)
REMARK    1  A    between atoms: C_5  and  C_7
REMARK    2  A    between atoms: C_7  and  C_11
REMARK                            x       y       z     vdW  Elec       q    Type
REMARK                         _______ _______ _______ _____ _____    ______ ____
ROOT
ATOM      1  N   UNL     1     -19.532  39.793  -9.655  0.00  0.00    +0.000 NA
ATOM      2  N   UNL     1     -19.772  40.718  -7.472  0.00  0.00    +0.000 N 
ATOM      3  C   UNL     1     -18.135  40.919 -11.275  0.00  0.00    +0.000 A 
ATOM      4  C   UNL     1     -17.838  41.907 -10.343  0.00  0.00    +0.000 A 
ATOM      5  C   UNL     1     -18.980  39.892 -10.885  0.00  0.00    +0.000 A 
ATOM      6  C   UNL     1     -18.386  41.840  -9.068  0.00  0.00    +0.000 A 
ATOM      7  C   UNL     1     -19.220  40.773  -8.776  0.00  0.00    +0.000 A 
ATOM      8  H   UNL     1     -19.256  41.142  -6.712  0.00  0.00    +0.000 HD
ATOM      9  H   UNL     1     -20.376  39.933  -7.261  0.00  0.00    +0.000 HD
ENDROOT
BRANCH   3  11
ATOM     10  O   UNL     1     -17.059  39.939 -13.113  0.00  0.00    +0.000 OA
ATOM     11  C   UNL     1     -17.576  40.961 -12.615  0.00  0.00    +0.000 C 
BRANCH  11  13
ATOM     12 BR   UNL     1     -19.444  42.827 -13.753  0.00  0.00    +0.000 Br
ATOM     13  C   UNL     1     -17.615  42.274 -13.400  0.00  0.00    +0.000 C 
ENDBRANCH  11  13
ENDBRANCH   3  11
TORSDOF 2
ENDMDL
