MODEL 1
REMARK VINA RESULT:    -6.195      0.000      0.000
REMARK INTER + INTRA:          -8.952
REMARK INTER:                  -8.368
REMARK INTRA:                  -0.584
REMARK UNBOUND:                -0.584
REMARK  Name = 47080109
REMARK  10 active torsions:
REMARK  status: ('A' for Active; 'I' for Inactive)
REMARK    1  A    between atoms: N_2  and  C_5
REMARK    2  A    between atoms: N_3  and  C_12
REMARK    3  A    between atoms: N_3  and  C_13
REMARK    4  A    between atoms: C_5  and  C_6
REMARK    5  A    between atoms: C_5  and  C_8
REMARK    6  A    between atoms: C_6  and  C_7
REMARK    7  A    between atoms: C_7  and  C_9
REMARK    8  A    between atoms: C_10  and  C_14
REMARK    9  A    between atoms: C_12  and  C_18
REMARK   10  A    between atoms: C_13  and  C_19
REMARK                            x       y       z     vdW  Elec       q    Type
REMARK                         _______ _______ _______ _____ _____    ______ ____
ROOT
ATOM      1  N   UNL     1     -19.284  44.301 -15.550  0.00  0.00    +0.000 N 
ATOM      2  N   UNL     1     -19.817  42.427 -14.178  0.00  0.00    +0.000 NA
ATOM      3  C   UNL     1     -19.091  43.553 -14.363  0.00  0.00    +0.000 A 
ATOM      4  C   UNL     1     -18.685  42.144 -12.061  0.00  0.00    +0.000 A 
ATOM      5  C   UNL     1     -18.157  44.030 -13.456  0.00  0.00    +0.000 A 
ATOM      6  C   UNL     1     -17.956  43.307 -12.286  0.00  0.00    +0.000 A 
ATOM      7  C   UNL     1     -19.595  41.751 -13.029  0.00  0.00    +0.000 A 
ENDROOT
BRANCH   4  10
ATOM      8  O   UNL     1     -17.390  40.864 -10.584  0.00  0.00    +0.000 OA
ATOM      9  N   UNL     1     -19.603  41.234  -9.997  0.00  0.00    +0.000 N 
ATOM     10  C   UNL     1     -18.493  41.348 -10.821  0.00  0.00    +0.000 C 
ATOM     11  H   UNL     1     -20.484  41.664 -10.256  0.00  0.00    +0.000 HD
BRANCH   9  12
ATOM     12  C   UNL     1     -19.568  40.514  -8.746  0.00  0.00    +0.000 C 
ATOM     13  C   UNL     1     -20.770  39.578  -8.658  0.00  0.00    +0.000 C 
BRANCH  12  14
ATOM     14  C   UNL     1     -19.535  41.474  -7.549  0.00  0.00    +0.000 C 
BRANCH  14  15
ATOM     15  C   UNL     1     -20.931  41.941  -7.130  0.00  0.00    +0.000 C 
ATOM     16  C   UNL     1     -21.044  42.071  -5.619  0.00  0.00    +0.000 C 
ENDBRANCH  14  15
ENDBRANCH  12  14
ENDBRANCH   9  12
ENDBRANCH   4  10
BRANCH   1  17
ATOM     17  C   UNL     1     -20.237  43.856 -16.543  0.00  0.00    +0.000 C 
ATOM     18  C   UNL     1     -19.513  43.420 -17.802  0.00  0.00    +0.000 C 
ENDBRANCH   1  17
BRANCH   1  19
ATOM     19  C   UNL     1     -18.524  45.509 -15.780  0.00  0.00    +0.000 C 
ATOM     20  C   UNL     1     -19.461  46.676 -16.030  0.00  0.00    +0.000 C 
ENDBRANCH   1  19
TORSDOF 6
ENDMDL
MODEL 2
REMARK VINA RESULT:    -5.355      1.824      2.400
REMARK INTER + INTRA:          -7.817
REMARK INTER:                  -7.258
REMARK INTRA:                  -0.559
REMARK UNBOUND:                -0.584
REMARK  Name = 47080109
REMARK  10 active torsions:
REMARK  status: ('A' for Active; 'I' for Inactive)
REMARK    1  A    between atoms: N_2  and  C_5
REMARK    2  A    between atoms: N_3  and  C_12
REMARK    3  A    between atoms: N_3  and  C_13
REMARK    4  A    between atoms: C_5  and  C_6
REMARK    5  A    between atoms: C_5  and  C_8
REMARK    6  A    between atoms: C_6  and  C_7
REMARK    7  A    between atoms: C_7  and  C_9
REMARK    8  A    between atoms: C_10  and  C_14
REMARK    9  A    between atoms: C_12  and  C_18
REMARK   10  A    between atoms: C_13  and  C_19
REMARK                            x       y       z     vdW  Elec       q    Type
REMARK                         _______ _______ _______ _____ _____    ______ ____
ROOT
ATOM      1  N   UNL     1     -17.016  45.885 -14.717  0.00  0.00    +0.000 N 
ATOM      2  N   UNL     1     -18.397  44.443 -13.417  0.00  0.00    +0.000 NA
ATOM      3  C   UNL     1     -17.155  44.862 -13.746  0.00  0.00    +0.000 A 
ATOM      4  C   UNL     1     -17.373  42.892 -11.871  0.00  0.00    +0.000 A 
ATOM      5  C   UNL     1     -15.992  44.353 -13.190  0.00  0.00    +0.000 A 
ATOM      6  C   UNL     1     -16.111  43.349 -12.236  0.00  0.00    +0.000 A 
ATOM      7  C   UNL     1     -18.474  43.467 -12.485  0.00  0.00    +0.000 A 
ENDROOT
BRANCH   4  10
ATOM      8  O   UNL     1     -16.752  40.874 -10.851  0.00  0.00    +0.000 OA
ATOM      9  N   UNL     1     -18.573  41.993  -9.952  0.00  0.00    +0.000 N 
ATOM     10  C   UNL     1     -17.535  41.820 -10.854  0.00  0.00    +0.000 C 
ATOM     11  H   UNL     1     -19.179  42.803 -10.013  0.00  0.00    +0.000 HD
BRANCH   9  12
ATOM     12  C   UNL     1     -18.842  41.051  -8.891  0.00  0.00    +0.000 C 
ATOM     13  C   UNL     1     -19.806  39.979  -9.388  0.00  0.00    +0.000 C 
BRANCH  12  14
ATOM     14  C   UNL     1     -19.403  41.755  -7.647  0.00  0.00    +0.000 C 
BRANCH  14  15
ATOM     15  C   UNL     1     -20.914  41.562  -7.493  0.00  0.00    +0.000 C 
ATOM     16  C   UNL     1     -21.380  41.918  -6.089  0.00  0.00    +0.000 C 
ENDBRANCH  14  15
ENDBRANCH  12  14
ENDBRANCH   9  12
ENDBRANCH   4  10
BRANCH   1  17
ATOM     17  C   UNL     1     -18.188  46.457 -15.343  0.00  0.00    +0.000 C 
ATOM     18  C   UNL     1     -18.500  47.809 -14.730  0.00  0.00    +0.000 C 
ENDBRANCH   1  17
BRANCH   1  19
ATOM     19  C   UNL     1     -15.702  46.357 -15.093  0.00  0.00    +0.000 C 
ATOM     20  C   UNL     1     -15.543  46.311 -16.601  0.00  0.00    +0.000 C 
ENDBRANCH   1  19
TORSDOF 6
ENDMDL
MODEL 3
REMARK VINA RESULT:    -5.279      2.666      7.720
REMARK INTER + INTRA:          -7.715
REMARK INTER:                  -7.016
REMARK INTRA:                  -0.699
REMARK UNBOUND:                -0.584
REMARK  Name = 47080109
REMARK  10 active torsions:
REMARK  status: ('A' for Active; 'I' for Inactive)
REMARK    1  A    between atoms: N_2  and  C_5
REMARK    2  A    between atoms: N_3  and  C_12
REMARK    3  A    between atoms: N_3  and  C_13
REMARK    4  A    between atoms: C_5  and  C_6
REMARK    5  A    between atoms: C_5  and  C_8
REMARK    6  A    between atoms: C_6  and  C_7
REMARK    7  A    between atoms: C_7  and  C_9
REMARK    8  A    between atoms: C_10  and  C_14
REMARK    9  A    between atoms: C_12  and  C_18
REMARK   10  A    between atoms: C_13  and  C_19
REMARK                            x       y       z     vdW  Elec       q    Type
REMARK                         _______ _______ _______ _____ _____    ______ ____
ROOT
ATOM      1  N   UNL     1     -18.575  41.877 -11.352  0.00  0.00    +0.000 N 
ATOM      2  N   UNL     1     -17.952  43.904 -12.439  0.00  0.00    +0.000 NA
ATOM      3  C   UNL     1     -18.666  42.756 -12.460  0.00  0.00    +0.000 A 
ATOM      4  C   UNL     1     -18.873  44.418 -14.614  0.00  0.00    +0.000 A 
ATOM      5  C   UNL     1     -19.492  42.376 -13.506  0.00  0.00    +0.000 A 
ATOM      6  C   UNL     1     -19.591  43.228 -14.600  0.00  0.00    +0.000 A 
ATOM      7  C   UNL     1     -18.074  44.707 -13.519  0.00  0.00    +0.000 A 
ENDROOT
BRANCH   4  10
ATOM      8  O   UNL     1     -17.927  45.847 -16.214  0.00  0.00    +0.000 OA
ATOM      9  N   UNL     1     -20.228  45.570 -16.277  0.00  0.00    +0.000 N 
ATOM     10  C   UNL     1     -18.957  45.350 -15.768  0.00  0.00    +0.000 C 
ATOM     11  H   UNL     1     -21.036  45.122 -15.859  0.00  0.00    +0.000 HD
BRANCH   9  12
ATOM     12  C   UNL     1     -20.471  46.430 -17.412  0.00  0.00    +0.000 C 
ATOM     13  C   UNL     1     -20.826  47.832 -16.927  0.00  0.00    +0.000 C 
BRANCH  12  14
ATOM     14  C   UNL     1     -21.578  45.867 -18.313  0.00  0.00    +0.000 C 
BRANCH  14  15
ATOM     15  C   UNL     1     -22.311  44.684 -17.675  0.00  0.00    +0.000 C 
ATOM     16  C   UNL     1     -23.665  45.102 -17.123  0.00  0.00    +0.000 C 
ENDBRANCH  14  15
ENDBRANCH  12  14
ENDBRANCH   9  12
ENDBRANCH   4  10
BRANCH   1  17
ATOM     17  C   UNL     1     -17.726  42.207 -10.229  0.00  0.00    +0.000 C 
ATOM     18  C   UNL     1     -18.477  41.999  -8.928  0.00  0.00    +0.000 C 
ENDBRANCH   1  17
BRANCH   1  19
ATOM     19  C   UNL     1     -19.325  40.641 -11.342  0.00  0.00    +0.000 C 
ATOM     20  C   UNL     1     -18.395  39.464 -11.570  0.00  0.00    +0.000 C 
ENDBRANCH   1  19
TORSDOF 6
ENDMDL
MODEL 4
REMARK VINA RESULT:    -5.223      2.540      7.514
REMARK INTER + INTRA:          -7.639
REMARK INTER:                  -7.067
REMARK INTRA:                  -0.572
REMARK UNBOUND:                -0.584
REMARK  Name = 47080109
REMARK  10 active torsions:
REMARK  status: ('A' for Active; 'I' for Inactive)
REMARK    1  A    between atoms: N_2  and  C_5
REMARK    2  A    between atoms: N_3  and  C_12
REMARK    3  A    between atoms: N_3  and  C_13
REMARK    4  A    between atoms: C_5  and  C_6
REMARK    5  A    between atoms: C_5  and  C_8
REMARK    6  A    between atoms: C_6  and  C_7
REMARK    7  A    between atoms: C_7  and  C_9
REMARK    8  A    between atoms: C_10  and  C_14
REMARK    9  A    between atoms: C_12  and  C_18
REMARK   10  A    between atoms: C_13  and  C_19
REMARK                            x       y       z     vdW  Elec       q    Type
REMARK                         _______ _______ _______ _____ _____    ______ ____
ROOT
ATOM      1  N   UNL     1     -18.656  41.698 -11.319  0.00  0.00    +0.000 N 
ATOM      2  N   UNL     1     -19.566  42.321 -13.431  0.00  0.00    +0.000 NA
ATOM      3  C   UNL     1     -18.722  42.597 -12.412  0.00  0.00    +0.000 A 
ATOM      4  C   UNL     1     -18.814  44.358 -14.495  0.00  0.00    +0.000 A 
ATOM      5  C   UNL     1     -17.905  43.716 -12.363  0.00  0.00    +0.000 A 
ATOM      6  C   UNL     1     -17.958  44.608 -13.428  0.00  0.00    +0.000 A 
ATOM      7  C   UNL     1     -19.590  43.210 -14.449  0.00  0.00    +0.000 A 
ENDROOT
BRANCH   4  10
ATOM      8  O   UNL     1     -17.888  45.902 -15.996  0.00  0.00    +0.000 OA
ATOM      9  N   UNL     1     -20.131  45.382 -16.269  0.00  0.00    +0.000 N 
ATOM     10  C   UNL     1     -18.894  45.291 -15.648  0.00  0.00    +0.000 C 
ATOM     11  H   UNL     1     -20.920  44.844 -15.928  0.00  0.00    +0.000 HD
BRANCH   9  12
ATOM     12  C   UNL     1     -20.361  46.227 -17.417  0.00  0.00    +0.000 C 
ATOM     13  C   UNL     1     -20.596  47.663 -16.959  0.00  0.00    +0.000 C 
BRANCH  12  14
ATOM     14  C   UNL     1     -21.544  45.721 -18.256  0.00  0.00    +0.000 C 
BRANCH  14  15
ATOM     15  C   UNL     1     -22.896  46.164 -17.692  0.00  0.00    +0.000 C 
ATOM     16  C   UNL     1     -23.644  44.999 -17.062  0.00  0.00    +0.000 C 
ENDBRANCH  14  15
ENDBRANCH  12  14
ENDBRANCH   9  12
ENDBRANCH   4  10
BRANCH   1  17
ATOM     17  C   UNL     1     -19.486  40.513 -11.301  0.00  0.00    +0.000 C 
ATOM     18  C   UNL     1     -18.677  39.302 -11.723  0.00  0.00    +0.000 C 
ENDBRANCH   1  17
BRANCH   1  19
ATOM     19  C   UNL     1     -17.764  41.962 -10.212  0.00  0.00    +0.000 C 
ATOM     20  C   UNL     1     -18.512  41.839  -8.899  0.00  0.00    +0.000 C 
ENDBRANCH   1  19
TORSDOF 6
ENDMDL
MODEL 5
REMARK VINA RESULT:    -5.199      1.905      2.794
REMARK INTER + INTRA:          -7.607
REMARK INTER:                  -7.031
REMARK INTRA:                  -0.575
REMARK UNBOUND:                -0.584
REMARK  Name = 47080109
REMARK  10 active torsions:
REMARK  status: ('A' for Active; 'I' for Inactive)
REMARK    1  A    between atoms: N_2  and  C_5
REMARK    2  A    between atoms: N_3  and  C_12
REMARK    3  A    between atoms: N_3  and  C_13
REMARK    4  A    between atoms: C_5  and  C_6
REMARK    5  A    between atoms: C_5  and  C_8
REMARK    6  A    between atoms: C_6  and  C_7
REMARK    7  A    between atoms: C_7  and  C_9
REMARK    8  A    between atoms: C_10  and  C_14
REMARK    9  A    between atoms: C_12  and  C_18
REMARK   10  A    between atoms: C_13  and  C_19
REMARK                            x       y       z     vdW  Elec       q    Type
REMARK                         _______ _______ _______ _____ _____    ______ ____
ROOT
ATOM      1  N   UNL     1     -20.670  44.920 -16.878  0.00  0.00    +0.000 N 
ATOM      2  N   UNL     1     -20.068  43.110 -15.451  0.00  0.00    +0.000 NA
ATOM      3  C   UNL     1     -19.850  44.381 -15.856  0.00  0.00    +0.000 A 
ATOM      4  C   UNL     1     -18.248  43.386 -13.884  0.00  0.00    +0.000 A 
ATOM      5  C   UNL     1     -18.866  45.204 -15.331  0.00  0.00    +0.000 A 
ATOM      6  C   UNL     1     -18.054  44.690 -14.327  0.00  0.00    +0.000 A 
ATOM      7  C   UNL     1     -19.260  42.644 -14.473  0.00  0.00    +0.000 A 
ENDROOT
BRANCH   4  10
ATOM      8  O   UNL     1     -16.283  43.283 -12.608  0.00  0.00    +0.000 OA
ATOM      9  N   UNL     1     -17.955  41.760 -12.095  0.00  0.00    +0.000 N 
ATOM     10  C   UNL     1     -17.397  42.806 -12.812  0.00  0.00    +0.000 C 
ATOM     11  H   UNL     1     -18.884  41.419 -12.318  0.00  0.00    +0.000 HD
BRANCH   9  12
ATOM     12  C   UNL     1     -17.262  41.109 -11.008  0.00  0.00    +0.000 C 
ATOM     13  C   UNL     1     -16.735  39.755 -11.472  0.00  0.00    +0.000 C 
BRANCH  12  14
ATOM     14  C   UNL     1     -18.172  40.950  -9.781  0.00  0.00    +0.000 C 
BRANCH  14  15
ATOM     15  C   UNL     1     -19.453  40.173 -10.096  0.00  0.00    +0.000 C 
ATOM     16  C   UNL     1     -20.327  40.019  -8.860  0.00  0.00    +0.000 C 
ENDBRANCH  14  15
ENDBRANCH  12  14
ENDBRANCH   9  12
ENDBRANCH   4  10
BRANCH   1  17
ATOM     17  C   UNL     1     -21.711  44.114 -17.476  0.00  0.00    +0.000 C 
ATOM     18  C   UNL     1     -21.341  43.758 -18.903  0.00  0.00    +0.000 C 
ENDBRANCH   1  17
BRANCH   1  19
ATOM     19  C   UNL     1     -20.464  46.276 -17.336  0.00  0.00    +0.000 C 
ATOM     20  C   UNL     1     -21.778  47.033 -17.332  0.00  0.00    +0.000 C 
ENDBRANCH   1  19
TORSDOF 6
ENDMDL
