MODEL 1
REMARK VINA RESULT:    -5.823      0.000      0.000
REMARK INTER + INTRA:          -6.824
REMARK INTER:                  -6.844
REMARK INTRA:                   0.020
REMARK UNBOUND:                 0.020
REMARK  Name = 47156621
REMARK  6 active torsions:
REMARK  status: ('A' for Active; 'I' for Inactive)
REMARK    1  A    between atoms: N_2  and  C_5
REMARK    2  A    between atoms: N_2  and  C_6
REMARK    3  A    between atoms: N_4  and  C_15
REMARK    4  A    between atoms: C_5  and  C_8
REMARK    5  A    between atoms: C_6  and  C_9
REMARK    6  A    between atoms: C_11  and  C_14
REMARK                            x       y       z     vdW  Elec       q    Type
REMARK                         _______ _______ _______ _____ _____    ______ ____
ROOT
ATOM      1  N   UNL     1     -16.860  40.857 -11.235  0.00  0.00    +0.000 N 
ATOM      2  N   UNL     1     -18.877  40.061 -10.247  0.00  0.00    +0.000 NA
ATOM      3  C   UNL     1     -17.911  41.005 -10.295  0.00  0.00    +0.000 A 
ATOM      4  C   UNL     1     -17.876  42.122  -9.476  0.00  0.00    +0.000 A 
ATOM      5  C   UNL     1     -19.912  41.331  -8.470  0.00  0.00    +0.000 A 
ATOM      6  C   UNL     1     -18.900  42.280  -8.548  0.00  0.00    +0.000 A 
ATOM      7  C   UNL     1     -19.856  40.249  -9.334  0.00  0.00    +0.000 A 
ENDROOT
BRANCH   5  10
ATOM      8  O   UNL     1     -22.091  40.913  -7.710  0.00  0.00    +0.000 OA
ATOM      9  N   UNL     1     -20.737  42.228  -6.363  0.00  0.00    +0.000 N 
ATOM     10  C   UNL     1     -20.995  41.469  -7.512  0.00  0.00    +0.000 C 
ATOM     11  C   UNL     1     -21.703  42.437  -5.308  0.00  0.00    +0.000 C 
ATOM     12  H   UNL     1     -19.807  42.598  -6.200  0.00  0.00    +0.000 HD
ENDBRANCH   5  10
BRANCH   1  13
ATOM     13  C   UNL     1     -16.829  39.710 -12.116  0.00  0.00    +0.000 C 
ATOM     14  C   UNL     1     -17.792  39.911 -13.271  0.00  0.00    +0.000 C 
ENDBRANCH   1  13
BRANCH   1  15
ATOM     15  C   UNL     1     -15.810  41.847 -11.313  0.00  0.00    +0.000 C 
ATOM     16  C   UNL     1     -16.133  42.869 -12.386  0.00  0.00    +0.000 C 
ENDBRANCH   1  15
TORSDOF 3
ENDMDL
MODEL 2
REMARK VINA RESULT:    -5.777      0.728      2.009
REMARK INTER + INTRA:          -6.770
REMARK INTER:                  -6.780
REMARK INTRA:                   0.010
REMARK UNBOUND:                 0.020
REMARK  Name = 47156621
REMARK  6 active torsions:
REMARK  status: ('A' for Active; 'I' for Inactive)
REMARK    1  A    between atoms: N_2  and  C_5
REMARK    2  A    between atoms: N_2  and  C_6
REMARK    3  A    between atoms: N_4  and  C_15
REMARK    4  A    between atoms: C_5  and  C_8
REMARK    5  A    between atoms: C_6  and  C_9
REMARK    6  A    between atoms: C_11  and  C_14
REMARK                            x       y       z     vdW  Elec       q    Type
REMARK                         _______ _______ _______ _____ _____    ______ ____
ROOT
ATOM      1  N   UNL     1     -16.980  40.767 -10.996  0.00  0.00    +0.000 N 
ATOM      2  N   UNL     1     -17.998  42.027  -9.248  0.00  0.00    +0.000 NA
ATOM      3  C   UNL     1     -18.050  40.969 -10.088  0.00  0.00    +0.000 A 
ATOM      4  C   UNL     1     -19.092  40.058 -10.123  0.00  0.00    +0.000 A 
ATOM      5  C   UNL     1     -20.130  41.319  -8.359  0.00  0.00    +0.000 A 
ATOM      6  C   UNL     1     -20.149  40.243  -9.239  0.00  0.00    +0.000 A 
ATOM      7  C   UNL     1     -19.041  42.175  -8.402  0.00  0.00    +0.000 A 
ENDROOT
BRANCH   5  10
ATOM      8  O   UNL     1     -22.332  41.014  -7.609  0.00  0.00    +0.000 OA
ATOM      9  N   UNL     1     -20.947  42.341  -6.306  0.00  0.00    +0.000 N 
ATOM     10  C   UNL     1     -21.219  41.539  -7.422  0.00  0.00    +0.000 C 
ATOM     11  C   UNL     1     -21.917  42.633  -5.274  0.00  0.00    +0.000 C 
ATOM     12  H   UNL     1     -20.006  42.685  -6.147  0.00  0.00    +0.000 HD
ENDBRANCH   5  10
BRANCH   1  13
ATOM     13  C   UNL     1     -15.863  41.686 -11.020  0.00  0.00    +0.000 C 
ATOM     14  C   UNL     1     -16.173  42.863 -11.925  0.00  0.00    +0.000 C 
ENDBRANCH   1  13
BRANCH   1  15
ATOM     15  C   UNL     1     -17.004  39.647 -11.909  0.00  0.00    +0.000 C 
ATOM     16  C   UNL     1     -17.678  40.045 -13.208  0.00  0.00    +0.000 C 
ENDBRANCH   1  15
TORSDOF 3
ENDMDL
MODEL 3
REMARK VINA RESULT:    -5.409      4.522      5.676
REMARK INTER + INTRA:          -6.338
REMARK INTER:                  -6.014
REMARK INTRA:                  -0.324
REMARK UNBOUND:                 0.020
REMARK  Name = 47156621
REMARK  6 active torsions:
REMARK  status: ('A' for Active; 'I' for Inactive)
REMARK    1  A    between atoms: N_2  and  C_5
REMARK    2  A    between atoms: N_2  and  C_6
REMARK    3  A    between atoms: N_4  and  C_15
REMARK    4  A    between atoms: C_5  and  C_8
REMARK    5  A    between atoms: C_6  and  C_9
REMARK    6  A    between atoms: C_11  and  C_14
REMARK                            x       y       z     vdW  Elec       q    Type
REMARK                         _______ _______ _______ _____ _____    ______ ____
ROOT
ATOM      1  N   UNL     1     -19.909  43.921 -16.062  0.00  0.00    +0.000 N 
ATOM      2  N   UNL     1     -19.872  42.308 -14.308  0.00  0.00    +0.000 NA
ATOM      3  C   UNL     1     -19.427  43.486 -14.802  0.00  0.00    +0.000 A 
ATOM      4  C   UNL     1     -18.520  44.306 -14.151  0.00  0.00    +0.000 A 
ATOM      5  C   UNL     1     -18.473  42.687 -12.374  0.00  0.00    +0.000 A 
ATOM      6  C   UNL     1     -18.038  43.892 -12.915  0.00  0.00    +0.000 A 
ATOM      7  C   UNL     1     -19.383  41.939 -13.103  0.00  0.00    +0.000 A 
ENDROOT
BRANCH   5  10
ATOM      8  O   UNL     1     -17.004  42.767 -10.547  0.00  0.00    +0.000 OA
ATOM      9  N   UNL     1     -18.691  41.178 -10.476  0.00  0.00    +0.000 N 
ATOM     10  C   UNL     1     -17.989  42.228 -11.084  0.00  0.00    +0.000 C 
ATOM     11  C   UNL     1     -18.348  40.627  -9.185  0.00  0.00    +0.000 C 
ATOM     12  H   UNL     1     -19.537  40.819 -10.907  0.00  0.00    +0.000 HD
ENDBRANCH   5  10
BRANCH   1  13
ATOM     13  C   UNL     1     -20.852  43.110 -16.800  0.00  0.00    +0.000 C 
ATOM     14  C   UNL     1     -22.259  43.643 -16.613  0.00  0.00    +0.000 C 
ENDBRANCH   1  13
BRANCH   1  15
ATOM     15  C   UNL     1     -19.454  45.175 -16.620  0.00  0.00    +0.000 C 
ATOM     16  C   UNL     1     -19.046  44.985 -18.068  0.00  0.00    +0.000 C 
ENDBRANCH   1  15
TORSDOF 3
ENDMDL
MODEL 4
REMARK VINA RESULT:    -5.245      4.586      6.838
REMARK INTER + INTRA:          -6.145
REMARK INTER:                  -5.844
REMARK INTRA:                  -0.301
REMARK UNBOUND:                 0.020
REMARK  Name = 47156621
REMARK  6 active torsions:
REMARK  status: ('A' for Active; 'I' for Inactive)
REMARK    1  A    between atoms: N_2  and  C_5
REMARK    2  A    between atoms: N_2  and  C_6
REMARK    3  A    between atoms: N_4  and  C_15
REMARK    4  A    between atoms: C_5  and  C_8
REMARK    5  A    between atoms: C_6  and  C_9
REMARK    6  A    between atoms: C_11  and  C_14
REMARK                            x       y       z     vdW  Elec       q    Type
REMARK                         _______ _______ _______ _____ _____    ______ ____
ROOT
ATOM      1  N   UNL     1     -18.633  41.810 -11.471  0.00  0.00    +0.000 N 
ATOM      2  N   UNL     1     -19.665  42.216 -13.581  0.00  0.00    +0.000 NA
ATOM      3  C   UNL     1     -18.783  42.607 -12.634  0.00  0.00    +0.000 A 
ATOM      4  C   UNL     1     -18.006  43.751 -12.723  0.00  0.00    +0.000 A 
ATOM      5  C   UNL     1     -19.038  44.173 -14.853  0.00  0.00    +0.000 A 
ATOM      6  C   UNL     1     -18.142  44.544 -13.857  0.00  0.00    +0.000 A 
ATOM      7  C   UNL     1     -19.769  43.010 -14.670  0.00  0.00    +0.000 A 
ENDROOT
BRANCH   5  10
ATOM      8  O   UNL     1     -19.447  46.197 -15.966  0.00  0.00    +0.000 OA
ATOM      9  N   UNL     1     -19.052  44.329 -17.283  0.00  0.00    +0.000 N 
ATOM     10  C   UNL     1     -19.203  44.979 -16.050  0.00  0.00    +0.000 C 
ATOM     11  C   UNL     1     -19.162  44.998 -18.559  0.00  0.00    +0.000 C 
ATOM     12  H   UNL     1     -18.774  43.354 -17.310  0.00  0.00    +0.000 HD
ENDBRANCH   5  10
BRANCH   1  13
ATOM     13  C   UNL     1     -19.419  40.607 -11.308  0.00  0.00    +0.000 C 
ATOM     14  C   UNL     1     -18.594  39.390 -11.679  0.00  0.00    +0.000 C 
ENDBRANCH   1  13
BRANCH   1  15
ATOM     15  C   UNL     1     -17.700  42.200 -10.438  0.00  0.00    +0.000 C 
ATOM     16  C   UNL     1     -18.337  42.041  -9.071  0.00  0.00    +0.000 C 
ENDBRANCH   1  15
TORSDOF 3
ENDMDL
MODEL 5
REMARK VINA RESULT:    -5.158      3.734      6.489
REMARK INTER + INTRA:          -6.043
REMARK INTER:                  -5.704
REMARK INTRA:                  -0.339
REMARK UNBOUND:                 0.020
REMARK  Name = 47156621
REMARK  6 active torsions:
REMARK  status: ('A' for Active; 'I' for Inactive)
REMARK    1  A    between atoms: N_2  and  C_5
REMARK    2  A    between atoms: N_2  and  C_6
REMARK    3  A    between atoms: N_4  and  C_15
REMARK    4  A    between atoms: C_5  and  C_8
REMARK    5  A    between atoms: C_6  and  C_9
REMARK    6  A    between atoms: C_11  and  C_14
REMARK                            x       y       z     vdW  Elec       q    Type
REMARK                         _______ _______ _______ _____ _____    ______ ____
ROOT
ATOM      1  N   UNL     1     -18.311  41.147 -11.048  0.00  0.00    +0.000 N 
ATOM      2  N   UNL     1     -18.255  42.729 -12.828  0.00  0.00    +0.000 NA
ATOM      3  C   UNL     1     -17.672  42.218 -11.721  0.00  0.00    +0.000 A 
ATOM      4  C   UNL     1     -16.477  42.677 -11.191  0.00  0.00    +0.000 A 
ATOM      5  C   UNL     1     -16.407  44.279 -12.983  0.00  0.00    +0.000 A 
ATOM      6  C   UNL     1     -15.839  43.728 -11.840  0.00  0.00    +0.000 A 
ATOM      7  C   UNL     1     -17.605  43.749 -13.433  0.00  0.00    +0.000 A 
ENDROOT
BRANCH   5  10
ATOM      8  O   UNL     1     -15.083  46.214 -13.062  0.00  0.00    +0.000 OA
ATOM      9  N   UNL     1     -15.930  45.431 -15.074  0.00  0.00    +0.000 N 
ATOM     10  C   UNL     1     -15.764  45.378 -13.683  0.00  0.00    +0.000 C 
ATOM     11  C   UNL     1     -15.334  46.446 -15.912  0.00  0.00    +0.000 C 
ATOM     12  H   UNL     1     -16.425  44.686 -15.553  0.00  0.00    +0.000 HD
ENDBRANCH   5  10
BRANCH   1  13
ATOM     13  C   UNL     1     -19.566  40.623 -11.541  0.00  0.00    +0.000 C 
ATOM     14  C   UNL     1     -19.339  39.302 -12.251  0.00  0.00    +0.000 C 
ENDBRANCH   1  13
BRANCH   1  15
ATOM     15  C   UNL     1     -17.716  40.576  -9.860  0.00  0.00    +0.000 C 
ATOM     16  C   UNL     1     -18.581  40.870  -8.650  0.00  0.00    +0.000 C 
ENDBRANCH   1  15
TORSDOF 3
ENDMDL
