MODEL 1
REMARK VINA RESULT:    -5.590      0.000      0.000
REMARK INTER + INTRA:          -7.044
REMARK INTER:                  -6.571
REMARK INTRA:                  -0.474
REMARK UNBOUND:                -0.474
REMARK  Name = 47167267
REMARK  8 active torsions:
REMARK  status: ('A' for Active; 'I' for Inactive)
REMARK    1  A    between atoms: N_2  and  C_6
REMARK    2  A    between atoms: N_3  and  C_16
REMARK    3  A    between atoms: N_3  and  C_17
REMARK    4  A    between atoms: C_5  and  C_6
REMARK    5  A    between atoms: C_5  and  C_7
REMARK    6  A    between atoms: C_5  and  C_8
REMARK    7  A    between atoms: C_6  and  C_9
REMARK    8  A    between atoms: C_10  and  C_11
REMARK                            x       y       z     vdW  Elec       q    Type
REMARK                         _______ _______ _______ _____ _____    ______ ____
ROOT
ATOM      1  O   UNL     1     -19.900  40.952 -13.105  0.00  0.00    +0.000 OA
ATOM      2  N   UNL     1     -17.933  41.583 -12.050  0.00  0.00    +0.000 N 
ATOM      3  C   UNL     1     -18.991  41.758 -12.930  0.00  0.00    +0.000 C 
ATOM      4  H   UNL     1     -17.164  42.244 -12.050  0.00  0.00    +0.000 HD
ENDROOT
BRANCH   3   7
ATOM      5  N   UNL     1     -18.974  46.485 -15.992  0.00  0.00    +0.000 N 
ATOM      6  N   UNL     1     -19.521  44.176 -15.769  0.00  0.00    +0.000 NA
ATOM      7  C   UNL     1     -18.975  43.017 -13.718  0.00  0.00    +0.000 A 
ATOM      8  C   UNL     1     -18.430  44.184 -13.196  0.00  0.00    +0.000 A 
ATOM      9  C   UNL     1     -19.503  43.065 -14.998  0.00  0.00    +0.000 A 
ATOM     10  C   UNL     1     -18.982  45.291 -15.227  0.00  0.00    +0.000 A 
ATOM     11  C   UNL     1     -18.429  45.347 -13.958  0.00  0.00    +0.000 A 
ATOM     12  C   UNL     1     -19.528  46.496 -17.328  0.00  0.00    +0.000 C 
ATOM     13  C   UNL     1     -18.406  47.696 -15.443  0.00  0.00    +0.000 C 
ENDBRANCH   3   7
BRANCH   2  14
ATOM     14  C   UNL     1     -17.795  40.400 -11.232  0.00  0.00    +0.000 C 
ATOM     15  C   UNL     1     -16.385  39.830 -11.374  0.00  0.00    +0.000 C 
BRANCH  14  16
ATOM     16  C   UNL     1     -18.191  40.656  -9.758  0.00  0.00    +0.000 C 
ATOM     17  C   UNL     1     -19.586  40.098  -9.453  0.00  0.00    +0.000 C 
ATOM     18  C   UNL     1     -18.124  42.131  -9.352  0.00  0.00    +0.000 C 
ENDBRANCH  14  16
ENDBRANCH   2  14
TORSDOF 3
ENDMDL
MODEL 2
REMARK VINA RESULT:    -5.392      2.043      6.771
REMARK INTER + INTRA:          -6.811
REMARK INTER:                  -6.528
REMARK INTRA:                  -0.283
REMARK UNBOUND:                -0.474
REMARK  Name = 47167267
REMARK  8 active torsions:
REMARK  status: ('A' for Active; 'I' for Inactive)
REMARK    1  A    between atoms: N_2  and  C_6
REMARK    2  A    between atoms: N_3  and  C_16
REMARK    3  A    between atoms: N_3  and  C_17
REMARK    4  A    between atoms: C_5  and  C_6
REMARK    5  A    between atoms: C_5  and  C_7
REMARK    6  A    between atoms: C_5  and  C_8
REMARK    7  A    between atoms: C_6  and  C_9
REMARK    8  A    between atoms: C_10  and  C_11
REMARK                            x       y       z     vdW  Elec       q    Type
REMARK                         _______ _______ _______ _____ _____    ______ ____
ROOT
ATOM      1  O   UNL     1     -18.138  45.750 -14.711  0.00  0.00    +0.000 OA
ATOM      2  N   UNL     1     -19.767  44.576 -15.869  0.00  0.00    +0.000 N 
ATOM      3  C   UNL     1     -18.857  44.764 -14.841  0.00  0.00    +0.000 C 
ATOM      4  H   UNL     1     -20.239  43.684 -15.968  0.00  0.00    +0.000 HD
ENDROOT
BRANCH   3   7
ATOM      5  N   UNL     1     -18.529  40.512 -11.163  0.00  0.00    +0.000 N 
ATOM      6  N   UNL     1     -19.277  41.374 -13.255  0.00  0.00    +0.000 NA
ATOM      7  C   UNL     1     -18.757  43.657 -13.855  0.00  0.00    +0.000 A 
ATOM      8  C   UNL     1     -18.086  43.829 -12.650  0.00  0.00    +0.000 A 
ATOM      9  C   UNL     1     -19.330  42.422 -14.108  0.00  0.00    +0.000 A 
ATOM     10  C   UNL     1     -18.616  41.578 -12.094  0.00  0.00    +0.000 A 
ATOM     11  C   UNL     1     -18.009  42.775 -11.747  0.00  0.00    +0.000 A 
ATOM     12  C   UNL     1     -19.145  39.238 -11.457  0.00  0.00    +0.000 C 
ATOM     13  C   UNL     1     -17.829  40.696  -9.911  0.00  0.00    +0.000 C 
ENDBRANCH   3   7
BRANCH   2  14
ATOM     14  C   UNL     1     -19.962  45.551 -16.918  0.00  0.00    +0.000 C 
ATOM     15  C   UNL     1     -18.857  45.420 -17.964  0.00  0.00    +0.000 C 
BRANCH  14  16
ATOM     16  C   UNL     1     -21.380  45.475 -17.534  0.00  0.00    +0.000 C 
ATOM     17  C   UNL     1     -22.111  46.817 -17.411  0.00  0.00    +0.000 C 
ATOM     18  C   UNL     1     -22.247  44.359 -16.945  0.00  0.00    +0.000 C 
ENDBRANCH  14  16
ENDBRANCH   2  14
TORSDOF 3
ENDMDL
MODEL 3
REMARK VINA RESULT:    -5.151      1.728      2.575
REMARK INTER + INTRA:          -6.529
REMARK INTER:                  -6.282
REMARK INTRA:                  -0.247
REMARK UNBOUND:                -0.474
REMARK  Name = 47167267
REMARK  8 active torsions:
REMARK  status: ('A' for Active; 'I' for Inactive)
REMARK    1  A    between atoms: N_2  and  C_6
REMARK    2  A    between atoms: N_3  and  C_16
REMARK    3  A    between atoms: N_3  and  C_17
REMARK    4  A    between atoms: C_5  and  C_6
REMARK    5  A    between atoms: C_5  and  C_7
REMARK    6  A    between atoms: C_5  and  C_8
REMARK    7  A    between atoms: C_6  and  C_9
REMARK    8  A    between atoms: C_10  and  C_11
REMARK                            x       y       z     vdW  Elec       q    Type
REMARK                         _______ _______ _______ _____ _____    ______ ____
ROOT
ATOM      1  O   UNL     1     -17.251  44.249 -12.037  0.00  0.00    +0.000 OA
ATOM      2  N   UNL     1     -18.128  42.105 -12.148  0.00  0.00    +0.000 N 
ATOM      3  C   UNL     1     -17.923  43.396 -12.609  0.00  0.00    +0.000 C 
ATOM      4  H   UNL     1     -18.790  41.500 -12.621  0.00  0.00    +0.000 HD
ENDROOT
BRANCH   3   7
ATOM      5  N   UNL     1     -20.538  44.625 -17.444  0.00  0.00    +0.000 N 
ATOM      6  N   UNL     1     -20.075  43.084 -15.685  0.00  0.00    +0.000 NA
ATOM      7  C   UNL     1     -18.603  43.743 -13.884  0.00  0.00    +0.000 A 
ATOM      8  C   UNL     1     -18.430  44.991 -14.472  0.00  0.00    +0.000 A 
ATOM      9  C   UNL     1     -19.428  42.833 -14.525  0.00  0.00    +0.000 A 
ATOM     10  C   UNL     1     -19.883  44.308 -16.227  0.00  0.00    +0.000 A 
ATOM     11  C   UNL     1     -19.078  45.287 -15.666  0.00  0.00    +0.000 A 
ATOM     12  C   UNL     1     -21.387  43.647 -18.088  0.00  0.00    +0.000 C 
ATOM     13  C   UNL     1     -20.355  45.924 -18.051  0.00  0.00    +0.000 C 
ENDBRANCH   3   7
BRANCH   2  14
ATOM     14  C   UNL     1     -17.554  41.625 -10.912  0.00  0.00    +0.000 C 
ATOM     15  C   UNL     1     -18.349  42.164  -9.724  0.00  0.00    +0.000 C 
BRANCH  14  16
ATOM     16  C   UNL     1     -17.416  40.084 -10.888  0.00  0.00    +0.000 C 
ATOM     17  C   UNL     1     -16.219  39.621 -11.727  0.00  0.00    +0.000 C 
ATOM     18  C   UNL     1     -18.679  39.347 -11.341  0.00  0.00    +0.000 C 
ENDBRANCH  14  16
ENDBRANCH   2  14
TORSDOF 3
ENDMDL
MODEL 4
REMARK VINA RESULT:    -4.990      2.007      3.091
REMARK INTER + INTRA:          -6.339
REMARK INTER:                  -5.968
REMARK INTRA:                  -0.371
REMARK UNBOUND:                -0.474
REMARK  Name = 47167267
REMARK  8 active torsions:
REMARK  status: ('A' for Active; 'I' for Inactive)
REMARK    1  A    between atoms: N_2  and  C_6
REMARK    2  A    between atoms: N_3  and  C_16
REMARK    3  A    between atoms: N_3  and  C_17
REMARK    4  A    between atoms: C_5  and  C_6
REMARK    5  A    between atoms: C_5  and  C_7
REMARK    6  A    between atoms: C_5  and  C_8
REMARK    7  A    between atoms: C_6  and  C_9
REMARK    8  A    between atoms: C_10  and  C_11
REMARK                            x       y       z     vdW  Elec       q    Type
REMARK                         _______ _______ _______ _____ _____    ______ ____
ROOT
ATOM      1  O   UNL     1     -18.965  44.084 -12.949  0.00  0.00    +0.000 OA
ATOM      2  N   UNL     1     -18.788  41.948 -13.833  0.00  0.00    +0.000 N 
ATOM      3  C   UNL     1     -19.002  43.315 -13.905  0.00  0.00    +0.000 C 
ATOM      4  H   UNL     1     -18.951  41.369 -14.649  0.00  0.00    +0.000 HD
ENDROOT
BRANCH   3   7
ATOM      5  N   UNL     1     -20.172  45.429 -18.993  0.00  0.00    +0.000 N 
ATOM      6  N   UNL     1     -19.276  45.708 -16.802  0.00  0.00    +0.000 NA
ATOM      7  C   UNL     1     -19.320  43.851 -15.254  0.00  0.00    +0.000 A 
ATOM      8  C   UNL     1     -19.935  43.056 -16.215  0.00  0.00    +0.000 A 
ATOM      9  C   UNL     1     -19.014  45.158 -15.594  0.00  0.00    +0.000 A 
ATOM     10  C   UNL     1     -19.874  44.904 -17.710  0.00  0.00    +0.000 A 
ATOM     11  C   UNL     1     -20.220  43.585 -17.468  0.00  0.00    +0.000 A 
ATOM     12  C   UNL     1     -19.845  46.802 -19.310  0.00  0.00    +0.000 C 
ATOM     13  C   UNL     1     -20.810  44.598 -19.988  0.00  0.00    +0.000 C 
ENDBRANCH   3   7
BRANCH   2  14
ATOM     14  C   UNL     1     -18.494  41.275 -12.589  0.00  0.00    +0.000 C 
ATOM     15  C   UNL     1     -19.224  39.935 -12.534  0.00  0.00    +0.000 C 
BRANCH  14  16
ATOM     16  C   UNL     1     -16.972  41.137 -12.342  0.00  0.00    +0.000 C 
ATOM     17  C   UNL     1     -16.620  39.741 -11.815  0.00  0.00    +0.000 C 
ATOM     18  C   UNL     1     -16.404  42.203 -11.401  0.00  0.00    +0.000 C 
ENDBRANCH  14  16
ENDBRANCH   2  14
TORSDOF 3
ENDMDL
MODEL 5
REMARK VINA RESULT:    -4.787      2.234      6.904
REMARK INTER + INTRA:          -6.100
REMARK INTER:                  -5.734
REMARK INTRA:                  -0.366
REMARK UNBOUND:                -0.474
REMARK  Name = 47167267
REMARK  8 active torsions:
REMARK  status: ('A' for Active; 'I' for Inactive)
REMARK    1  A    between atoms: N_2  and  C_6
REMARK    2  A    between atoms: N_3  and  C_16
REMARK    3  A    between atoms: N_3  and  C_17
REMARK    4  A    between atoms: C_5  and  C_6
REMARK    5  A    between atoms: C_5  and  C_7
REMARK    6  A    between atoms: C_5  and  C_8
REMARK    7  A    between atoms: C_6  and  C_9
REMARK    8  A    between atoms: C_10  and  C_11
REMARK                            x       y       z     vdW  Elec       q    Type
REMARK                         _______ _______ _______ _____ _____    ______ ____
ROOT
ATOM      1  O   UNL     1     -20.692  44.799 -16.685  0.00  0.00    +0.000 OA
ATOM      2  N   UNL     1     -18.450  45.351 -16.903  0.00  0.00    +0.000 N 
ATOM      3  C   UNL     1     -19.534  44.752 -16.280  0.00  0.00    +0.000 C 
ATOM      4  H   UNL     1     -17.548  45.362 -16.442  0.00  0.00    +0.000 HD
ENDROOT
BRANCH   3   7
ATOM      5  N   UNL     1     -18.462  41.935 -11.522  0.00  0.00    +0.000 N 
ATOM      6  N   UNL     1     -19.545  42.064 -13.641  0.00  0.00    +0.000 NA
ATOM      7  C   UNL     1     -19.236  44.028 -15.017  0.00  0.00    +0.000 A 
ATOM      8  C   UNL     1     -18.409  44.585 -14.049  0.00  0.00    +0.000 A 
ATOM      9  C   UNL     1     -19.775  42.776 -14.768  0.00  0.00    +0.000 A 
ATOM     10  C   UNL     1     -18.736  42.638 -12.723  0.00  0.00    +0.000 A 
ATOM     11  C   UNL     1     -18.150  43.884 -12.877  0.00  0.00    +0.000 A 
ATOM     12  C   UNL     1     -19.047  40.633 -11.293  0.00  0.00    +0.000 C 
ATOM     13  C   UNL     1     -17.601  42.519 -10.519  0.00  0.00    +0.000 C 
ENDBRANCH   3   7
BRANCH   2  14
ATOM     14  C   UNL     1     -18.583  46.111 -18.124  0.00  0.00    +0.000 C 
ATOM     15  C   UNL     1     -18.215  47.572 -17.873  0.00  0.00    +0.000 C 
BRANCH  14  16
ATOM     16  C   UNL     1     -17.785  45.486 -19.294  0.00  0.00    +0.000 C 
ATOM     17  C   UNL     1     -18.304  44.085 -19.635  0.00  0.00    +0.000 C 
ATOM     18  C   UNL     1     -16.275  45.432 -19.047  0.00  0.00    +0.000 C 
ENDBRANCH  14  16
ENDBRANCH   2  14
TORSDOF 3
ENDMDL
