MODEL 1
REMARK VINA RESULT:    -5.560      0.000      0.000
REMARK INTER + INTRA:          -7.461
REMARK INTER:                  -7.185
REMARK INTRA:                  -0.276
REMARK UNBOUND:                -0.276
REMARK  Name = 47188131
REMARK  9 active torsions:
REMARK  status: ('A' for Active; 'I' for Inactive)
REMARK    1  A    between atoms: N_2  and  C_7
REMARK    2  A    between atoms: N_3  and  C_12
REMARK    3  A    between atoms: N_3  and  C_14
REMARK    4  A    between atoms: N_3  and  C_15
REMARK    5  A    between atoms: C_5  and  C_6
REMARK    6  A    between atoms: C_5  and  C_8
REMARK    7  A    between atoms: C_5  and  C_9
REMARK    8  A    between atoms: C_6  and  C_7
REMARK    9  A    between atoms: C_10  and  C_11
REMARK                            x       y       z     vdW  Elec       q    Type
REMARK                         _______ _______ _______ _____ _____    ______ ____
ROOT
ATOM      1  O   UNL     1     -17.743  41.248 -13.620  0.00  0.00    +0.000 OA
ATOM      2  N   UNL     1     -19.462  42.805 -13.546  0.00  0.00    +0.000 N 
ATOM      3  C   UNL     1     -18.554  41.916 -12.982  0.00  0.00    +0.000 C 
ATOM      4  H   UNL     1     -20.094  43.320 -12.940  0.00  0.00    +0.000 HD
ENDROOT
BRANCH   3   6
ATOM      5  N   UNL     1     -17.883  42.427  -9.296  0.00  0.00    +0.000 NA
ATOM      6  C   UNL     1     -18.613  41.768 -11.505  0.00  0.00    +0.000 A 
ATOM      7  C   UNL     1     -17.852  42.541 -10.642  0.00  0.00    +0.000 A 
ATOM      8  C   UNL     1     -19.460  40.816 -10.950  0.00  0.00    +0.000 A 
ATOM      9  C   UNL     1     -19.520  40.669  -9.568  0.00  0.00    +0.000 A 
ATOM     10  C   UNL     1     -18.718  41.490  -8.792  0.00  0.00    +0.000 A 
BRANCH   7  11
ATOM     11  N   UNL     1     -16.983  43.512 -11.202  0.00  0.00    +0.000 N 
ATOM     12  C   UNL     1     -15.612  43.170 -11.509  0.00  0.00    +0.000 C 
ATOM     13  C   UNL     1     -17.462  44.851 -11.461  0.00  0.00    +0.000 C 
ENDBRANCH   7  11
ENDBRANCH   3   6
BRANCH   2  14
ATOM     14  C   UNL     1     -19.544  43.037 -14.961  0.00  0.00    +0.000 C 
BRANCH  14  15
ATOM     15  C   UNL     1     -20.987  43.105 -15.459  0.00  0.00    +0.000 C 
BRANCH  15  16
ATOM     16  C   UNL     1     -21.147  43.134 -16.991  0.00  0.00    +0.000 C 
ATOM     17  C   UNL     1     -22.000  44.311 -17.467  0.00  0.00    +0.000 C 
ATOM     18  C   UNL     1     -19.768  43.194 -17.655  0.00  0.00    +0.000 C 
ENDBRANCH  15  16
ENDBRANCH  14  15
ENDBRANCH   2  14
TORSDOF 5
ENDMDL
MODEL 2
REMARK VINA RESULT:    -5.408      3.520      6.033
REMARK INTER + INTRA:          -7.265
REMARK INTER:                  -6.969
REMARK INTRA:                  -0.296
REMARK UNBOUND:                -0.276
REMARK  Name = 47188131
REMARK  9 active torsions:
REMARK  status: ('A' for Active; 'I' for Inactive)
REMARK    1  A    between atoms: N_2  and  C_7
REMARK    2  A    between atoms: N_3  and  C_12
REMARK    3  A    between atoms: N_3  and  C_14
REMARK    4  A    between atoms: N_3  and  C_15
REMARK    5  A    between atoms: C_5  and  C_6
REMARK    6  A    between atoms: C_5  and  C_8
REMARK    7  A    between atoms: C_5  and  C_9
REMARK    8  A    between atoms: C_6  and  C_7
REMARK    9  A    between atoms: C_10  and  C_11
REMARK                            x       y       z     vdW  Elec       q    Type
REMARK                         _______ _______ _______ _____ _____    ______ ____
ROOT
ATOM      1  O   UNL     1     -17.447  43.156 -12.300  0.00  0.00    +0.000 OA
ATOM      2  N   UNL     1     -15.591  42.953 -10.922  0.00  0.00    +0.000 N 
ATOM      3  C   UNL     1     -16.917  42.730 -11.276  0.00  0.00    +0.000 C 
ATOM      4  H   UNL     1     -15.235  42.557 -10.057  0.00  0.00    +0.000 HD
ENDROOT
BRANCH   3   6
ATOM      5  N   UNL     1     -18.820  39.879  -9.680  0.00  0.00    +0.000 NA
ATOM      6  C   UNL     1     -17.728  41.942 -10.314  0.00  0.00    +0.000 A 
ATOM      7  C   UNL     1     -18.081  40.620 -10.536  0.00  0.00    +0.000 A 
ATOM      8  C   UNL     1     -18.163  42.542  -9.137  0.00  0.00    +0.000 A 
ATOM      9  C   UNL     1     -18.925  41.812  -8.232  0.00  0.00    +0.000 A 
ATOM     10  C   UNL     1     -19.224  40.497  -8.547  0.00  0.00    +0.000 A 
BRANCH   7  11
ATOM     11  N   UNL     1     -17.644  40.002 -11.735  0.00  0.00    +0.000 N 
ATOM     12  C   UNL     1     -18.565  39.817 -12.834  0.00  0.00    +0.000 C 
ATOM     13  C   UNL     1     -16.278  39.548 -11.862  0.00  0.00    +0.000 C 
ENDBRANCH   7  11
ENDBRANCH   3   6
BRANCH   2  14
ATOM     14  C   UNL     1     -14.688  43.718 -11.737  0.00  0.00    +0.000 C 
BRANCH  14  15
ATOM     15  C   UNL     1     -13.279  43.128 -11.758  0.00  0.00    +0.000 C 
BRANCH  15  16
ATOM     16  C   UNL     1     -12.922  42.249 -10.543  0.00  0.00    +0.000 C 
ATOM     17  C   UNL     1     -11.999  41.087 -10.914  0.00  0.00    +0.000 C 
ATOM     18  C   UNL     1     -12.262  43.107  -9.460  0.00  0.00    +0.000 C 
ENDBRANCH  15  16
ENDBRANCH  14  15
ENDBRANCH   2  14
TORSDOF 5
ENDMDL
MODEL 3
REMARK VINA RESULT:    -5.332      2.866      6.751
REMARK INTER + INTRA:          -7.166
REMARK INTER:                  -6.899
REMARK INTRA:                  -0.267
REMARK UNBOUND:                -0.276
REMARK  Name = 47188131
REMARK  9 active torsions:
REMARK  status: ('A' for Active; 'I' for Inactive)
REMARK    1  A    between atoms: N_2  and  C_7
REMARK    2  A    between atoms: N_3  and  C_12
REMARK    3  A    between atoms: N_3  and  C_14
REMARK    4  A    between atoms: N_3  and  C_15
REMARK    5  A    between atoms: C_5  and  C_6
REMARK    6  A    between atoms: C_5  and  C_8
REMARK    7  A    between atoms: C_5  and  C_9
REMARK    8  A    between atoms: C_6  and  C_7
REMARK    9  A    between atoms: C_10  and  C_11
REMARK                            x       y       z     vdW  Elec       q    Type
REMARK                         _______ _______ _______ _____ _____    ______ ____
ROOT
ATOM      1  O   UNL     1     -19.983  42.319 -16.858  0.00  0.00    +0.000 OA
ATOM      2  N   UNL     1     -19.951  43.397 -14.804  0.00  0.00    +0.000 N 
ATOM      3  C   UNL     1     -20.368  43.222 -16.118  0.00  0.00    +0.000 C 
ATOM      4  H   UNL     1     -20.326  44.170 -14.262  0.00  0.00    +0.000 HD
ENDROOT
BRANCH   3   6
ATOM      5  N   UNL     1     -21.767  46.340 -17.736  0.00  0.00    +0.000 NA
ATOM      6  C   UNL     1     -21.325  44.230 -16.641  0.00  0.00    +0.000 A 
ATOM      7  C   UNL     1     -20.919  45.406 -17.253  0.00  0.00    +0.000 A 
ATOM      8  C   UNL     1     -22.691  43.999 -16.518  0.00  0.00    +0.000 A 
ATOM      9  C   UNL     1     -23.595  44.938 -17.003  0.00  0.00    +0.000 A 
ATOM     10  C   UNL     1     -23.087  46.082 -17.597  0.00  0.00    +0.000 A 
BRANCH   7  11
ATOM     11  N   UNL     1     -19.527  45.649 -17.379  0.00  0.00    +0.000 N 
ATOM     12  C   UNL     1     -18.812  45.186 -18.547  0.00  0.00    +0.000 C 
ATOM     13  C   UNL     1     -18.816  46.353 -16.337  0.00  0.00    +0.000 C 
ENDBRANCH   7  11
ENDBRANCH   3   6
BRANCH   2  14
ATOM     14  C   UNL     1     -19.010  42.520 -14.164  0.00  0.00    +0.000 C 
BRANCH  14  15
ATOM     15  C   UNL     1     -19.584  41.860 -12.912  0.00  0.00    +0.000 C 
BRANCH  15  16
ATOM     16  C   UNL     1     -18.659  40.828 -12.237  0.00  0.00    +0.000 C 
ATOM     17  C   UNL     1     -19.218  39.406 -12.312  0.00  0.00    +0.000 C 
ATOM     18  C   UNL     1     -17.273  40.873 -12.885  0.00  0.00    +0.000 C 
ENDBRANCH  15  16
ENDBRANCH  14  15
ENDBRANCH   2  14
TORSDOF 5
ENDMDL
MODEL 4
REMARK VINA RESULT:    -5.153      3.519      5.296
REMARK INTER + INTRA:          -6.935
REMARK INTER:                  -6.573
REMARK INTRA:                  -0.361
REMARK UNBOUND:                -0.276
REMARK  Name = 47188131
REMARK  9 active torsions:
REMARK  status: ('A' for Active; 'I' for Inactive)
REMARK    1  A    between atoms: N_2  and  C_7
REMARK    2  A    between atoms: N_3  and  C_12
REMARK    3  A    between atoms: N_3  and  C_14
REMARK    4  A    between atoms: N_3  and  C_15
REMARK    5  A    between atoms: C_5  and  C_6
REMARK    6  A    between atoms: C_5  and  C_8
REMARK    7  A    between atoms: C_5  and  C_9
REMARK    8  A    between atoms: C_6  and  C_7
REMARK    9  A    between atoms: C_10  and  C_11
REMARK                            x       y       z     vdW  Elec       q    Type
REMARK                         _______ _______ _______ _____ _____    ______ ____
ROOT
ATOM      1  O   UNL     1     -17.626  43.316 -12.308  0.00  0.00    +0.000 OA
ATOM      2  N   UNL     1     -15.628  42.870 -11.216  0.00  0.00    +0.000 N 
ATOM      3  C   UNL     1     -17.005  42.782 -11.391  0.00  0.00    +0.000 C 
ATOM      4  H   UNL     1     -15.196  42.391 -10.430  0.00  0.00    +0.000 HD
ENDROOT
BRANCH   3   6
ATOM      5  N   UNL     1     -18.734  39.931  -9.608  0.00  0.00    +0.000 NA
ATOM      6  C   UNL     1     -17.748  42.005 -10.367  0.00  0.00    +0.000 A 
ATOM      7  C   UNL     1     -18.057  40.663 -10.522  0.00  0.00    +0.000 A 
ATOM      8  C   UNL     1     -18.159  42.637  -9.198  0.00  0.00    +0.000 A 
ATOM      9  C   UNL     1     -18.858  41.917  -8.235  0.00  0.00    +0.000 A 
ATOM     10  C   UNL     1     -19.118  40.579  -8.486  0.00  0.00    +0.000 A 
BRANCH   7  11
ATOM     11  N   UNL     1     -17.643  40.013 -11.712  0.00  0.00    +0.000 N 
ATOM     12  C   UNL     1     -18.574  39.836 -12.805  0.00  0.00    +0.000 C 
ATOM     13  C   UNL     1     -16.291  39.516 -11.836  0.00  0.00    +0.000 C 
ENDBRANCH   7  11
ENDBRANCH   3   6
BRANCH   2  14
ATOM     14  C   UNL     1     -14.777  43.607 -12.108  0.00  0.00    +0.000 C 
BRANCH  14  15
ATOM     15  C   UNL     1     -13.980  44.693 -11.389  0.00  0.00    +0.000 C 
BRANCH  15  16
ATOM     16  C   UNL     1     -14.304  46.136 -11.825  0.00  0.00    +0.000 C 
ATOM     17  C   UNL     1     -15.808  46.403 -11.888  0.00  0.00    +0.000 C 
ATOM     18  C   UNL     1     -13.643  47.128 -10.864  0.00  0.00    +0.000 C 
ENDBRANCH  15  16
ENDBRANCH  14  15
ENDBRANCH   2  14
TORSDOF 5
ENDMDL
MODEL 5
REMARK VINA RESULT:    -4.905      2.040      2.139
REMARK INTER + INTRA:          -6.615
REMARK INTER:                  -6.344
REMARK INTRA:                  -0.272
REMARK UNBOUND:                -0.276
REMARK  Name = 47188131
REMARK  9 active torsions:
REMARK  status: ('A' for Active; 'I' for Inactive)
REMARK    1  A    between atoms: N_2  and  C_7
REMARK    2  A    between atoms: N_3  and  C_12
REMARK    3  A    between atoms: N_3  and  C_14
REMARK    4  A    between atoms: N_3  and  C_15
REMARK    5  A    between atoms: C_5  and  C_6
REMARK    6  A    between atoms: C_5  and  C_8
REMARK    7  A    between atoms: C_5  and  C_9
REMARK    8  A    between atoms: C_6  and  C_7
REMARK    9  A    between atoms: C_10  and  C_11
REMARK                            x       y       z     vdW  Elec       q    Type
REMARK                         _______ _______ _______ _____ _____    ______ ____
ROOT
ATOM      1  O   UNL     1     -19.984  43.435 -13.106  0.00  0.00    +0.000 OA
ATOM      2  N   UNL     1     -18.871  42.985 -15.091  0.00  0.00    +0.000 N 
ATOM      3  C   UNL     1     -19.098  42.851 -13.726  0.00  0.00    +0.000 C 
ATOM      4  H   UNL     1     -18.117  42.458 -15.524  0.00  0.00    +0.000 HD
ENDROOT
BRANCH   3   6
ATOM      5  N   UNL     1     -16.189  41.619 -11.649  0.00  0.00    +0.000 NA
ATOM      6  C   UNL     1     -18.172  41.952 -12.993  0.00  0.00    +0.000 A 
ATOM      7  C   UNL     1     -17.051  42.414 -12.322  0.00  0.00    +0.000 A 
ATOM      8  C   UNL     1     -18.425  40.585 -12.971  0.00  0.00    +0.000 A 
ATOM      9  C   UNL     1     -17.562  39.735 -12.289  0.00  0.00    +0.000 A 
ATOM     10  C   UNL     1     -16.468  40.296 -11.650  0.00  0.00    +0.000 A 
BRANCH   7  11
ATOM     11  N   UNL     1     -16.784  43.807 -12.342  0.00  0.00    +0.000 N 
ATOM     12  C   UNL     1     -15.914  44.366 -13.353  0.00  0.00    +0.000 C 
ATOM     13  C   UNL     1     -17.376  44.674 -11.348  0.00  0.00    +0.000 C 
ENDBRANCH   7  11
ENDBRANCH   3   6
BRANCH   2  14
ATOM     14  C   UNL     1     -19.666  43.837 -15.932  0.00  0.00    +0.000 C 
BRANCH  14  15
ATOM     15  C   UNL     1     -20.946  43.154 -16.411  0.00  0.00    +0.000 C 
BRANCH  15  16
ATOM     16  C   UNL     1     -21.746  43.938 -17.470  0.00  0.00    +0.000 C 
ATOM     17  C   UNL     1     -23.011  44.575 -16.893  0.00  0.00    +0.000 C 
ATOM     18  C   UNL     1     -20.859  45.021 -18.091  0.00  0.00    +0.000 C 
ENDBRANCH  15  16
ENDBRANCH  14  15
ENDBRANCH   2  14
TORSDOF 5
ENDMDL
