MODEL 1
REMARK VINA RESULT:    -6.035      0.000      0.000
REMARK INTER + INTRA:          -8.502
REMARK INTER:                  -8.151
REMARK INTRA:                  -0.351
REMARK UNBOUND:                -0.351
REMARK  Name = 47187974
REMARK  9 active torsions:
REMARK  status: ('A' for Active; 'I' for Inactive)
REMARK    1  A    between atoms: N_2  and  C_7
REMARK    2  A    between atoms: N_3  and  C_12
REMARK    3  A    between atoms: N_3  and  C_14
REMARK    4  A    between atoms: N_3  and  C_15
REMARK    5  A    between atoms: C_5  and  C_6
REMARK    6  A    between atoms: C_5  and  C_7
REMARK    7  A    between atoms: C_6  and  C_8
REMARK    8  A    between atoms: C_8  and  C_9
REMARK    9  A    between atoms: C_10  and  C_11
REMARK                            x       y       z     vdW  Elec       q    Type
REMARK                         _______ _______ _______ _____ _____    ______ ____
ROOT
ATOM      1  N   UNL     1     -16.756  42.511 -13.152  0.00  0.00    +0.000 NA
ATOM      2  C   UNL     1     -17.772  42.143 -10.991  0.00  0.00    +0.000 A 
ATOM      3  C   UNL     1     -17.266  41.698 -12.201  0.00  0.00    +0.000 A 
ATOM      4  C   UNL     1     -17.755  43.511 -10.741  0.00  0.00    +0.000 A 
ATOM      5  C   UNL     1     -17.239  44.380 -11.696  0.00  0.00    +0.000 A 
ATOM      6  C   UNL     1     -16.756  43.834 -12.874  0.00  0.00    +0.000 A 
ENDROOT
BRANCH   2   9
ATOM      7  O   UNL     1     -17.570  40.752  -9.113  0.00  0.00    +0.000 OA
ATOM      8  N   UNL     1     -19.689  40.978 -10.029  0.00  0.00    +0.000 N 
ATOM      9  C   UNL     1     -18.323  41.223  -9.962  0.00  0.00    +0.000 C 
ATOM     10  H   UNL     1     -20.240  41.422 -10.759  0.00  0.00    +0.000 HD
BRANCH   8  11
ATOM     11  C   UNL     1     -20.373  40.130  -9.091  0.00  0.00    +0.000 C 
BRANCH  11  12
ATOM     12  C   UNL     1     -21.144  40.944  -8.059  0.00  0.00    +0.000 C 
BRANCH  12  13
ATOM     13  C   UNL     1     -20.234  41.401  -6.919  0.00  0.00    +0.000 C 
BRANCH  13  14
ATOM     14  C   UNL     1     -21.033  42.080  -5.807  0.00  0.00    +0.000 C 
ATOM     15  C   UNL     1     -22.403  42.521  -6.296  0.00  0.00    +0.000 C 
ENDBRANCH  13  14
ENDBRANCH  12  13
ENDBRANCH  11  12
ENDBRANCH   8  11
ENDBRANCH   2   9
BRANCH   3  16
ATOM     16  N   UNL     1     -17.278  40.305 -12.461  0.00  0.00    +0.000 N 
ATOM     17  C   UNL     1     -18.378  39.711 -13.187  0.00  0.00    +0.000 C 
ATOM     18  C   UNL     1     -16.194  39.469 -11.996  0.00  0.00    +0.000 C 
ENDBRANCH   3  16
TORSDOF 6
ENDMDL
MODEL 2
REMARK VINA RESULT:    -5.050      5.643      7.154
REMARK INTER + INTRA:          -7.172
REMARK INTER:                  -6.891
REMARK INTRA:                  -0.280
REMARK UNBOUND:                -0.351
REMARK  Name = 47187974
REMARK  9 active torsions:
REMARK  status: ('A' for Active; 'I' for Inactive)
REMARK    1  A    between atoms: N_2  and  C_7
REMARK    2  A    between atoms: N_3  and  C_12
REMARK    3  A    between atoms: N_3  and  C_14
REMARK    4  A    between atoms: N_3  and  C_15
REMARK    5  A    between atoms: C_5  and  C_6
REMARK    6  A    between atoms: C_5  and  C_7
REMARK    7  A    between atoms: C_6  and  C_8
REMARK    8  A    between atoms: C_8  and  C_9
REMARK    9  A    between atoms: C_10  and  C_11
REMARK                            x       y       z     vdW  Elec       q    Type
REMARK                         _______ _______ _______ _____ _____    ______ ____
ROOT
ATOM      1  N   UNL     1     -21.734  46.387 -17.733  0.00  0.00    +0.000 NA
ATOM      2  C   UNL     1     -21.396  44.253 -16.652  0.00  0.00    +0.000 A 
ATOM      3  C   UNL     1     -20.932  45.423 -17.231  0.00  0.00    +0.000 A 
ATOM      4  C   UNL     1     -22.773  44.060 -16.584  0.00  0.00    +0.000 A 
ATOM      5  C   UNL     1     -23.629  45.031 -17.092  0.00  0.00    +0.000 A 
ATOM      6  C   UNL     1     -23.065  46.166 -17.650  0.00  0.00    +0.000 A 
ENDROOT
BRANCH   2   9
ATOM      7  O   UNL     1     -20.056  42.339 -16.853  0.00  0.00    +0.000 OA
ATOM      8  N   UNL     1     -20.176  43.320 -14.755  0.00  0.00    +0.000 N 
ATOM      9  C   UNL     1     -20.489  43.211 -16.104  0.00  0.00    +0.000 C 
ATOM     10  H   UNL     1     -20.570  44.084 -14.212  0.00  0.00    +0.000 HD
BRANCH   8  11
ATOM     11  C   UNL     1     -19.293  42.404 -14.086  0.00  0.00    +0.000 C 
BRANCH  11  12
ATOM     12  C   UNL     1     -18.683  43.025 -12.835  0.00  0.00    +0.000 C 
BRANCH  12  13
ATOM     13  C   UNL     1     -18.281  41.954 -11.822  0.00  0.00    +0.000 C 
BRANCH  13  14
ATOM     14  C   UNL     1     -19.409  40.947 -11.599  0.00  0.00    +0.000 C 
ATOM     15  C   UNL     1     -18.902  39.516 -11.671  0.00  0.00    +0.000 C 
ENDBRANCH  13  14
ENDBRANCH  12  13
ENDBRANCH  11  12
ENDBRANCH   8  11
ENDBRANCH   2   9
BRANCH   3  16
ATOM     16  N   UNL     1     -19.531  45.626 -17.299  0.00  0.00    +0.000 N 
ATOM     17  C   UNL     1     -18.793  45.206 -18.470  0.00  0.00    +0.000 C 
ATOM     18  C   UNL     1     -18.832  46.247 -16.198  0.00  0.00    +0.000 C 
ENDBRANCH   3  16
TORSDOF 6
ENDMDL
MODEL 3
REMARK VINA RESULT:    -4.809      3.920      6.566
REMARK INTER + INTRA:          -6.847
REMARK INTER:                  -6.531
REMARK INTRA:                  -0.315
REMARK UNBOUND:                -0.351
REMARK  Name = 47187974
REMARK  9 active torsions:
REMARK  status: ('A' for Active; 'I' for Inactive)
REMARK    1  A    between atoms: N_2  and  C_7
REMARK    2  A    between atoms: N_3  and  C_12
REMARK    3  A    between atoms: N_3  and  C_14
REMARK    4  A    between atoms: N_3  and  C_15
REMARK    5  A    between atoms: C_5  and  C_6
REMARK    6  A    between atoms: C_5  and  C_7
REMARK    7  A    between atoms: C_6  and  C_8
REMARK    8  A    between atoms: C_8  and  C_9
REMARK    9  A    between atoms: C_10  and  C_11
REMARK                            x       y       z     vdW  Elec       q    Type
REMARK                         _______ _______ _______ _____ _____    ______ ____
ROOT
ATOM      1  N   UNL     1     -16.231  41.696 -11.654  0.00  0.00    +0.000 NA
ATOM      2  C   UNL     1     -18.227  41.914 -12.999  0.00  0.00    +0.000 A 
ATOM      3  C   UNL     1     -17.123  42.438 -12.346  0.00  0.00    +0.000 A 
ATOM      4  C   UNL     1     -18.429  40.539 -12.937  0.00  0.00    +0.000 A 
ATOM      5  C   UNL     1     -17.532  39.742 -12.233  0.00  0.00    +0.000 A 
ATOM      6  C   UNL     1     -16.460  40.364 -11.615  0.00  0.00    +0.000 A 
ENDROOT
BRANCH   2   9
ATOM      7  O   UNL     1     -20.148  43.248 -13.168  0.00  0.00    +0.000 OA
ATOM      8  N   UNL     1     -18.907  42.945 -15.105  0.00  0.00    +0.000 N 
ATOM      9  C   UNL     1     -19.188  42.756 -13.757  0.00  0.00    +0.000 C 
ATOM     10  H   UNL     1     -18.081  42.509 -15.506  0.00  0.00    +0.000 HD
BRANCH   8  11
ATOM     11  C   UNL     1     -19.729  43.753 -15.964  0.00  0.00    +0.000 C 
BRANCH  11  12
ATOM     12  C   UNL     1     -20.614  42.896 -16.860  0.00  0.00    +0.000 C 
BRANCH  12  13
ATOM     13  C   UNL     1     -21.440  43.759 -17.815  0.00  0.00    +0.000 C 
BRANCH  13  14
ATOM     14  C   UNL     1     -21.948  45.024 -17.123  0.00  0.00    +0.000 C 
ATOM     15  C   UNL     1     -23.466  45.040 -17.037  0.00  0.00    +0.000 C 
ENDBRANCH  13  14
ENDBRANCH  12  13
ENDBRANCH  11  12
ENDBRANCH   8  11
ENDBRANCH   2   9
BRANCH   3  16
ATOM     16  N   UNL     1     -16.910  43.838 -12.409  0.00  0.00    +0.000 N 
ATOM     17  C   UNL     1     -16.055  44.397 -13.433  0.00  0.00    +0.000 C 
ATOM     18  C   UNL     1     -17.539  44.713 -11.446  0.00  0.00    +0.000 C 
ENDBRANCH   3  16
TORSDOF 6
ENDMDL
MODEL 4
REMARK VINA RESULT:    -4.347      3.788      6.182
REMARK INTER + INTRA:          -6.222
REMARK INTER:                  -5.706
REMARK INTRA:                  -0.517
REMARK UNBOUND:                -0.351
REMARK  Name = 47187974
REMARK  9 active torsions:
REMARK  status: ('A' for Active; 'I' for Inactive)
REMARK    1  A    between atoms: N_2  and  C_7
REMARK    2  A    between atoms: N_3  and  C_12
REMARK    3  A    between atoms: N_3  and  C_14
REMARK    4  A    between atoms: N_3  and  C_15
REMARK    5  A    between atoms: C_5  and  C_6
REMARK    6  A    between atoms: C_5  and  C_7
REMARK    7  A    between atoms: C_6  and  C_8
REMARK    8  A    between atoms: C_8  and  C_9
REMARK    9  A    between atoms: C_10  and  C_11
REMARK                            x       y       z     vdW  Elec       q    Type
REMARK                         _______ _______ _______ _____ _____    ______ ____
ROOT
ATOM      1  N   UNL     1     -19.724  45.333 -17.114  0.00  0.00    +0.000 NA
ATOM      2  C   UNL     1     -19.222  44.179 -15.051  0.00  0.00    +0.000 A 
ATOM      3  C   UNL     1     -19.076  45.237 -15.933  0.00  0.00    +0.000 A 
ATOM      4  C   UNL     1     -20.090  43.151 -15.406  0.00  0.00    +0.000 A 
ATOM      5  C   UNL     1     -20.774  43.214 -16.615  0.00  0.00    +0.000 A 
ATOM      6  C   UNL     1     -20.558  44.316 -17.425  0.00  0.00    +0.000 A 
ENDROOT
BRANCH   2   9
ATOM      7  O   UNL     1     -18.888  44.785 -12.810  0.00  0.00    +0.000 OA
ATOM      8  N   UNL     1     -17.419  43.230 -13.707  0.00  0.00    +0.000 N 
ATOM      9  C   UNL     1     -18.498  44.104 -13.756  0.00  0.00    +0.000 C 
ATOM     10  H   UNL     1     -17.175  42.695 -14.536  0.00  0.00    +0.000 HD
BRANCH   8  11
ATOM     11  C   UNL     1     -16.635  43.029 -12.519  0.00  0.00    +0.000 C 
BRANCH  11  12
ATOM     12  C   UNL     1     -17.276  42.005 -11.591  0.00  0.00    +0.000 C 
BRANCH  12  13
ATOM     13  C   UNL     1     -17.080  40.582 -12.114  0.00  0.00    +0.000 C 
BRANCH  13  14
ATOM     14  C   UNL     1     -18.315  40.092 -12.869  0.00  0.00    +0.000 C 
ATOM     15  C   UNL     1     -19.590  40.697 -12.304  0.00  0.00    +0.000 C 
ENDBRANCH  13  14
ENDBRANCH  12  13
ENDBRANCH  11  12
ENDBRANCH   8  11
ENDBRANCH   2   9
BRANCH   3  16
ATOM     16  N   UNL     1     -18.196  46.290 -15.575  0.00  0.00    +0.000 N 
ATOM     17  C   UNL     1     -16.778  46.169 -15.832  0.00  0.00    +0.000 C 
ATOM     18  C   UNL     1     -18.709  47.485 -14.947  0.00  0.00    +0.000 C 
ENDBRANCH   3  16
TORSDOF 6
ENDMDL
MODEL 5
REMARK VINA RESULT:    -4.285     14.306     15.423
REMARK INTER + INTRA:          -6.139
REMARK INTER:                  -5.813
REMARK INTRA:                  -0.326
REMARK UNBOUND:                -0.351
REMARK  Name = 47187974
REMARK  9 active torsions:
REMARK  status: ('A' for Active; 'I' for Inactive)
REMARK    1  A    between atoms: N_2  and  C_7
REMARK    2  A    between atoms: N_3  and  C_12
REMARK    3  A    between atoms: N_3  and  C_14
REMARK    4  A    between atoms: N_3  and  C_15
REMARK    5  A    between atoms: C_5  and  C_6
REMARK    6  A    between atoms: C_5  and  C_7
REMARK    7  A    between atoms: C_6  and  C_8
REMARK    8  A    between atoms: C_8  and  C_9
REMARK    9  A    between atoms: C_10  and  C_11
REMARK                            x       y       z     vdW  Elec       q    Type
REMARK                         _______ _______ _______ _____ _____    ______ ____
ROOT
ATOM      1  N   UNL     1     -32.432  42.247 -19.318  0.00  0.00    +0.000 NA
ATOM      2  C   UNL     1     -31.410  42.792 -17.197  0.00  0.00    +0.000 A 
ATOM      3  C   UNL     1     -32.254  43.068 -18.261  0.00  0.00    +0.000 A 
ATOM      4  C   UNL     1     -30.701  41.595 -17.222  0.00  0.00    +0.000 A 
ATOM      5  C   UNL     1     -30.857  40.725 -18.295  0.00  0.00    +0.000 A 
ATOM      6  C   UNL     1     -31.727  41.093 -19.308  0.00  0.00    +0.000 A 
ENDROOT
BRANCH   2   9
ATOM      7  O   UNL     1     -30.399  44.609 -16.113  0.00  0.00    +0.000 OA
ATOM      8  N   UNL     1     -32.081  43.502 -14.960  0.00  0.00    +0.000 N 
ATOM      9  C   UNL     1     -31.239  43.715 -16.045  0.00  0.00    +0.000 C 
ATOM     10  H   UNL     1     -32.758  42.744 -14.997  0.00  0.00    +0.000 HD
BRANCH   8  11
ATOM     11  C   UNL     1     -32.053  44.325 -13.782  0.00  0.00    +0.000 C 
BRANCH  11  12
ATOM     12  C   UNL     1     -33.185  43.972 -12.825  0.00  0.00    +0.000 C 
BRANCH  12  13
ATOM     13  C   UNL     1     -33.628  42.520 -13.000  0.00  0.00    +0.000 C 
BRANCH  13  14
ATOM     14  C   UNL     1     -34.170  41.942 -11.693  0.00  0.00    +0.000 C 
ATOM     15  C   UNL     1     -35.691  41.931 -11.677  0.00  0.00    +0.000 C 
ENDBRANCH  13  14
ENDBRANCH  12  13
ENDBRANCH  11  12
ENDBRANCH   8  11
ENDBRANCH   2   9
BRANCH   3  16
ATOM     16  N   UNL     1     -32.982  44.285 -18.240  0.00  0.00    +0.000 N 
ATOM     17  C   UNL     1     -34.292  44.337 -17.629  0.00  0.00    +0.000 C 
ATOM     18  C   UNL     1     -32.422  45.477 -18.835  0.00  0.00    +0.000 C 
ENDBRANCH   3  16
TORSDOF 6
ENDMDL
