MODEL 1
REMARK VINA RESULT:    -5.496      0.000      0.000
REMARK INTER + INTRA:          -6.512
REMARK INTER:                  -6.459
REMARK INTRA:                  -0.052
REMARK UNBOUND:                -0.052
REMARK  Name = 47187966
REMARK  7 active torsions:
REMARK  status: ('A' for Active; 'I' for Inactive)
REMARK    1  A    between atoms: N_2  and  C_5
REMARK    2  A    between atoms: N_3  and  C_7
REMARK    3  A    between atoms: N_3  and  C_12
REMARK    4  A    between atoms: N_3  and  C_13
REMARK    5  A    between atoms: C_5  and  C_9
REMARK    6  A    between atoms: C_5  and  C_10
REMARK    7  A    between atoms: C_6  and  C_8
REMARK                            x       y       z     vdW  Elec       q    Type
REMARK                         _______ _______ _______ _____ _____    ______ ____
ROOT
ATOM      1  N   UNL     1     -17.503  42.805 -13.385  0.00  0.00    +0.000 NA
ATOM      2  C   UNL     1     -17.743  42.321 -11.029  0.00  0.00    +0.000 A 
ATOM      3  C   UNL     1     -17.791  41.965 -12.367  0.00  0.00    +0.000 A 
ATOM      4  C   UNL     1     -17.377  43.626 -10.715  0.00  0.00    +0.000 A 
ATOM      5  C   UNL     1     -17.074  44.520 -11.735  0.00  0.00    +0.000 A 
ATOM      6  C   UNL     1     -17.151  44.065 -13.042  0.00  0.00    +0.000 A 
ENDROOT
BRANCH   2   9
ATOM      7  O   UNL     1     -17.318  40.414  -9.731  0.00  0.00    +0.000 OA
ATOM      8  N   UNL     1     -19.194  41.665  -9.185  0.00  0.00    +0.000 N 
ATOM      9  C   UNL     1     -18.062  41.372  -9.931  0.00  0.00    +0.000 C 
ATOM     10  H   UNL     1     -19.723  42.506  -9.397  0.00  0.00    +0.000 HD
BRANCH   8  11
ATOM     11  C   UNL     1     -19.620  40.853  -8.071  0.00  0.00    +0.000 C 
ATOM     12  C   UNL     1     -20.123  41.730  -6.931  0.00  0.00    +0.000 C 
ATOM     13  C   UNL     1     -20.687  39.862  -8.517  0.00  0.00    +0.000 C 
ENDBRANCH   8  11
ENDBRANCH   2   9
BRANCH   3  14
ATOM     14  N   UNL     1     -18.160  40.635 -12.694  0.00  0.00    +0.000 N 
ATOM     15  C   UNL     1     -19.533  40.206 -12.548  0.00  0.00    +0.000 C 
ATOM     16  C   UNL     1     -17.168  39.704 -13.182  0.00  0.00    +0.000 C 
ENDBRANCH   3  14
TORSDOF 3
ENDMDL
MODEL 2
REMARK VINA RESULT:    -5.227      2.261      5.152
REMARK INTER + INTRA:          -6.196
REMARK INTER:                  -5.928
REMARK INTRA:                  -0.268
REMARK UNBOUND:                -0.052
REMARK  Name = 47187966
REMARK  7 active torsions:
REMARK  status: ('A' for Active; 'I' for Inactive)
REMARK    1  A    between atoms: N_2  and  C_5
REMARK    2  A    between atoms: N_3  and  C_7
REMARK    3  A    between atoms: N_3  and  C_12
REMARK    4  A    between atoms: N_3  and  C_13
REMARK    5  A    between atoms: C_5  and  C_9
REMARK    6  A    between atoms: C_5  and  C_10
REMARK    7  A    between atoms: C_6  and  C_8
REMARK                            x       y       z     vdW  Elec       q    Type
REMARK                         _______ _______ _______ _____ _____    ______ ____
ROOT
ATOM      1  N   UNL     1     -18.008  42.155  -9.226  0.00  0.00    +0.000 NA
ATOM      2  C   UNL     1     -18.694  41.667 -11.492  0.00  0.00    +0.000 A 
ATOM      3  C   UNL     1     -17.933  42.355 -10.561  0.00  0.00    +0.000 A 
ATOM      4  C   UNL     1     -19.591  40.713 -11.023  0.00  0.00    +0.000 A 
ATOM      5  C   UNL     1     -19.696  40.479  -9.657  0.00  0.00    +0.000 A 
ATOM      6  C   UNL     1     -18.890  41.220  -8.808  0.00  0.00    +0.000 A 
ENDROOT
BRANCH   2   9
ATOM      7  O   UNL     1     -17.771  41.262 -13.610  0.00  0.00    +0.000 OA
ATOM      8  N   UNL     1     -19.457  42.849 -13.481  0.00  0.00    +0.000 N 
ATOM      9  C   UNL     1     -18.586  41.906 -12.954  0.00  0.00    +0.000 C 
ATOM     10  H   UNL     1     -20.129  43.301 -12.867  0.00  0.00    +0.000 HD
BRANCH   8  11
ATOM     11  C   UNL     1     -19.491  43.175 -14.886  0.00  0.00    +0.000 C 
ATOM     12  C   UNL     1     -20.911  43.060 -15.428  0.00  0.00    +0.000 C 
ATOM     13  C   UNL     1     -18.922  44.568 -15.121  0.00  0.00    +0.000 C 
ENDBRANCH   8  11
ENDBRANCH   2   9
BRANCH   3  14
ATOM     14  N   UNL     1     -17.015  43.327 -11.032  0.00  0.00    +0.000 N 
ATOM     15  C   UNL     1     -15.642  42.960 -11.300  0.00  0.00    +0.000 C 
ATOM     16  C   UNL     1     -17.447  44.688 -11.253  0.00  0.00    +0.000 C 
ENDBRANCH   3  14
TORSDOF 3
ENDMDL
MODEL 3
REMARK VINA RESULT:    -4.993      5.438      7.093
REMARK INTER + INTRA:          -5.921
REMARK INTER:                  -5.673
REMARK INTRA:                  -0.248
REMARK UNBOUND:                -0.052
REMARK  Name = 47187966
REMARK  7 active torsions:
REMARK  status: ('A' for Active; 'I' for Inactive)
REMARK    1  A    between atoms: N_2  and  C_5
REMARK    2  A    between atoms: N_3  and  C_7
REMARK    3  A    between atoms: N_3  and  C_12
REMARK    4  A    between atoms: N_3  and  C_13
REMARK    5  A    between atoms: C_5  and  C_9
REMARK    6  A    between atoms: C_5  and  C_10
REMARK    7  A    between atoms: C_6  and  C_8
REMARK                            x       y       z     vdW  Elec       q    Type
REMARK                         _______ _______ _______ _____ _____    ______ ____
ROOT
ATOM      1  N   UNL     1     -21.695  46.294 -17.806  0.00  0.00    +0.000 NA
ATOM      2  C   UNL     1     -21.245  44.236 -16.618  0.00  0.00    +0.000 A 
ATOM      3  C   UNL     1     -20.844  45.396 -17.262  0.00  0.00    +0.000 A 
ATOM      4  C   UNL     1     -22.610  43.981 -16.529  0.00  0.00    +0.000 A 
ATOM      5  C   UNL     1     -23.516  44.881 -17.075  0.00  0.00    +0.000 A 
ATOM      6  C   UNL     1     -23.014  46.012 -17.698  0.00  0.00    +0.000 A 
ENDROOT
BRANCH   2   9
ATOM      7  O   UNL     1     -19.901  42.317 -16.702  0.00  0.00    +0.000 OA
ATOM      8  N   UNL     1     -19.867  43.542 -14.733  0.00  0.00    +0.000 N 
ATOM      9  C   UNL     1     -20.284  43.270 -16.028  0.00  0.00    +0.000 C 
ATOM     10  H   UNL     1     -20.205  44.381 -14.270  0.00  0.00    +0.000 HD
BRANCH   8  11
ATOM     11  C   UNL     1     -18.918  42.711 -14.033  0.00  0.00    +0.000 C 
ATOM     12  C   UNL     1     -17.816  43.562 -13.413  0.00  0.00    +0.000 C 
ATOM     13  C   UNL     1     -19.626  41.871 -12.978  0.00  0.00    +0.000 C 
ENDBRANCH   8  11
ENDBRANCH   2   9
BRANCH   3  14
ATOM     14  N   UNL     1     -19.454  45.664 -17.355  0.00  0.00    +0.000 N 
ATOM     15  C   UNL     1     -18.687  45.145 -18.466  0.00  0.00    +0.000 C 
ATOM     16  C   UNL     1     -18.799  46.464 -16.346  0.00  0.00    +0.000 C 
ENDBRANCH   3  14
TORSDOF 3
ENDMDL
MODEL 4
REMARK VINA RESULT:    -4.857      2.220      3.728
REMARK INTER + INTRA:          -5.762
REMARK INTER:                  -5.563
REMARK INTRA:                  -0.199
REMARK UNBOUND:                -0.052
REMARK  Name = 47187966
REMARK  7 active torsions:
REMARK  status: ('A' for Active; 'I' for Inactive)
REMARK    1  A    between atoms: N_2  and  C_5
REMARK    2  A    between atoms: N_3  and  C_7
REMARK    3  A    between atoms: N_3  and  C_12
REMARK    4  A    between atoms: N_3  and  C_13
REMARK    5  A    between atoms: C_5  and  C_9
REMARK    6  A    between atoms: C_5  and  C_10
REMARK    7  A    between atoms: C_6  and  C_8
REMARK                            x       y       z     vdW  Elec       q    Type
REMARK                         _______ _______ _______ _____ _____    ______ ____
ROOT
ATOM      1  N   UNL     1     -18.177  45.108 -14.407  0.00  0.00    +0.000 NA
ATOM      2  C   UNL     1     -18.558  42.783 -13.861  0.00  0.00    +0.000 A 
ATOM      3  C   UNL     1     -17.927  44.002 -13.671  0.00  0.00    +0.000 A 
ATOM      4  C   UNL     1     -19.507  42.693 -14.875  0.00  0.00    +0.000 A 
ATOM      5  C   UNL     1     -19.792  43.809 -15.653  0.00  0.00    +0.000 A 
ATOM      6  C   UNL     1     -19.107  44.982 -15.382  0.00  0.00    +0.000 A 
ENDROOT
BRANCH   2   9
ATOM      7  O   UNL     1     -17.287  40.892 -13.308  0.00  0.00    +0.000 OA
ATOM      8  N   UNL     1     -19.125  41.354 -11.971  0.00  0.00    +0.000 N 
ATOM      9  C   UNL     1     -18.263  41.586 -13.033  0.00  0.00    +0.000 C 
ATOM     10  H   UNL     1     -19.881  42.010 -11.795  0.00  0.00    +0.000 HD
BRANCH   8  11
ATOM     11  C   UNL     1     -18.956  40.246 -11.063  0.00  0.00    +0.000 C 
ATOM     12  C   UNL     1     -19.610  40.551  -9.721  0.00  0.00    +0.000 C 
ATOM     13  C   UNL     1     -19.518  38.970 -11.673  0.00  0.00    +0.000 C 
ENDBRANCH   8  11
ENDBRANCH   2   9
BRANCH   3  14
ATOM     14  N   UNL     1     -16.960  44.102 -12.638  0.00  0.00    +0.000 N 
ATOM     15  C   UNL     1     -15.557  43.925 -12.938  0.00  0.00    +0.000 C 
ATOM     16  C   UNL     1     -17.371  44.389 -11.283  0.00  0.00    +0.000 C 
ENDBRANCH   3  14
TORSDOF 3
ENDMDL
MODEL 5
REMARK VINA RESULT:    -4.399      2.839      5.068
REMARK INTER + INTRA:          -5.223
REMARK INTER:                  -5.481
REMARK INTRA:                   0.257
REMARK UNBOUND:                -0.052
REMARK  Name = 47187966
REMARK  7 active torsions:
REMARK  status: ('A' for Active; 'I' for Inactive)
REMARK    1  A    between atoms: N_2  and  C_5
REMARK    2  A    between atoms: N_3  and  C_7
REMARK    3  A    between atoms: N_3  and  C_12
REMARK    4  A    between atoms: N_3  and  C_13
REMARK    5  A    between atoms: C_5  and  C_9
REMARK    6  A    between atoms: C_5  and  C_10
REMARK    7  A    between atoms: C_6  and  C_8
REMARK                            x       y       z     vdW  Elec       q    Type
REMARK                         _______ _______ _______ _____ _____    ______ ____
ROOT
ATOM      1  N   UNL     1     -16.195  41.874 -11.554  0.00  0.00    +0.000 NA
ATOM      2  C   UNL     1     -17.624  43.132 -13.043  0.00  0.00    +0.000 A 
ATOM      3  C   UNL     1     -17.339  42.028 -12.257  0.00  0.00    +0.000 A 
ATOM      4  C   UNL     1     -16.672  44.144 -13.114  0.00  0.00    +0.000 A 
ATOM      5  C   UNL     1     -15.483  44.022 -12.405  0.00  0.00    +0.000 A 
ATOM      6  C   UNL     1     -15.294  42.878 -11.646  0.00  0.00    +0.000 A 
ENDROOT
BRANCH   2   9
ATOM      7  O   UNL     1     -19.963  43.121 -13.218  0.00  0.00    +0.000 OA
ATOM      8  N   UNL     1     -18.765  43.601 -15.145  0.00  0.00    +0.000 N 
ATOM      9  C   UNL     1     -18.893  43.274 -13.803  0.00  0.00    +0.000 C 
ATOM     10  H   UNL     1     -17.837  43.752 -15.531  0.00  0.00    +0.000 HD
BRANCH   8  11
ATOM     11  C   UNL     1     -19.904  43.797 -16.008  0.00  0.00    +0.000 C 
ATOM     12  C   UNL     1     -19.905  45.209 -16.580  0.00  0.00    +0.000 C 
ATOM     13  C   UNL     1     -19.914  42.752 -17.117  0.00  0.00    +0.000 C 
ENDBRANCH   8  11
ENDBRANCH   2   9
BRANCH   3  14
ATOM     14  N   UNL     1     -18.306  40.993 -12.178  0.00  0.00    +0.000 N 
ATOM     15  C   UNL     1     -18.341  39.954 -13.183  0.00  0.00    +0.000 C 
ATOM     16  C   UNL     1     -19.257  40.968 -11.090  0.00  0.00    +0.000 C 
ENDBRANCH   3  14
TORSDOF 3
ENDMDL
