MODEL 1
REMARK VINA RESULT:    -5.638      0.000      0.000
REMARK INTER + INTRA:          -7.574
REMARK INTER:                  -6.957
REMARK INTRA:                  -0.618
REMARK UNBOUND:                -0.618
REMARK  Name = 47231550
REMARK  4 active torsions:
REMARK  status: ('A' for Active; 'I' for Inactive)
REMARK    1  A    between atoms: N_2  and  C_10
REMARK    2  A    between atoms: N_4  and  C_16
REMARK    3  A    between atoms: C_11  and  C_13
REMARK    4  A    between atoms: C_16  and  C_17
REMARK                            x       y       z     vdW  Elec       q    Type
REMARK                         _______ _______ _______ _____ _____    ______ ____
ROOT
ATOM      1  N   UNL     1     -17.876  42.242  -9.297  0.00  0.00    +0.000 NA
ATOM      2  C   UNL     1     -17.986  42.308 -10.643  0.00  0.00    +0.000 A 
ATOM      3  C   UNL     1     -18.828  41.502 -11.392  0.00  0.00    +0.000 A 
ATOM      4  C   UNL     1     -19.607  40.568 -10.718  0.00  0.00    +0.000 A 
ATOM      5  C   UNL     1     -18.648  41.323  -8.676  0.00  0.00    +0.000 A 
ATOM      6  C   UNL     1     -19.521  40.470  -9.334  0.00  0.00    +0.000 A 
ENDROOT
BRANCH   2   7
ATOM      7  N   UNL     1     -17.197  43.248 -11.316  0.00  0.00    +0.000 N 
ATOM      8  C   UNL     1     -15.557  45.260 -12.579  0.00  0.00    +0.000 C 
ATOM      9  C   UNL     1     -17.057  45.460 -12.391  0.00  0.00    +0.000 C 
ATOM     10  C   UNL     1     -15.238  43.776 -12.712  0.00  0.00    +0.000 C 
ATOM     11  C   UNL     1     -17.582  44.662 -11.200  0.00  0.00    +0.000 C 
ATOM     12  C   UNL     1     -15.770  42.976 -11.524  0.00  0.00    +0.000 C 
ENDBRANCH   2   7
BRANCH   3  15
ATOM     13  O   UNL     1     -18.441  40.702 -13.562  0.00  0.00    +0.000 OA
ATOM     14  N   UNL     1     -19.594  42.704 -13.366  0.00  0.00    +0.000 N 
ATOM     15  C   UNL     1     -18.923  41.594 -12.843  0.00  0.00    +0.000 C 
ATOM     16  H   UNL     1     -19.989  43.385 -12.723  0.00  0.00    +0.000 HD
BRANCH  14  17
ATOM     17  C   UNL     1     -19.791  42.924 -14.780  0.00  0.00    +0.000 C 
BRANCH  17  18
ATOM     18  C   UNL     1     -19.197  44.239 -15.158  0.00  0.00    +0.000 C 
ATOM     19  C   UNL     1     -19.379  44.825 -16.347  0.00  0.00    +0.000 C 
ENDBRANCH  17  18
ENDBRANCH  14  17
ENDBRANCH   3  15
TORSDOF 4
ENDMDL
MODEL 2
REMARK VINA RESULT:    -5.520      1.833      4.128
REMARK INTER + INTRA:          -7.428
REMARK INTER:                  -7.190
REMARK INTRA:                  -0.238
REMARK UNBOUND:                -0.618
REMARK  Name = 47231550
REMARK  4 active torsions:
REMARK  status: ('A' for Active; 'I' for Inactive)
REMARK    1  A    between atoms: N_2  and  C_10
REMARK    2  A    between atoms: N_4  and  C_16
REMARK    3  A    between atoms: C_11  and  C_13
REMARK    4  A    between atoms: C_16  and  C_17
REMARK                            x       y       z     vdW  Elec       q    Type
REMARK                         _______ _______ _______ _____ _____    ______ ____
ROOT
ATOM      1  N   UNL     1     -17.297  44.346 -11.417  0.00  0.00    +0.000 NA
ATOM      2  C   UNL     1     -17.991  43.611 -12.314  0.00  0.00    +0.000 A 
ATOM      3  C   UNL     1     -18.622  44.140 -13.428  0.00  0.00    +0.000 A 
ATOM      4  C   UNL     1     -18.535  45.512 -13.635  0.00  0.00    +0.000 A 
ATOM      5  C   UNL     1     -17.234  45.676 -11.652  0.00  0.00    +0.000 A 
ATOM      6  C   UNL     1     -17.830  46.302 -12.735  0.00  0.00    +0.000 A 
ENDROOT
BRANCH   2   7
ATOM      7  N   UNL     1     -18.078  42.230 -12.097  0.00  0.00    +0.000 N 
ATOM      8  C   UNL     1     -18.119  39.387 -11.600  0.00  0.00    +0.000 C 
ATOM      9  C   UNL     1     -17.512  39.962 -12.874  0.00  0.00    +0.000 C 
ATOM     10  C   UNL     1     -19.228  40.301 -11.088  0.00  0.00    +0.000 C 
ATOM     11  C   UNL     1     -17.012  41.389 -12.660  0.00  0.00    +0.000 C 
ATOM     12  C   UNL     1     -18.730  41.730 -10.881  0.00  0.00    +0.000 C 
ENDBRANCH   2   7
BRANCH   3  15
ATOM     13  O   UNL     1     -20.097  42.400 -13.973  0.00  0.00    +0.000 OA
ATOM     14  N   UNL     1     -19.235  43.642 -15.731  0.00  0.00    +0.000 N 
ATOM     15  C   UNL     1     -19.367  43.322 -14.376  0.00  0.00    +0.000 C 
ATOM     16  H   UNL     1     -18.642  44.425 -15.994  0.00  0.00    +0.000 HD
BRANCH  14  17
ATOM     17  C   UNL     1     -19.927  42.941 -16.788  0.00  0.00    +0.000 C 
BRANCH  17  18
ATOM     18  C   UNL     1     -21.120  43.736 -17.201  0.00  0.00    +0.000 C 
ATOM     19  C   UNL     1     -22.297  43.699 -16.566  0.00  0.00    +0.000 C 
ENDBRANCH  17  18
ENDBRANCH  14  17
ENDBRANCH   3  15
TORSDOF 4
ENDMDL
MODEL 3
REMARK VINA RESULT:    -5.477      1.914      5.358
REMARK INTER + INTRA:          -7.375
REMARK INTER:                  -6.696
REMARK INTRA:                  -0.680
REMARK UNBOUND:                -0.618
REMARK  Name = 47231550
REMARK  4 active torsions:
REMARK  status: ('A' for Active; 'I' for Inactive)
REMARK    1  A    between atoms: N_2  and  C_10
REMARK    2  A    between atoms: N_4  and  C_16
REMARK    3  A    between atoms: C_11  and  C_13
REMARK    4  A    between atoms: C_16  and  C_17
REMARK                            x       y       z     vdW  Elec       q    Type
REMARK                         _______ _______ _______ _____ _____    ______ ____
ROOT
ATOM      1  N   UNL     1     -19.669  42.438 -14.866  0.00  0.00    +0.000 NA
ATOM      2  C   UNL     1     -18.795  42.759 -13.887  0.00  0.00    +0.000 A 
ATOM      3  C   UNL     1     -18.177  43.994 -13.772  0.00  0.00    +0.000 A 
ATOM      4  C   UNL     1     -18.475  44.962 -14.725  0.00  0.00    +0.000 A 
ATOM      5  C   UNL     1     -19.934  43.405 -15.774  0.00  0.00    +0.000 A 
ATOM      6  C   UNL     1     -19.369  44.670 -15.748  0.00  0.00    +0.000 A 
ENDROOT
BRANCH   2   7
ATOM      7  N   UNL     1     -18.496  41.779 -12.933  0.00  0.00    +0.000 N 
ATOM      8  C   UNL     1     -17.988  39.675 -11.024  0.00  0.00    +0.000 C 
ATOM      9  C   UNL     1     -19.090  40.703 -10.798  0.00  0.00    +0.000 C 
ATOM     10  C   UNL     1     -16.864  40.283 -11.855  0.00  0.00    +0.000 C 
ATOM     11  C   UNL     1     -19.608  41.266 -12.119  0.00  0.00    +0.000 C 
ATOM     12  C   UNL     1     -17.383  40.853 -13.173  0.00  0.00    +0.000 C 
ENDBRANCH   2   7
BRANCH   3  15
ATOM     13  O   UNL     1     -17.647  44.687 -11.595  0.00  0.00    +0.000 OA
ATOM     14  N   UNL     1     -15.877  44.144 -12.990  0.00  0.00    +0.000 N 
ATOM     15  C   UNL     1     -17.235  44.310 -12.706  0.00  0.00    +0.000 C 
ATOM     16  H   UNL     1     -15.606  43.806 -13.910  0.00  0.00    +0.000 HD
BRANCH  14  17
ATOM     17  C   UNL     1     -14.825  44.392 -12.031  0.00  0.00    +0.000 C 
BRANCH  17  18
ATOM     18  C   UNL     1     -14.505  43.121 -11.318  0.00  0.00    +0.000 C 
ATOM     19  C   UNL     1     -13.271  42.769 -10.940  0.00  0.00    +0.000 C 
ENDBRANCH  17  18
ENDBRANCH  14  17
ENDBRANCH   3  15
TORSDOF 4
ENDMDL
MODEL 4
REMARK VINA RESULT:    -5.314      3.505      7.146
REMARK INTER + INTRA:          -7.174
REMARK INTER:                  -6.547
REMARK INTRA:                  -0.626
REMARK UNBOUND:                -0.618
REMARK  Name = 47231550
REMARK  4 active torsions:
REMARK  status: ('A' for Active; 'I' for Inactive)
REMARK    1  A    between atoms: N_2  and  C_10
REMARK    2  A    between atoms: N_4  and  C_16
REMARK    3  A    between atoms: C_11  and  C_13
REMARK    4  A    between atoms: C_16  and  C_17
REMARK                            x       y       z     vdW  Elec       q    Type
REMARK                         _______ _______ _______ _____ _____    ______ ____
ROOT
ATOM      1  N   UNL     1     -21.998  46.107 -18.377  0.00  0.00    +0.000 NA
ATOM      2  C   UNL     1     -21.148  45.207 -17.835  0.00  0.00    +0.000 A 
ATOM      3  C   UNL     1     -21.525  44.239 -16.918  0.00  0.00    +0.000 A 
ATOM      4  C   UNL     1     -22.860  44.192 -16.532  0.00  0.00    +0.000 A 
ATOM      5  C   UNL     1     -23.287  46.031 -17.978  0.00  0.00    +0.000 A 
ATOM      6  C   UNL     1     -23.765  45.101 -17.068  0.00  0.00    +0.000 A 
ENDROOT
BRANCH   2   7
ATOM      7  N   UNL     1     -19.804  45.262 -18.224  0.00  0.00    +0.000 N 
ATOM      8  C   UNL     1     -17.077  45.440 -19.153  0.00  0.00    +0.000 C 
ATOM      9  C   UNL     1     -17.992  44.301 -19.589  0.00  0.00    +0.000 C 
ATOM     10  C   UNL     1     -17.481  45.938 -17.770  0.00  0.00    +0.000 C 
ATOM     11  C   UNL     1     -19.461  44.716 -19.546  0.00  0.00    +0.000 C 
ATOM     12  C   UNL     1     -18.952  46.347 -17.725  0.00  0.00    +0.000 C 
ENDBRANCH   2   7
BRANCH   3  15
ATOM     13  O   UNL     1     -20.311  42.233 -16.954  0.00  0.00    +0.000 OA
ATOM     14  N   UNL     1     -20.005  43.620 -15.121  0.00  0.00    +0.000 N 
ATOM     15  C   UNL     1     -20.585  43.283 -16.348  0.00  0.00    +0.000 C 
ATOM     16  H   UNL     1     -20.250  44.506 -14.689  0.00  0.00    +0.000 HD
BRANCH  14  17
ATOM     17  C   UNL     1     -19.037  42.788 -14.441  0.00  0.00    +0.000 C 
BRANCH  17  18
ATOM     18  C   UNL     1     -19.639  42.274 -13.177  0.00  0.00    +0.000 C 
ATOM     19  C   UNL     1     -19.385  41.062 -12.670  0.00  0.00    +0.000 C 
ENDBRANCH  17  18
ENDBRANCH  14  17
ENDBRANCH   3  15
TORSDOF 4
ENDMDL
MODEL 5
REMARK VINA RESULT:    -5.094      2.105      2.315
REMARK INTER + INTRA:          -6.903
REMARK INTER:                  -6.451
REMARK INTRA:                  -0.451
REMARK UNBOUND:                -0.618
REMARK  Name = 47231550
REMARK  4 active torsions:
REMARK  status: ('A' for Active; 'I' for Inactive)
REMARK    1  A    between atoms: N_2  and  C_10
REMARK    2  A    between atoms: N_4  and  C_16
REMARK    3  A    between atoms: C_11  and  C_13
REMARK    4  A    between atoms: C_16  and  C_17
REMARK                            x       y       z     vdW  Elec       q    Type
REMARK                         _______ _______ _______ _____ _____    ______ ____
ROOT
ATOM      1  N   UNL     1     -16.291  41.646 -11.740  0.00  0.00    +0.000 NA
ATOM      2  C   UNL     1     -17.182  42.390 -12.432  0.00  0.00    +0.000 A 
ATOM      3  C   UNL     1     -18.292  41.870 -13.077  0.00  0.00    +0.000 A 
ATOM      4  C   UNL     1     -18.501  40.497 -13.009  0.00  0.00    +0.000 A 
ATOM      5  C   UNL     1     -16.527  40.316 -11.695  0.00  0.00    +0.000 A 
ATOM      6  C   UNL     1     -17.606  39.698 -12.306  0.00  0.00    +0.000 A 
ENDROOT
BRANCH   2   7
ATOM      7  N   UNL     1     -16.964  43.772 -12.501  0.00  0.00    +0.000 N 
ATOM      8  C   UNL     1     -16.444  46.611 -12.514  0.00  0.00    +0.000 C 
ATOM      9  C   UNL     1     -17.613  46.022 -11.734  0.00  0.00    +0.000 C 
ATOM     10  C   UNL     1     -16.125  45.738 -13.722  0.00  0.00    +0.000 C 
ATOM     11  C   UNL     1     -17.341  44.575 -11.327  0.00  0.00    +0.000 C 
ATOM     12  C   UNL     1     -15.861  44.289 -13.317  0.00  0.00    +0.000 C 
ENDBRANCH   2   7
BRANCH   3  15
ATOM     13  O   UNL     1     -19.976  43.496 -13.221  0.00  0.00    +0.000 OA
ATOM     14  N   UNL     1     -19.239  42.562 -15.210  0.00  0.00    +0.000 N 
ATOM     15  C   UNL     1     -19.235  42.697 -13.819  0.00  0.00    +0.000 C 
ATOM     16  H   UNL     1     -18.588  41.910 -15.641  0.00  0.00    +0.000 HD
BRANCH  14  17
ATOM     17  C   UNL     1     -20.096  43.329 -16.084  0.00  0.00    +0.000 C 
BRANCH  17  18
ATOM     18  C   UNL     1     -19.748  43.022 -17.502  0.00  0.00    +0.000 C 
ATOM     19  C   UNL     1     -19.284  43.930 -18.369  0.00  0.00    +0.000 C 
ENDBRANCH  17  18
ENDBRANCH  14  17
ENDBRANCH   3  15
TORSDOF 4
ENDMDL
