MODEL 1
REMARK VINA RESULT:    -6.754      0.000      0.000
REMARK INTER + INTRA:          -6.951
REMARK INTER:                  -6.951
REMARK INTRA:                   0.000
REMARK UNBOUND:                 0.000
REMARK  Name = 4737814
REMARK  1 active torsions:
REMARK  status: ('A' for Active; 'I' for Inactive)
REMARK    1  A    between atoms: N_5  and  C_9
REMARK                            x       y       z     vdW  Elec       q    Type
REMARK                         _______ _______ _______ _____ _____    ______ ____
ROOT
ATOM      1  O   UNL     1     -19.936  39.535 -10.961  0.00  0.00    +0.000 OA
ATOM      2  N   UNL     1     -18.276  41.204 -11.147  0.00  0.00    +0.000 N 
ATOM      3  N   UNL     1     -17.960  42.680  -9.282  0.00  0.00    +0.000 NA
ATOM      4  N   UNL     1     -19.235  42.484  -7.348  0.00  0.00    +0.000 NA
ATOM      5  C   UNL     1     -17.656  42.278 -10.481  0.00  0.00    +0.000 A 
ATOM      6  C   UNL     1     -19.653  40.940  -9.143  0.00  0.00    +0.000 A 
ATOM      7  C   UNL     1     -19.308  40.486 -10.504  0.00  0.00    +0.000 A 
ATOM      8  C   UNL     1     -17.879  40.834 -12.461  0.00  0.00    +0.000 A 
ATOM      9  C   UNL     1     -18.972  42.011  -8.590  0.00  0.00    +0.000 A 
ATOM     10  C   UNL     1     -16.576  43.009 -11.192  0.00  0.00    +0.000 A 
ATOM     11  C   UNL     1     -16.892  41.533 -13.061  0.00  0.00    +0.000 A 
ATOM     12  C   UNL     1     -20.652  40.319  -8.394  0.00  0.00    +0.000 A 
ATOM     13  C   UNL     1     -16.232  42.631 -12.423  0.00  0.00    +0.000 A 
ATOM     14  C   UNL     1     -20.939  40.787  -7.118  0.00  0.00    +0.000 A 
ATOM     15  C   UNL     1     -20.207  41.863  -6.645  0.00  0.00    +0.000 A 
ENDROOT
BRANCH   8  16
ATOM     16  N   UNL     1     -18.446  39.794 -13.165  0.00  0.00    +0.000 N 
ATOM     17  H   UNL     1     -19.252  39.312 -12.791  0.00  0.00    +0.000 HD
ATOM     18  H   UNL     1     -18.057  39.510 -14.056  0.00  0.00    +0.000 HD
ENDBRANCH   8  16
TORSDOF 1
ENDMDL
MODEL 2
REMARK VINA RESULT:    -6.575      1.766      2.008
REMARK INTER + INTRA:          -6.767
REMARK INTER:                  -6.767
REMARK INTRA:                   0.000
REMARK UNBOUND:                 0.000
REMARK  Name = 4737814
REMARK  1 active torsions:
REMARK  status: ('A' for Active; 'I' for Inactive)
REMARK    1  A    between atoms: N_5  and  C_9
REMARK                            x       y       z     vdW  Elec       q    Type
REMARK                         _______ _______ _______ _____ _____    ______ ____
ROOT
ATOM      1  O   UNL     1     -19.868  40.876 -12.719  0.00  0.00    +0.000 OA
ATOM      2  N   UNL     1     -18.389  42.671 -12.311  0.00  0.00    +0.000 N 
ATOM      3  N   UNL     1     -17.687  43.051 -10.049  0.00  0.00    +0.000 NA
ATOM      4  N   UNL     1     -18.425  41.702  -8.306  0.00  0.00    +0.000 NA
ATOM      5  C   UNL     1     -17.674  43.359 -11.312  0.00  0.00    +0.000 A 
ATOM      6  C   UNL     1     -19.205  41.213 -10.526  0.00  0.00    +0.000 A 
ATOM      7  C   UNL     1     -19.191  41.564 -11.959  0.00  0.00    +0.000 A 
ATOM      8  C   UNL     1     -18.317  43.080 -13.672  0.00  0.00    +0.000 A 
ATOM      9  C   UNL     1     -18.459  41.964  -9.634  0.00  0.00    +0.000 A 
ATOM     10  C   UNL     1     -16.843  44.519 -11.724  0.00  0.00    +0.000 A 
ATOM     11  C   UNL     1     -17.547  44.142 -13.989  0.00  0.00    +0.000 A 
ATOM     12  C   UNL     1     -19.955  40.140 -10.041  0.00  0.00    +0.000 A 
ATOM     13  C   UNL     1     -16.802  44.870 -13.008  0.00  0.00    +0.000 A 
ATOM     14  C   UNL     1     -19.934  39.853  -8.682  0.00  0.00    +0.000 A 
ATOM     15  C   UNL     1     -19.160  40.657  -7.864  0.00  0.00    +0.000 A 
ENDROOT
BRANCH   8  16
ATOM     16  N   UNL     1     -18.992  42.449 -14.694  0.00  0.00    +0.000 N 
ATOM     17  H   UNL     1     -19.961  42.186 -14.572  0.00  0.00    +0.000 HD
ATOM     18  H   UNL     1     -18.521  42.248 -15.567  0.00  0.00    +0.000 HD
ENDBRANCH   8  16
TORSDOF 1
ENDMDL
MODEL 3
REMARK VINA RESULT:    -6.503      3.018      5.754
REMARK INTER + INTRA:          -6.693
REMARK INTER:                  -6.693
REMARK INTRA:                   0.000
REMARK UNBOUND:                 0.000
REMARK  Name = 4737814
REMARK  1 active torsions:
REMARK  status: ('A' for Active; 'I' for Inactive)
REMARK    1  A    between atoms: N_5  and  C_9
REMARK                            x       y       z     vdW  Elec       q    Type
REMARK                         _______ _______ _______ _____ _____    ______ ____
ROOT
ATOM      1  O   UNL     1     -17.590  44.333 -11.369  0.00  0.00    +0.000 OA
ATOM      2  N   UNL     1     -18.421  42.167 -11.805  0.00  0.00    +0.000 N 
ATOM      3  N   UNL     1     -19.421  41.762 -13.948  0.00  0.00    +0.000 NA
ATOM      4  N   UNL     1     -19.571  43.436 -15.554  0.00  0.00    +0.000 NA
ATOM      5  C   UNL     1     -19.059  41.360 -12.765  0.00  0.00    +0.000 A 
ATOM      6  C   UNL     1     -18.545  43.974 -13.448  0.00  0.00    +0.000 A 
ATOM      7  C   UNL     1     -18.136  43.517 -12.105  0.00  0.00    +0.000 A 
ATOM      8  C   UNL     1     -18.062  41.641 -10.533  0.00  0.00    +0.000 A 
ATOM      9  C   UNL     1     -19.167  43.087 -14.309  0.00  0.00    +0.000 A 
ATOM     10  C   UNL     1     -19.343  39.945 -12.410  0.00  0.00    +0.000 A 
ATOM     11  C   UNL     1     -18.344  40.349 -10.263  0.00  0.00    +0.000 A 
ATOM     12  C   UNL     1     -18.322  45.284 -13.875  0.00  0.00    +0.000 A 
ATOM     13  C   UNL     1     -18.990  39.491 -11.208  0.00  0.00    +0.000 A 
ATOM     14  C   UNL     1     -18.727  45.664 -15.148  0.00  0.00    +0.000 A 
ATOM     15  C   UNL     1     -19.342  44.711 -15.941  0.00  0.00    +0.000 A 
ENDROOT
BRANCH   8  16
ATOM     16  N   UNL     1     -17.436  42.379  -9.553  0.00  0.00    +0.000 N 
ATOM     17  H   UNL     1     -16.460  42.218  -9.345  0.00  0.00    +0.000 HD
ATOM     18  H   UNL     1     -17.952  43.084  -9.038  0.00  0.00    +0.000 HD
ENDBRANCH   8  16
TORSDOF 1
ENDMDL
MODEL 4
REMARK VINA RESULT:    -6.332      2.786      4.948
REMARK INTER + INTRA:          -6.517
REMARK INTER:                  -6.517
REMARK INTRA:                   0.000
REMARK UNBOUND:                 0.000
REMARK  Name = 4737814
REMARK  1 active torsions:
REMARK  status: ('A' for Active; 'I' for Inactive)
REMARK    1  A    between atoms: N_5  and  C_9
REMARK                            x       y       z     vdW  Elec       q    Type
REMARK                         _______ _______ _______ _____ _____    ______ ____
ROOT
ATOM      1  O   UNL     1     -19.608  41.921 -14.230  0.00  0.00    +0.000 OA
ATOM      2  N   UNL     1     -18.761  41.892 -12.026  0.00  0.00    +0.000 N 
ATOM      3  N   UNL     1     -17.709  43.885 -11.204  0.00  0.00    +0.000 NA
ATOM      4  N   UNL     1     -17.525  45.792 -12.521  0.00  0.00    +0.000 NA
ATOM      5  C   UNL     1     -18.098  42.654 -11.046  0.00  0.00    +0.000 A 
ATOM      6  C   UNL     1     -18.602  43.862 -13.466  0.00  0.00    +0.000 A 
ATOM      7  C   UNL     1     -19.042  42.465 -13.286  0.00  0.00    +0.000 A 
ATOM      8  C   UNL     1     -19.150  40.549 -11.765  0.00  0.00    +0.000 A 
ATOM      9  C   UNL     1     -17.957  44.512 -12.427  0.00  0.00    +0.000 A 
ATOM     10  C   UNL     1     -17.820  42.014  -9.735  0.00  0.00    +0.000 A 
ATOM     11  C   UNL     1     -18.871  40.017 -10.557  0.00  0.00    +0.000 A 
ATOM     12  C   UNL     1     -18.817  44.550 -14.661  0.00  0.00    +0.000 A 
ATOM     13  C   UNL     1     -18.201  40.754  -9.529  0.00  0.00    +0.000 A 
ATOM     14  C   UNL     1     -18.382  45.864 -14.778  0.00  0.00    +0.000 A 
ATOM     15  C   UNL     1     -17.747  46.434 -13.689  0.00  0.00    +0.000 A 
ENDROOT
BRANCH   8  16
ATOM     16  N   UNL     1     -19.800  39.752 -12.682  0.00  0.00    +0.000 N 
ATOM     17  H   UNL     1     -19.477  39.716 -13.639  0.00  0.00    +0.000 HD
ATOM     18  H   UNL     1     -20.602  39.201 -12.399  0.00  0.00    +0.000 HD
ENDBRANCH   8  16
TORSDOF 1
ENDMDL
MODEL 5
REMARK VINA RESULT:    -6.256      3.251      4.764
REMARK INTER + INTRA:          -6.439
REMARK INTER:                  -6.439
REMARK INTRA:                   0.000
REMARK UNBOUND:                 0.000
REMARK  Name = 4737814
REMARK  1 active torsions:
REMARK  status: ('A' for Active; 'I' for Inactive)
REMARK    1  A    between atoms: N_5  and  C_9
REMARK                            x       y       z     vdW  Elec       q    Type
REMARK                         _______ _______ _______ _____ _____    ______ ____
ROOT
ATOM      1  O   UNL     1     -17.310  43.994 -11.293  0.00  0.00    +0.000 OA
ATOM      2  N   UNL     1     -18.413  43.929 -13.380  0.00  0.00    +0.000 N 
ATOM      3  N   UNL     1     -19.475  41.876 -14.022  0.00  0.00    +0.000 NA
ATOM      4  N   UNL     1     -19.432  40.004 -12.644  0.00  0.00    +0.000 NA
ATOM      5  C   UNL     1     -19.154  43.114 -14.256  0.00  0.00    +0.000 A 
ATOM      6  C   UNL     1     -18.329  41.999 -11.881  0.00  0.00    +0.000 A 
ATOM      7  C   UNL     1     -17.964  43.404 -12.149  0.00  0.00    +0.000 A 
ATOM      8  C   UNL     1     -18.106  45.276 -13.721  0.00  0.00    +0.000 A 
ATOM      9  C   UNL     1     -19.063  41.295 -12.821  0.00  0.00    +0.000 A 
ATOM     10  C   UNL     1     -19.607  43.705 -15.542  0.00  0.00    +0.000 A 
ATOM     11  C   UNL     1     -18.542  45.760 -14.903  0.00  0.00    +0.000 A 
ATOM     12  C   UNL     1     -17.951  41.356 -10.702  0.00  0.00    +0.000 A 
ATOM     13  C   UNL     1     -19.300  44.970 -15.824  0.00  0.00    +0.000 A 
ATOM     14  C   UNL     1     -18.319  40.032 -10.500  0.00  0.00    +0.000 A 
ATOM     15  C   UNL     1     -19.053  39.406 -11.493  0.00  0.00    +0.000 A 
ENDROOT
BRANCH   8  16
ATOM     16  N   UNL     1     -17.386  46.122 -12.907  0.00  0.00    +0.000 N 
ATOM     17  H   UNL     1     -17.102  47.031 -13.249  0.00  0.00    +0.000 HD
ATOM     18  H   UNL     1     -17.139  45.838 -11.967  0.00  0.00    +0.000 HD
ENDBRANCH   8  16
TORSDOF 1
ENDMDL
