MODEL 1
REMARK VINA RESULT:    -5.591      0.000      0.000
REMARK INTER + INTRA:          -6.815
REMARK INTER:                  -6.571
REMARK INTRA:                  -0.244
REMARK UNBOUND:                -0.244
REMARK  Name = 47390719
REMARK  4 active torsions:
REMARK  status: ('A' for Active; 'I' for Inactive)
REMARK    1  A    between atoms: N_2  and  C_5
REMARK    2  A    between atoms: N_4  and  C_14
REMARK    3  A    between atoms: C_11  and  C_13
REMARK    4  A    between atoms: C_14  and  C_15
REMARK                            x       y       z     vdW  Elec       q    Type
REMARK                         _______ _______ _______ _____ _____    ______ ____
ROOT
ATOM      1  N   UNL     1     -21.041  40.805  -8.297  0.00  0.00    +0.000 N 
ATOM      2  N   UNL     1     -19.792  40.498 -10.302  0.00  0.00    +0.000 NA
ATOM      3  C   UNL     1     -19.922  41.118  -9.108  0.00  0.00    +0.000 A 
ATOM      4  C   UNL     1     -19.024  42.052  -8.618  0.00  0.00    +0.000 A 
ATOM      5  C   UNL     1     -17.921  42.370  -9.403  0.00  0.00    +0.000 A 
ATOM      6  C   UNL     1     -17.753  41.753 -10.637  0.00  0.00    +0.000 A 
ATOM      7  C   UNL     1     -18.708  40.832 -11.037  0.00  0.00    +0.000 A 
ATOM      8  H   UNL     1     -21.673  40.114  -8.685  0.00  0.00    +0.000 HD
ENDROOT
BRANCH   6  11
ATOM      9  O   UNL     1     -16.631  41.799 -12.696  0.00  0.00    +0.000 OA
ATOM     10  N   UNL     1     -15.518  42.687 -10.866  0.00  0.00    +0.000 N 
ATOM     11  C   UNL     1     -16.612  42.063 -11.480  0.00  0.00    +0.000 C 
ATOM     12  H   UNL     1     -15.566  42.945  -9.886  0.00  0.00    +0.000 HD
BRANCH  10  13
ATOM     13  C   UNL     1     -14.319  43.079 -11.573  0.00  0.00    +0.000 C 
ATOM     14  C   UNL     1     -14.257  44.581 -11.768  0.00  0.00    +0.000 C 
ENDBRANCH  10  13
ENDBRANCH   6  11
BRANCH   1  15
ATOM     15  C   UNL     1     -21.284  41.401  -6.991  0.00  0.00    +0.000 C 
ATOM     16  C   UNL     1     -21.891  42.767  -6.858  0.00  0.00    +0.000 C 
ATOM     17  C   UNL     1     -22.675  41.554  -6.449  0.00  0.00    +0.000 C 
ENDBRANCH   1  15
TORSDOF 3
ENDMDL
MODEL 2
REMARK VINA RESULT:    -5.590      3.854      4.958
REMARK INTER + INTRA:          -6.814
REMARK INTER:                  -6.788
REMARK INTRA:                  -0.026
REMARK UNBOUND:                -0.244
REMARK  Name = 47390719
REMARK  4 active torsions:
REMARK  status: ('A' for Active; 'I' for Inactive)
REMARK    1  A    between atoms: N_2  and  C_5
REMARK    2  A    between atoms: N_4  and  C_14
REMARK    3  A    between atoms: C_11  and  C_13
REMARK    4  A    between atoms: C_14  and  C_15
REMARK                            x       y       z     vdW  Elec       q    Type
REMARK                         _______ _______ _______ _____ _____    ______ ____
ROOT
ATOM      1  N   UNL     1     -17.903  41.753  -9.871  0.00  0.00    +0.000 N 
ATOM      2  N   UNL     1     -17.631  43.369 -11.601  0.00  0.00    +0.000 NA
ATOM      3  C   UNL     1     -18.225  42.235 -11.164  0.00  0.00    +0.000 A 
ATOM      4  C   UNL     1     -19.138  41.504 -11.906  0.00  0.00    +0.000 A 
ATOM      5  C   UNL     1     -19.463  41.965 -13.177  0.00  0.00    +0.000 A 
ATOM      6  C   UNL     1     -18.873  43.128 -13.661  0.00  0.00    +0.000 A 
ATOM      7  C   UNL     1     -17.972  43.787 -12.840  0.00  0.00    +0.000 A 
ATOM      8  H   UNL     1     -17.237  42.317  -9.356  0.00  0.00    +0.000 HD
ENDROOT
BRANCH   6  11
ATOM      9  O   UNL     1     -19.075  44.846 -15.244  0.00  0.00    +0.000 OA
ATOM     10  N   UNL     1     -19.608  42.700 -15.940  0.00  0.00    +0.000 N 
ATOM     11  C   UNL     1     -19.192  43.635 -14.983  0.00  0.00    +0.000 C 
ATOM     12  H   UNL     1     -19.630  41.713 -15.708  0.00  0.00    +0.000 HD
BRANCH  10  13
ATOM     13  C   UNL     1     -19.939  43.044 -17.305  0.00  0.00    +0.000 C 
ATOM     14  C   UNL     1     -21.435  43.197 -17.490  0.00  0.00    +0.000 C 
ENDBRANCH  10  13
ENDBRANCH   6  11
BRANCH   1  15
ATOM     15  C   UNL     1     -18.482  40.550  -9.291  0.00  0.00    +0.000 C 
ATOM     16  C   UNL     1     -19.005  40.536  -7.884  0.00  0.00    +0.000 C 
ATOM     17  C   UNL     1     -19.958  40.436  -9.041  0.00  0.00    +0.000 C 
ENDBRANCH   1  15
TORSDOF 3
ENDMDL
MODEL 3
REMARK VINA RESULT:    -5.470      2.290      2.969
REMARK INTER + INTRA:          -6.673
REMARK INTER:                  -6.471
REMARK INTRA:                  -0.201
REMARK UNBOUND:                -0.244
REMARK  Name = 47390719
REMARK  4 active torsions:
REMARK  status: ('A' for Active; 'I' for Inactive)
REMARK    1  A    between atoms: N_2  and  C_5
REMARK    2  A    between atoms: N_4  and  C_14
REMARK    3  A    between atoms: C_11  and  C_13
REMARK    4  A    between atoms: C_14  and  C_15
REMARK                            x       y       z     vdW  Elec       q    Type
REMARK                         _______ _______ _______ _____ _____    ______ ____
ROOT
ATOM      1  N   UNL     1     -19.857  40.405 -10.733  0.00  0.00    +0.000 N 
ATOM      2  N   UNL     1     -19.033  41.462 -12.702  0.00  0.00    +0.000 NA
ATOM      3  C   UNL     1     -18.942  41.283 -11.365  0.00  0.00    +0.000 A 
ATOM      4  C   UNL     1     -18.004  41.909 -10.561  0.00  0.00    +0.000 A 
ATOM      5  C   UNL     1     -17.100  42.775 -11.168  0.00  0.00    +0.000 A 
ATOM      6  C   UNL     1     -17.161  42.984 -12.541  0.00  0.00    +0.000 A 
ATOM      7  C   UNL     1     -18.137  42.310 -13.257  0.00  0.00    +0.000 A 
ATOM      8  H   UNL     1     -20.525  39.961 -11.353  0.00  0.00    +0.000 HD
ENDROOT
BRANCH   6  11
ATOM      9  O   UNL     1     -15.006  43.779 -13.011  0.00  0.00    +0.000 OA
ATOM     10  N   UNL     1     -16.776  44.835 -14.073  0.00  0.00    +0.000 N 
ATOM     11  C   UNL     1     -16.231  43.881 -13.203  0.00  0.00    +0.000 C 
ATOM     12  H   UNL     1     -17.774  44.844 -14.253  0.00  0.00    +0.000 HD
BRANCH  10  13
ATOM     13  C   UNL     1     -15.981  45.782 -14.823  0.00  0.00    +0.000 C 
ATOM     14  C   UNL     1     -15.721  47.042 -14.023  0.00  0.00    +0.000 C 
ENDBRANCH  10  13
ENDBRANCH   6  11
BRANCH   1  15
ATOM     15  C   UNL     1     -19.853  40.127  -9.304  0.00  0.00    +0.000 C 
ATOM     16  C   UNL     1     -20.455  41.089  -8.321  0.00  0.00    +0.000 C 
ATOM     17  C   UNL     1     -21.115  39.764  -8.576  0.00  0.00    +0.000 C 
ENDBRANCH   1  15
TORSDOF 3
ENDMDL
MODEL 4
REMARK VINA RESULT:    -5.362      3.775      6.564
REMARK INTER + INTRA:          -6.546
REMARK INTER:                  -6.244
REMARK INTRA:                  -0.302
REMARK UNBOUND:                -0.244
REMARK  Name = 47390719
REMARK  4 active torsions:
REMARK  status: ('A' for Active; 'I' for Inactive)
REMARK    1  A    between atoms: N_2  and  C_5
REMARK    2  A    between atoms: N_4  and  C_14
REMARK    3  A    between atoms: C_11  and  C_13
REMARK    4  A    between atoms: C_14  and  C_15
REMARK                            x       y       z     vdW  Elec       q    Type
REMARK                         _______ _______ _______ _____ _____    ______ ____
ROOT
ATOM      1  N   UNL     1     -18.968  44.352 -15.274  0.00  0.00    +0.000 N 
ATOM      2  N   UNL     1     -19.482  42.295 -14.185  0.00  0.00    +0.000 NA
ATOM      3  C   UNL     1     -18.873  43.502 -14.144  0.00  0.00    +0.000 A 
ATOM      4  C   UNL     1     -18.153  43.969 -13.057  0.00  0.00    +0.000 A 
ATOM      5  C   UNL     1     -18.050  43.146 -11.941  0.00  0.00    +0.000 A 
ATOM      6  C   UNL     1     -18.663  41.897 -11.946  0.00  0.00    +0.000 A 
ATOM      7  C   UNL     1     -19.361  41.523 -13.083  0.00  0.00    +0.000 A 
ATOM      8  H   UNL     1     -19.507  43.979 -16.047  0.00  0.00    +0.000 HD
ENDROOT
BRANCH   6  11
ATOM      9  O   UNL     1     -17.525  40.391 -10.555  0.00  0.00    +0.000 OA
ATOM     10  N   UNL     1     -19.705  40.926  -9.973  0.00  0.00    +0.000 N 
ATOM     11  C   UNL     1     -18.575  41.015 -10.796  0.00  0.00    +0.000 C 
ATOM     12  H   UNL     1     -20.519  41.500 -10.167  0.00  0.00    +0.000 HD
BRANCH  10  13
ATOM     13  C   UNL     1     -19.765  40.110  -8.781  0.00  0.00    +0.000 C 
ATOM     14  C   UNL     1     -19.505  40.931  -7.534  0.00  0.00    +0.000 C 
ENDBRANCH  10  13
ENDBRANCH   6  11
BRANCH   1  15
ATOM     15  C   UNL     1     -18.362  45.673 -15.343  0.00  0.00    +0.000 C 
ATOM     16  C   UNL     1     -17.866  46.236 -16.643  0.00  0.00    +0.000 C 
ATOM     17  C   UNL     1     -19.077  46.828 -15.982  0.00  0.00    +0.000 C 
ENDBRANCH   1  15
TORSDOF 3
ENDMDL
MODEL 5
REMARK VINA RESULT:    -5.039      4.379      5.944
REMARK INTER + INTRA:          -6.166
REMARK INTER:                  -5.870
REMARK INTRA:                  -0.296
REMARK UNBOUND:                -0.244
REMARK  Name = 47390719
REMARK  4 active torsions:
REMARK  status: ('A' for Active; 'I' for Inactive)
REMARK    1  A    between atoms: N_2  and  C_5
REMARK    2  A    between atoms: N_4  and  C_14
REMARK    3  A    between atoms: C_11  and  C_13
REMARK    4  A    between atoms: C_14  and  C_15
REMARK                            x       y       z     vdW  Elec       q    Type
REMARK                         _______ _______ _______ _____ _____    ______ ____
ROOT
ATOM      1  N   UNL     1     -20.770  42.990 -15.603  0.00  0.00    +0.000 N 
ATOM      2  N   UNL     1     -19.644  41.928 -13.792  0.00  0.00    +0.000 NA
ATOM      3  C   UNL     1     -19.735  42.981 -14.636  0.00  0.00    +0.000 A 
ATOM      4  C   UNL     1     -18.872  44.064 -14.617  0.00  0.00    +0.000 A 
ATOM      5  C   UNL     1     -17.851  44.069 -13.673  0.00  0.00    +0.000 A 
ATOM      6  C   UNL     1     -17.726  43.004 -12.788  0.00  0.00    +0.000 A 
ATOM      7  C   UNL     1     -18.640  41.968 -12.887  0.00  0.00    +0.000 A 
ATOM      8  H   UNL     1     -21.384  42.184 -15.583  0.00  0.00    +0.000 HD
ENDROOT
BRANCH   6  11
ATOM      9  O   UNL     1     -16.942  42.833 -10.584  0.00  0.00    +0.000 OA
ATOM     10  N   UNL     1     -15.355  43.104 -12.252  0.00  0.00    +0.000 N 
ATOM     11  C   UNL     1     -16.671  42.980 -11.790  0.00  0.00    +0.000 C 
ATOM     12  H   UNL     1     -15.171  43.157 -13.249  0.00  0.00    +0.000 HD
BRANCH  10  13
ATOM     13  C   UNL     1     -14.196  43.076 -11.388  0.00  0.00    +0.000 C 
ATOM     14  C   UNL     1     -13.416  44.372 -11.465  0.00  0.00    +0.000 C 
ENDBRANCH  10  13
ENDBRANCH   6  11
BRANCH   1  15
ATOM     15  C   UNL     1     -20.971  44.069 -16.559  0.00  0.00    +0.000 C 
ATOM     16  C   UNL     1     -21.497  43.801 -17.939  0.00  0.00    +0.000 C 
ATOM     17  C   UNL     1     -22.349  44.529 -16.939  0.00  0.00    +0.000 C 
ENDBRANCH   1  15
TORSDOF 3
ENDMDL
