MODEL 1
REMARK VINA RESULT:    -5.672      0.000      0.000
REMARK INTER + INTRA:          -6.411
REMARK INTER:                  -6.170
REMARK INTRA:                  -0.241
REMARK UNBOUND:                -0.241
REMARK  Name = 506623
REMARK  2 active torsions:
REMARK  status: ('A' for Active; 'I' for Inactive)
REMARK    1  A    between atoms: N_3  and  C_6
REMARK    2  A    between atoms: C_5  and  C_9
REMARK                            x       y       z     vdW  Elec       q    Type
REMARK                         _______ _______ _______ _____ _____    ______ ____
ROOT
ATOM      1  N   UNL     1     -18.493  42.236  -8.277  0.00  0.00    +0.000 NA
ATOM      2  C   UNL     1     -19.337  40.673  -9.917  0.00  0.00    +0.000 A 
ATOM      3  C   UNL     1     -18.394  41.574  -9.452  0.00  0.00    +0.000 A 
ATOM      4  C   UNL     1     -20.456  40.436  -9.126  0.00  0.00    +0.000 A 
ATOM      5  C   UNL     1     -20.595  41.098  -7.911  0.00  0.00    +0.000 A 
ATOM      6  C   UNL     1     -19.594  41.979  -7.536  0.00  0.00    +0.000 A 
ENDROOT
BRANCH   2   9
ATOM      7  O   UNL     1     -18.452  38.993 -11.311  0.00  0.00    +0.000 OA
ATOM      8  N   UNL     1     -19.961  40.435 -12.260  0.00  0.00    +0.000 N 
ATOM      9  C   UNL     1     -19.203  39.975 -11.188  0.00  0.00    +0.000 C 
ATOM     10  H   UNL     1     -20.585  41.232 -12.177  0.00  0.00    +0.000 HD
ATOM     11  H   UNL     1     -19.912  39.982 -13.167  0.00  0.00    +0.000 HD
ENDBRANCH   2   9
BRANCH   3  12
ATOM     12  N   UNL     1     -17.250  41.820 -10.253  0.00  0.00    +0.000 N 
ATOM     13  H   UNL     1     -17.358  42.371 -11.095  0.00  0.00    +0.000 HD
ATOM     14  H   UNL     1     -16.533  41.104 -10.249  0.00  0.00    +0.000 HD
ENDBRANCH   3  12
TORSDOF 2
ENDMDL
MODEL 2
REMARK VINA RESULT:    -5.600      3.607      5.062
REMARK INTER + INTRA:          -6.332
REMARK INTER:                  -6.059
REMARK INTRA:                  -0.273
REMARK UNBOUND:                -0.241
REMARK  Name = 506623
REMARK  2 active torsions:
REMARK  status: ('A' for Active; 'I' for Inactive)
REMARK    1  A    between atoms: N_3  and  C_6
REMARK    2  A    between atoms: C_5  and  C_9
REMARK                            x       y       z     vdW  Elec       q    Type
REMARK                         _______ _______ _______ _____ _____    ______ ____
ROOT
ATOM      1  N   UNL     1     -21.266  39.915  -8.654  0.00  0.00    +0.000 NA
ATOM      2  C   UNL     1     -21.160  41.864  -7.228  0.00  0.00    +0.000 A 
ATOM      3  C   UNL     1     -21.844  40.826  -7.839  0.00  0.00    +0.000 A 
ATOM      4  C   UNL     1     -19.796  41.976  -7.470  0.00  0.00    +0.000 A 
ATOM      5  C   UNL     1     -19.165  41.059  -8.303  0.00  0.00    +0.000 A 
ATOM      6  C   UNL     1     -19.938  40.056  -8.865  0.00  0.00    +0.000 A 
ENDROOT
BRANCH   2   9
ATOM      7  O   UNL     1     -22.645  43.640  -6.793  0.00  0.00    +0.000 OA
ATOM      8  N   UNL     1     -21.481  42.805  -5.003  0.00  0.00    +0.000 N 
ATOM      9  C   UNL     1     -21.811  42.831  -6.354  0.00  0.00    +0.000 C 
ATOM     10  H   UNL     1     -20.807  42.146  -4.625  0.00  0.00    +0.000 HD
ATOM     11  H   UNL     1     -21.908  43.451  -4.348  0.00  0.00    +0.000 HD
ENDBRANCH   2   9
BRANCH   3  12
ATOM     12  N   UNL     1     -23.235  40.705  -7.596  0.00  0.00    +0.000 N 
ATOM     13  H   UNL     1     -23.549  40.524  -6.652  0.00  0.00    +0.000 HD
ATOM     14  H   UNL     1     -23.796  40.337  -8.357  0.00  0.00    +0.000 HD
ENDBRANCH   3  12
TORSDOF 2
ENDMDL
MODEL 3
REMARK VINA RESULT:    -5.498      2.204      3.273
REMARK INTER + INTRA:          -6.221
REMARK INTER:                  -5.965
REMARK INTRA:                  -0.256
REMARK UNBOUND:                -0.241
REMARK  Name = 506623
REMARK  2 active torsions:
REMARK  status: ('A' for Active; 'I' for Inactive)
REMARK    1  A    between atoms: N_3  and  C_6
REMARK    2  A    between atoms: C_5  and  C_9
REMARK                            x       y       z     vdW  Elec       q    Type
REMARK                         _______ _______ _______ _____ _____    ______ ____
ROOT
ATOM      1  N   UNL     1     -22.266  40.644  -7.951  0.00  0.00    +0.000 NA
ATOM      2  C   UNL     1     -19.988  41.453  -8.001  0.00  0.00    +0.000 A 
ATOM      3  C   UNL     1     -21.004  40.616  -8.435  0.00  0.00    +0.000 A 
ATOM      4  C   UNL     1     -20.287  42.376  -7.005  0.00  0.00    +0.000 A 
ATOM      5  C   UNL     1     -21.574  42.434  -6.481  0.00  0.00    +0.000 A 
ATOM      6  C   UNL     1     -22.518  41.554  -6.984  0.00  0.00    +0.000 A 
ENDROOT
BRANCH   2   9
ATOM      7  O   UNL     1     -18.010  40.330  -8.611  0.00  0.00    +0.000 OA
ATOM      8  N   UNL     1     -18.078  42.589  -8.999  0.00  0.00    +0.000 N 
ATOM      9  C   UNL     1     -18.637  41.400  -8.542  0.00  0.00    +0.000 C 
ATOM     10  H   UNL     1     -18.579  43.472  -8.958  0.00  0.00    +0.000 HD
ATOM     11  H   UNL     1     -17.143  42.609  -9.392  0.00  0.00    +0.000 HD
ENDBRANCH   2   9
BRANCH   3  12
ATOM     12  N   UNL     1     -20.707  39.673  -9.451  0.00  0.00    +0.000 N 
ATOM     13  H   UNL     1     -21.199  39.738 -10.332  0.00  0.00    +0.000 HD
ATOM     14  H   UNL     1     -20.418  38.752  -9.141  0.00  0.00    +0.000 HD
ENDBRANCH   3  12
TORSDOF 2
ENDMDL
MODEL 4
REMARK VINA RESULT:    -5.231      2.010      2.830
REMARK INTER + INTRA:          -5.931
REMARK INTER:                  -5.657
REMARK INTRA:                  -0.273
REMARK UNBOUND:                -0.241
REMARK  Name = 506623
REMARK  2 active torsions:
REMARK  status: ('A' for Active; 'I' for Inactive)
REMARK    1  A    between atoms: N_3  and  C_6
REMARK    2  A    between atoms: C_5  and  C_9
REMARK                            x       y       z     vdW  Elec       q    Type
REMARK                         _______ _______ _______ _____ _____    ______ ____
ROOT
ATOM      1  N   UNL     1     -19.529  39.796  -9.547  0.00  0.00    +0.000 NA
ATOM      2  C   UNL     1     -18.450  41.025 -11.327  0.00  0.00    +0.000 A 
ATOM      3  C   UNL     1     -19.190  39.957 -10.845  0.00  0.00    +0.000 A 
ATOM      4  C   UNL     1     -18.031  41.989 -10.417  0.00  0.00    +0.000 A 
ATOM      5  C   UNL     1     -18.361  41.859  -9.072  0.00  0.00    +0.000 A 
ATOM      6  C   UNL     1     -19.105  40.754  -8.692  0.00  0.00    +0.000 A 
ENDROOT
BRANCH   2   9
ATOM      7  O   UNL     1     -18.971  41.294 -13.608  0.00  0.00    +0.000 OA
ATOM      8  N   UNL     1     -16.747  41.188 -13.061  0.00  0.00    +0.000 N 
ATOM      9  C   UNL     1     -18.099  41.171 -12.732  0.00  0.00    +0.000 C 
ATOM     10  H   UNL     1     -16.019  41.096 -12.358  0.00  0.00    +0.000 HD
ATOM     11  H   UNL     1     -16.445  41.294 -14.024  0.00  0.00    +0.000 HD
ENDBRANCH   2   9
BRANCH   3  12
ATOM     12  N   UNL     1     -19.620  38.970 -11.767  0.00  0.00    +0.000 N 
ATOM     13  H   UNL     1     -19.036  38.157 -11.915  0.00  0.00    +0.000 HD
ATOM     14  H   UNL     1     -20.179  39.295 -12.548  0.00  0.00    +0.000 HD
ENDBRANCH   3  12
TORSDOF 2
ENDMDL
MODEL 5
REMARK VINA RESULT:    -4.840      2.239      3.977
REMARK INTER + INTRA:          -5.505
REMARK INTER:                  -5.284
REMARK INTRA:                  -0.221
REMARK UNBOUND:                -0.241
REMARK  Name = 506623
REMARK  2 active torsions:
REMARK  status: ('A' for Active; 'I' for Inactive)
REMARK    1  A    between atoms: N_3  and  C_6
REMARK    2  A    between atoms: C_5  and  C_9
REMARK                            x       y       z     vdW  Elec       q    Type
REMARK                         _______ _______ _______ _____ _____    ______ ____
ROOT
ATOM      1  N   UNL     1     -18.763  41.927 -13.429  0.00  0.00    +0.000 NA
ATOM      2  C   UNL     1     -18.642  41.508 -11.051  0.00  0.00    +0.000 A 
ATOM      3  C   UNL     1     -19.042  41.181 -12.336  0.00  0.00    +0.000 A 
ATOM      4  C   UNL     1     -17.909  42.676 -10.875  0.00  0.00    +0.000 A 
ATOM      5  C   UNL     1     -17.602  43.470 -11.975  0.00  0.00    +0.000 A 
ATOM      6  C   UNL     1     -18.048  43.055 -13.218  0.00  0.00    +0.000 A 
ENDROOT
BRANCH   2   9
ATOM      7  O   UNL     1     -20.084  40.179  -9.747  0.00  0.00    +0.000 OA
ATOM      8  N   UNL     1     -17.950  40.465  -8.961  0.00  0.00    +0.000 N 
ATOM      9  C   UNL     1     -18.959  40.684  -9.893  0.00  0.00    +0.000 C 
ATOM     10  H   UNL     1     -17.022  40.864  -9.067  0.00  0.00    +0.000 HD
ATOM     11  H   UNL     1     -18.113  39.894  -8.139  0.00  0.00    +0.000 HD
ENDBRANCH   2   9
BRANCH   3  12
ATOM     12  N   UNL     1     -19.790  39.991 -12.523  0.00  0.00    +0.000 N 
ATOM     13  H   UNL     1     -19.952  39.663 -13.466  0.00  0.00    +0.000 HD
ATOM     14  H   UNL     1     -20.500  39.790 -11.828  0.00  0.00    +0.000 HD
ENDBRANCH   3  12
TORSDOF 2
ENDMDL
