MODEL 1
REMARK VINA RESULT:    -5.773      0.000      0.000
REMARK INTER + INTRA:          -6.207
REMARK INTER:                  -6.110
REMARK INTRA:                  -0.097
REMARK UNBOUND:                -0.097
REMARK  Name = 51076322
REMARK  2 active torsions:
REMARK  status: ('A' for Active; 'I' for Inactive)
REMARK    1  A    between atoms: N_4  and  C_15
REMARK    2  A    between atoms: C_12  and  C_14
REMARK                            x       y       z     vdW  Elec       q    Type
REMARK                         _______ _______ _______ _____ _____    ______ ____
ROOT
ATOM      1  N   UNL     1     -17.959  40.407 -10.602  0.00  0.00    +0.000 N 
ATOM      2  N   UNL     1     -20.109  40.132  -9.697  0.00  0.00    +0.000 NA
ATOM      3  C   UNL     1     -15.886  40.098 -11.669  0.00  0.00    +0.000 C 
ATOM      4  C   UNL     1     -16.993  39.661 -12.612  0.00  0.00    +0.000 C 
ATOM      5  C   UNL     1     -16.618  40.982 -10.661  0.00  0.00    +0.000 C 
ATOM      6  C   UNL     1     -18.180  39.443 -11.676  0.00  0.00    +0.000 C 
ATOM      7  C   UNL     1     -18.899  40.733  -9.648  0.00  0.00    +0.000 A 
ATOM      8  C   UNL     1     -18.535  41.667  -8.691  0.00  0.00    +0.000 A 
ATOM      9  C   UNL     1     -19.473  42.006  -7.723  0.00  0.00    +0.000 A 
ATOM     10  C   UNL     1     -20.729  41.409  -7.741  0.00  0.00    +0.000 A 
ATOM     11  C   UNL     1     -20.995  40.487  -8.740  0.00  0.00    +0.000 A 
ENDROOT
BRANCH  10  14
ATOM     12  O   UNL     1     -22.882  41.275  -6.821  0.00  0.00    +0.000 OA
ATOM     13  N   UNL     1     -21.332  42.582  -5.695  0.00  0.00    +0.000 N 
ATOM     14  C   UNL     1     -21.730  41.742  -6.743  0.00  0.00    +0.000 C 
ATOM     15  C   UNL     1     -22.204  42.984  -4.615  0.00  0.00    +0.000 C 
ATOM     16  H   UNL     1     -20.364  42.875  -5.622  0.00  0.00    +0.000 HD
ENDBRANCH  10  14
TORSDOF 1
ENDMDL
MODEL 2
REMARK VINA RESULT:    -5.686      4.655      5.538
REMARK INTER + INTRA:          -6.116
REMARK INTER:                  -6.043
REMARK INTRA:                  -0.072
REMARK UNBOUND:                -0.097
REMARK  Name = 51076322
REMARK  2 active torsions:
REMARK  status: ('A' for Active; 'I' for Inactive)
REMARK    1  A    between atoms: N_4  and  C_15
REMARK    2  A    between atoms: C_12  and  C_14
REMARK                            x       y       z     vdW  Elec       q    Type
REMARK                         _______ _______ _______ _____ _____    ______ ____
ROOT
ATOM      1  N   UNL     1     -19.240  43.845 -14.933  0.00  0.00    +0.000 N 
ATOM      2  N   UNL     1     -19.585  41.903 -13.658  0.00  0.00    +0.000 NA
ATOM      3  C   UNL     1     -18.954  45.399 -16.676  0.00  0.00    +0.000 C 
ATOM      4  C   UNL     1     -20.232  44.617 -16.921  0.00  0.00    +0.000 C 
ATOM      5  C   UNL     1     -18.689  45.174 -15.188  0.00  0.00    +0.000 C 
ATOM      6  C   UNL     1     -20.050  43.373 -16.052  0.00  0.00    +0.000 C 
ATOM      7  C   UNL     1     -19.020  43.124 -13.779  0.00  0.00    +0.000 A 
ATOM      8  C   UNL     1     -18.224  43.710 -12.807  0.00  0.00    +0.000 A 
ATOM      9  C   UNL     1     -17.993  42.996 -11.637  0.00  0.00    +0.000 A 
ATOM     10  C   UNL     1     -18.558  41.735 -11.476  0.00  0.00    +0.000 A 
ATOM     11  C   UNL     1     -19.338  41.238 -12.507  0.00  0.00    +0.000 A 
ENDROOT
BRANCH  10  14
ATOM     12  O   UNL     1     -17.340  40.222 -10.162  0.00  0.00    +0.000 OA
ATOM     13  N   UNL     1     -19.267  41.115  -9.232  0.00  0.00    +0.000 N 
ATOM     14  C   UNL     1     -18.335  40.964 -10.266  0.00  0.00    +0.000 C 
ATOM     15  C   UNL     1     -19.171  40.436  -7.961  0.00  0.00    +0.000 C 
ATOM     16  H   UNL     1     -20.019  41.791  -9.324  0.00  0.00    +0.000 HD
ENDBRANCH  10  14
TORSDOF 1
ENDMDL
MODEL 3
REMARK VINA RESULT:    -5.439      2.547      6.144
REMARK INTER + INTRA:          -5.854
REMARK INTER:                  -5.758
REMARK INTRA:                  -0.096
REMARK UNBOUND:                -0.097
REMARK  Name = 51076322
REMARK  2 active torsions:
REMARK  status: ('A' for Active; 'I' for Inactive)
REMARK    1  A    between atoms: N_4  and  C_15
REMARK    2  A    between atoms: C_12  and  C_14
REMARK                            x       y       z     vdW  Elec       q    Type
REMARK                         _______ _______ _______ _____ _____    ______ ____
ROOT
ATOM      1  N   UNL     1     -21.005  41.445  -7.896  0.00  0.00    +0.000 N 
ATOM      2  N   UNL     1     -20.057  40.150  -9.610  0.00  0.00    +0.000 NA
ATOM      3  C   UNL     1     -22.472  42.620  -6.481  0.00  0.00    +0.000 C 
ATOM      4  C   UNL     1     -22.990  41.203  -6.657  0.00  0.00    +0.000 C 
ATOM      5  C   UNL     1     -21.005  42.507  -6.892  0.00  0.00    +0.000 C 
ATOM      6  C   UNL     1     -22.277  40.727  -7.922  0.00  0.00    +0.000 C 
ATOM      7  C   UNL     1     -19.937  41.158  -8.718  0.00  0.00    +0.000 A 
ATOM      8  C   UNL     1     -18.798  41.933  -8.573  0.00  0.00    +0.000 A 
ATOM      9  C   UNL     1     -17.711  41.655  -9.394  0.00  0.00    +0.000 A 
ATOM     10  C   UNL     1     -17.797  40.625 -10.325  0.00  0.00    +0.000 A 
ATOM     11  C   UNL     1     -18.981  39.908 -10.392  0.00  0.00    +0.000 A 
ENDROOT
BRANCH  10  14
ATOM     12  O   UNL     1     -16.854  39.639 -12.232  0.00  0.00    +0.000 OA
ATOM     13  N   UNL     1     -15.424  40.813 -10.834  0.00  0.00    +0.000 N 
ATOM     14  C   UNL     1     -16.680  40.310 -11.198  0.00  0.00    +0.000 C 
ATOM     15  C   UNL     1     -14.224  40.607 -11.610  0.00  0.00    +0.000 C 
ATOM     16  H   UNL     1     -15.339  41.424 -10.029  0.00  0.00    +0.000 HD
ENDBRANCH  10  14
TORSDOF 1
ENDMDL
MODEL 4
REMARK VINA RESULT:    -5.389      5.854      7.467
REMARK INTER + INTRA:          -5.801
REMARK INTER:                  -5.725
REMARK INTRA:                  -0.076
REMARK UNBOUND:                -0.097
REMARK  Name = 51076322
REMARK  2 active torsions:
REMARK  status: ('A' for Active; 'I' for Inactive)
REMARK    1  A    between atoms: N_4  and  C_15
REMARK    2  A    between atoms: C_12  and  C_14
REMARK                            x       y       z     vdW  Elec       q    Type
REMARK                         _______ _______ _______ _____ _____    ______ ____
ROOT
ATOM      1  N   UNL     1     -18.732  41.738 -12.195  0.00  0.00    +0.000 N 
ATOM      2  N   UNL     1     -19.619  42.214 -14.317  0.00  0.00    +0.000 NA
ATOM      3  C   UNL     1     -18.343  40.908 -10.028  0.00  0.00    +0.000 C 
ATOM      4  C   UNL     1     -18.589  39.738 -10.964  0.00  0.00    +0.000 C 
ATOM      5  C   UNL     1     -17.979  42.045 -10.982  0.00  0.00    +0.000 C 
ATOM      6  C   UNL     1     -19.290  40.388 -12.156  0.00  0.00    +0.000 C 
ATOM      7  C   UNL     1     -18.899  42.614 -13.245  0.00  0.00    +0.000 A 
ATOM      8  C   UNL     1     -18.307  43.861 -13.131  0.00  0.00    +0.000 A 
ATOM      9  C   UNL     1     -18.465  44.756 -14.183  0.00  0.00    +0.000 A 
ATOM     10  C   UNL     1     -19.200  44.381 -15.302  0.00  0.00    +0.000 A 
ATOM     11  C   UNL     1     -19.752  43.110 -15.320  0.00  0.00    +0.000 A 
ENDROOT
BRANCH  10  14
ATOM     12  O   UNL     1     -18.423  45.602 -17.147  0.00  0.00    +0.000 OA
ATOM     13  N   UNL     1     -20.678  45.780 -16.638  0.00  0.00    +0.000 N 
ATOM     14  C   UNL     1     -19.384  45.293 -16.417  0.00  0.00    +0.000 C 
ATOM     15  C   UNL     1     -21.024  46.674 -17.718  0.00  0.00    +0.000 C 
ATOM     16  H   UNL     1     -21.448  45.441 -16.071  0.00  0.00    +0.000 HD
ENDBRANCH  10  14
TORSDOF 1
ENDMDL
MODEL 5
REMARK VINA RESULT:    -5.027      5.708      7.892
REMARK INTER + INTRA:          -5.418
REMARK INTER:                  -5.345
REMARK INTRA:                  -0.073
REMARK UNBOUND:                -0.097
REMARK  Name = 51076322
REMARK  2 active torsions:
REMARK  status: ('A' for Active; 'I' for Inactive)
REMARK    1  A    between atoms: N_4  and  C_15
REMARK    2  A    between atoms: C_12  and  C_14
REMARK                            x       y       z     vdW  Elec       q    Type
REMARK                         _______ _______ _______ _____ _____    ______ ____
ROOT
ATOM      1  N   UNL     1     -18.584  42.270 -11.923  0.00  0.00    +0.000 N 
ATOM      2  N   UNL     1     -18.116  44.190 -13.192  0.00  0.00    +0.000 NA
ATOM      3  C   UNL     1     -18.486  40.447 -10.438  0.00  0.00    +0.000 C 
ATOM      4  C   UNL     1     -18.116  41.713  -9.685  0.00  0.00    +0.000 C 
ATOM      5  C   UNL     1     -19.217  40.978 -11.671  0.00  0.00    +0.000 C 
ATOM      6  C   UNL     1     -17.742  42.685 -10.803  0.00  0.00    +0.000 C 
ATOM      7  C   UNL     1     -18.757  43.005 -13.075  0.00  0.00    +0.000 A 
ATOM      8  C   UNL     1     -19.588  42.474 -14.048  0.00  0.00    +0.000 A 
ATOM      9  C   UNL     1     -19.774  43.204 -15.216  0.00  0.00    +0.000 A 
ATOM     10  C   UNL     1     -19.131  44.427 -15.373  0.00  0.00    +0.000 A 
ATOM     11  C   UNL     1     -18.320  44.872 -14.341  0.00  0.00    +0.000 A 
ENDROOT
BRANCH  10  14
ATOM     12  O   UNL     1     -20.320  45.916 -16.740  0.00  0.00    +0.000 OA
ATOM     13  N   UNL     1     -18.277  45.159 -17.532  0.00  0.00    +0.000 N 
ATOM     14  C   UNL     1     -19.304  45.214 -16.582  0.00  0.00    +0.000 C 
ATOM     15  C   UNL     1     -18.292  45.902 -18.771  0.00  0.00    +0.000 C 
ATOM     16  H   UNL     1     -17.429  44.640 -17.330  0.00  0.00    +0.000 HD
ENDBRANCH  10  14
TORSDOF 1
ENDMDL
