MODEL 1
REMARK VINA RESULT:    -6.250      0.000      0.000
REMARK INTER + INTRA:          -8.897
REMARK INTER:                  -8.442
REMARK INTRA:                  -0.455
REMARK UNBOUND:                -0.455
REMARK  Name = 51088433
REMARK  10 active torsions:
REMARK  status: ('A' for Active; 'I' for Inactive)
REMARK    1  A    between atoms: N_3  and  C_8
REMARK    2  A    between atoms: N_3  and  C_9
REMARK    3  A    between atoms: N_4  and  C_11
REMARK    4  A    between atoms: N_5  and  C_20
REMARK    5  A    between atoms: N_5  and  C_21
REMARK    6  A    between atoms: C_7  and  C_10
REMARK    7  A    between atoms: C_7  and  C_11
REMARK    8  A    between atoms: C_8  and  C_12
REMARK    9  A    between atoms: C_9  and  C_13
REMARK   10  A    between atoms: C_14  and  C_15
REMARK                            x       y       z     vdW  Elec       q    Type
REMARK                         _______ _______ _______ _____ _____    ______ ____
ROOT
ATOM      1  O   UNL     1     -20.626  42.304 -17.118  0.00  0.00    +0.000 OA
ATOM      2  N   UNL     1     -20.148  43.642 -15.285  0.00  0.00    +0.000 N 
ATOM      3  C   UNL     1     -20.773  43.349 -16.492  0.00  0.00    +0.000 C 
ATOM      4  H   UNL     1     -20.267  44.551 -14.851  0.00  0.00    +0.000 HD
ENDROOT
BRANCH   3   7
ATOM      5  N   UNL     1     -24.036  47.411 -18.627  0.00  0.00    +0.000 N 
ATOM      6  N   UNL     1     -21.878  46.444 -18.330  0.00  0.00    +0.000 NA
ATOM      7  C   UNL     1     -21.654  44.409 -17.045  0.00  0.00    +0.000 A 
ATOM      8  C   UNL     1     -23.208  46.392 -18.093  0.00  0.00    +0.000 A 
ATOM      9  C   UNL     1     -23.026  44.391 -16.821  0.00  0.00    +0.000 A 
ATOM     10  C   UNL     1     -23.825  45.397 -17.353  0.00  0.00    +0.000 A 
ATOM     11  C   UNL     1     -21.134  45.449 -17.799  0.00  0.00    +0.000 A 
ATOM     12  C   UNL     1     -25.463  47.386 -18.392  0.00  0.00    +0.000 C 
ATOM     13  C   UNL     1     -23.459  48.486 -19.404  0.00  0.00    +0.000 C 
ENDBRANCH   3   7
BRANCH   2  14
ATOM     14  C   UNL     1     -19.247  42.728 -14.636  0.00  0.00    +0.000 C 
BRANCH  14  15
ATOM     15  C   UNL     1     -19.244  42.905 -13.121  0.00  0.00    +0.000 C 
BRANCH  15  18
ATOM     16  O   UNL     1     -19.748  40.589 -12.734  0.00  0.00    +0.000 OA
ATOM     17  N   UNL     1     -18.314  41.604 -11.221  0.00  0.00    +0.000 N 
ATOM     18  C   UNL     1     -19.136  41.590 -12.353  0.00  0.00    +0.000 C 
BRANCH  17  19
ATOM     19  C   UNL     1     -17.597  42.801 -10.788  0.00  0.00    +0.000 C 
ATOM     20  C   UNL     1     -16.139  42.753 -11.200  0.00  0.00    +0.000 C 
ENDBRANCH  17  19
BRANCH  17  21
ATOM     21  C   UNL     1     -18.109  40.425 -10.389  0.00  0.00    +0.000 C 
ATOM     22  C   UNL     1     -18.922  40.497  -9.113  0.00  0.00    +0.000 C 
ENDBRANCH  17  21
ENDBRANCH  15  18
ENDBRANCH  14  15
ENDBRANCH   2  14
TORSDOF 6
ENDMDL
MODEL 2
REMARK VINA RESULT:    -5.918      3.164      8.116
REMARK INTER + INTRA:          -8.449
REMARK INTER:                  -7.492
REMARK INTRA:                  -0.957
REMARK UNBOUND:                -0.455
REMARK  Name = 51088433
REMARK  10 active torsions:
REMARK  status: ('A' for Active; 'I' for Inactive)
REMARK    1  A    between atoms: N_3  and  C_8
REMARK    2  A    between atoms: N_3  and  C_9
REMARK    3  A    between atoms: N_4  and  C_11
REMARK    4  A    between atoms: N_5  and  C_20
REMARK    5  A    between atoms: N_5  and  C_21
REMARK    6  A    between atoms: C_7  and  C_10
REMARK    7  A    between atoms: C_7  and  C_11
REMARK    8  A    between atoms: C_8  and  C_12
REMARK    9  A    between atoms: C_9  and  C_13
REMARK   10  A    between atoms: C_14  and  C_15
REMARK                            x       y       z     vdW  Elec       q    Type
REMARK                         _______ _______ _______ _____ _____    ______ ____
ROOT
ATOM      1  O   UNL     1     -18.582  46.434 -13.483  0.00  0.00    +0.000 OA
ATOM      2  N   UNL     1     -17.462  45.357 -15.206  0.00  0.00    +0.000 N 
ATOM      3  C   UNL     1     -18.114  45.413 -13.979  0.00  0.00    +0.000 C 
ATOM      4  H   UNL     1     -17.046  44.490 -15.529  0.00  0.00    +0.000 HD
ENDROOT
BRANCH   3   7
ATOM      5  N   UNL     1     -18.528  40.519 -11.225  0.00  0.00    +0.000 N 
ATOM      6  N   UNL     1     -18.919  41.821 -13.182  0.00  0.00    +0.000 NA
ATOM      7  C   UNL     1     -18.211  44.132 -13.233  0.00  0.00    +0.000 A 
ATOM      8  C   UNL     1     -18.427  41.747 -11.925  0.00  0.00    +0.000 A 
ATOM      9  C   UNL     1     -17.719  44.018 -11.938  0.00  0.00    +0.000 A 
ATOM     10  C   UNL     1     -17.825  42.805 -11.265  0.00  0.00    +0.000 A 
ATOM     11  C   UNL     1     -18.797  43.014 -13.805  0.00  0.00    +0.000 A 
ATOM     12  C   UNL     1     -18.014  40.404  -9.878  0.00  0.00    +0.000 C 
ATOM     13  C   UNL     1     -19.153  39.374 -11.851  0.00  0.00    +0.000 C 
ENDBRANCH   3   7
BRANCH   2  14
ATOM     14  C   UNL     1     -17.266  46.517 -16.033  0.00  0.00    +0.000 C 
BRANCH  14  15
ATOM     15  C   UNL     1     -17.890  46.347 -17.414  0.00  0.00    +0.000 C 
BRANCH  15  18
ATOM     16  O   UNL     1     -20.155  46.150 -16.643  0.00  0.00    +0.000 OA
ATOM     17  N   UNL     1     -19.468  44.616 -18.240  0.00  0.00    +0.000 N 
ATOM     18  C   UNL     1     -19.275  45.707 -17.385  0.00  0.00    +0.000 C 
BRANCH  17  19
ATOM     19  C   UNL     1     -18.412  44.108 -19.112  0.00  0.00    +0.000 C 
ATOM     20  C   UNL     1     -18.769  44.285 -20.575  0.00  0.00    +0.000 C 
ENDBRANCH  17  19
BRANCH  17  21
ATOM     21  C   UNL     1     -20.738  43.905 -18.325  0.00  0.00    +0.000 C 
ATOM     22  C   UNL     1     -20.774  42.718 -17.385  0.00  0.00    +0.000 C 
ENDBRANCH  17  21
ENDBRANCH  15  18
ENDBRANCH  14  15
ENDBRANCH   2  14
TORSDOF 6
ENDMDL
MODEL 3
REMARK VINA RESULT:    -5.873      2.401      8.352
REMARK INTER + INTRA:          -8.388
REMARK INTER:                  -7.495
REMARK INTRA:                  -0.893
REMARK UNBOUND:                -0.455
REMARK  Name = 51088433
REMARK  10 active torsions:
REMARK  status: ('A' for Active; 'I' for Inactive)
REMARK    1  A    between atoms: N_3  and  C_8
REMARK    2  A    between atoms: N_3  and  C_9
REMARK    3  A    between atoms: N_4  and  C_11
REMARK    4  A    between atoms: N_5  and  C_20
REMARK    5  A    between atoms: N_5  and  C_21
REMARK    6  A    between atoms: C_7  and  C_10
REMARK    7  A    between atoms: C_7  and  C_11
REMARK    8  A    between atoms: C_8  and  C_12
REMARK    9  A    between atoms: C_9  and  C_13
REMARK   10  A    between atoms: C_14  and  C_15
REMARK                            x       y       z     vdW  Elec       q    Type
REMARK                         _______ _______ _______ _____ _____    ______ ____
ROOT
ATOM      1  O   UNL     1     -16.582  45.799 -14.005  0.00  0.00    +0.000 OA
ATOM      2  N   UNL     1     -18.864  45.930 -14.407  0.00  0.00    +0.000 N 
ATOM      3  C   UNL     1     -17.718  45.352 -13.871  0.00  0.00    +0.000 C 
ATOM      4  H   UNL     1     -19.764  45.474 -14.308  0.00  0.00    +0.000 HD
ENDROOT
BRANCH   3   7
ATOM      5  N   UNL     1     -18.503  40.534 -11.065  0.00  0.00    +0.000 N 
ATOM      6  N   UNL     1     -18.609  41.776 -13.096  0.00  0.00    +0.000 NA
ATOM      7  C   UNL     1     -17.917  44.092 -13.110  0.00  0.00    +0.000 A 
ATOM      8  C   UNL     1     -18.308  41.744 -11.778  0.00  0.00    +0.000 A 
ATOM      9  C   UNL     1     -17.620  44.020 -11.754  0.00  0.00    +0.000 A 
ATOM     10  C   UNL     1     -17.816  42.826 -11.068  0.00  0.00    +0.000 A 
ATOM     11  C   UNL     1     -18.404  42.953 -13.729  0.00  0.00    +0.000 A 
ATOM     12  C   UNL     1     -18.192  40.464  -9.654  0.00  0.00    +0.000 C 
ATOM     13  C   UNL     1     -19.022  39.365 -11.741  0.00  0.00    +0.000 C 
ENDBRANCH   3   7
BRANCH   2  14
ATOM     14  C   UNL     1     -18.831  47.136 -15.189  0.00  0.00    +0.000 C 
BRANCH  14  15
ATOM     15  C   UNL     1     -19.811  47.088 -16.357  0.00  0.00    +0.000 C 
BRANCH  15  18
ATOM     16  O   UNL     1     -18.658  45.234 -17.356  0.00  0.00    +0.000 OA
ATOM     17  N   UNL     1     -20.958  45.300 -17.642  0.00  0.00    +0.000 N 
ATOM     18  C   UNL     1     -19.740  45.793 -17.161  0.00  0.00    +0.000 C 
BRANCH  17  19
ATOM     19  C   UNL     1     -22.229  45.977 -17.398  0.00  0.00    +0.000 C 
ATOM     20  C   UNL     1     -23.316  44.993 -17.015  0.00  0.00    +0.000 C 
ENDBRANCH  17  19
BRANCH  17  21
ATOM     21  C   UNL     1     -21.050  44.072 -18.422  0.00  0.00    +0.000 C 
ATOM     22  C   UNL     1     -20.864  44.338 -19.902  0.00  0.00    +0.000 C 
ENDBRANCH  17  21
ENDBRANCH  15  18
ENDBRANCH  14  15
ENDBRANCH   2  14
TORSDOF 6
ENDMDL
MODEL 4
REMARK VINA RESULT:    -5.677      4.836      8.681
REMARK INTER + INTRA:          -8.124
REMARK INTER:                  -7.368
REMARK INTRA:                  -0.756
REMARK UNBOUND:                -0.455
REMARK  Name = 51088433
REMARK  10 active torsions:
REMARK  status: ('A' for Active; 'I' for Inactive)
REMARK    1  A    between atoms: N_3  and  C_8
REMARK    2  A    between atoms: N_3  and  C_9
REMARK    3  A    between atoms: N_4  and  C_11
REMARK    4  A    between atoms: N_5  and  C_20
REMARK    5  A    between atoms: N_5  and  C_21
REMARK    6  A    between atoms: C_7  and  C_10
REMARK    7  A    between atoms: C_7  and  C_11
REMARK    8  A    between atoms: C_8  and  C_12
REMARK    9  A    between atoms: C_9  and  C_13
REMARK   10  A    between atoms: C_14  and  C_15
REMARK                            x       y       z     vdW  Elec       q    Type
REMARK                         _______ _______ _______ _____ _____    ______ ____
ROOT
ATOM      1  O   UNL     1     -18.781  46.423 -13.902  0.00  0.00    +0.000 OA
ATOM      2  N   UNL     1     -17.956  45.281 -15.745  0.00  0.00    +0.000 N 
ATOM      3  C   UNL     1     -18.418  45.380 -14.438  0.00  0.00    +0.000 C 
ATOM      4  H   UNL     1     -17.616  44.396 -16.106  0.00  0.00    +0.000 HD
ENDROOT
BRANCH   3   7
ATOM      5  N   UNL     1     -18.547  40.551 -11.544  0.00  0.00    +0.000 N 
ATOM      6  N   UNL     1     -19.115  41.802 -13.491  0.00  0.00    +0.000 NA
ATOM      7  C   UNL     1     -18.439  44.117 -13.656  0.00  0.00    +0.000 A 
ATOM      8  C   UNL     1     -18.519  41.763 -12.278  0.00  0.00    +0.000 A 
ATOM      9  C   UNL     1     -17.838  44.038 -12.405  0.00  0.00    +0.000 A 
ATOM     10  C   UNL     1     -17.873  42.842 -11.697  0.00  0.00    +0.000 A 
ATOM     11  C   UNL     1     -19.059  42.980 -14.150  0.00  0.00    +0.000 A 
ATOM     12  C   UNL     1     -17.919  40.474 -10.243  0.00  0.00    +0.000 C 
ATOM     13  C   UNL     1     -19.210  39.386 -12.087  0.00  0.00    +0.000 C 
ENDBRANCH   3   7
BRANCH   2  14
ATOM     14  C   UNL     1     -17.854  46.419 -16.619  0.00  0.00    +0.000 C 
BRANCH  14  15
ATOM     15  C   UNL     1     -16.756  46.242 -17.663  0.00  0.00    +0.000 C 
BRANCH  15  18
ATOM     16  O   UNL     1     -15.154  46.723 -15.940  0.00  0.00    +0.000 OA
ATOM     17  N   UNL     1     -14.368  46.748 -18.121  0.00  0.00    +0.000 N 
ATOM     18  C   UNL     1     -15.362  46.594 -17.149  0.00  0.00    +0.000 C 
BRANCH  17  19
ATOM     19  C   UNL     1     -14.636  46.588 -19.549  0.00  0.00    +0.000 C 
ATOM     20  C   UNL     1     -13.825  45.453 -20.141  0.00  0.00    +0.000 C 
ENDBRANCH  17  19
BRANCH  17  21
ATOM     21  C   UNL     1     -12.989  47.079 -17.783  0.00  0.00    +0.000 C 
ATOM     22  C   UNL     1     -12.647  48.502 -18.175  0.00  0.00    +0.000 C 
ENDBRANCH  17  21
ENDBRANCH  15  18
ENDBRANCH  14  15
ENDBRANCH   2  14
TORSDOF 6
ENDMDL
MODEL 5
REMARK VINA RESULT:    -5.037      3.990      7.479
REMARK INTER + INTRA:          -7.259
REMARK INTER:                  -6.305
REMARK INTRA:                  -0.954
REMARK UNBOUND:                -0.455
REMARK  Name = 51088433
REMARK  10 active torsions:
REMARK  status: ('A' for Active; 'I' for Inactive)
REMARK    1  A    between atoms: N_3  and  C_8
REMARK    2  A    between atoms: N_3  and  C_9
REMARK    3  A    between atoms: N_4  and  C_11
REMARK    4  A    between atoms: N_5  and  C_20
REMARK    5  A    between atoms: N_5  and  C_21
REMARK    6  A    between atoms: C_7  and  C_10
REMARK    7  A    between atoms: C_7  and  C_11
REMARK    8  A    between atoms: C_8  and  C_12
REMARK    9  A    between atoms: C_9  and  C_13
REMARK   10  A    between atoms: C_14  and  C_15
REMARK                            x       y       z     vdW  Elec       q    Type
REMARK                         _______ _______ _______ _____ _____    ______ ____
ROOT
ATOM      1  O   UNL     1     -19.273  44.731 -16.353  0.00  0.00    +0.000 OA
ATOM      2  N   UNL     1     -18.797  46.174 -14.600  0.00  0.00    +0.000 N 
ATOM      3  C   UNL     1     -18.962  44.922 -15.181  0.00  0.00    +0.000 C 
ATOM      4  H   UNL     1     -18.599  46.260 -13.609  0.00  0.00    +0.000 HD
ENDROOT
BRANCH   3   7
ATOM      5  N   UNL     1     -18.291  40.458 -11.816  0.00  0.00    +0.000 N 
ATOM      6  N   UNL     1     -19.508  41.583 -13.527  0.00  0.00    +0.000 NA
ATOM      7  C   UNL     1     -18.764  43.755 -14.283  0.00  0.00    +0.000 A 
ATOM      8  C   UNL     1     -18.466  41.578 -12.666  0.00  0.00    +0.000 A 
ATOM      9  C   UNL     1     -17.706  43.714 -13.383  0.00  0.00    +0.000 A 
ATOM     10  C   UNL     1     -17.546  42.607 -12.556  0.00  0.00    +0.000 A 
ATOM     11  C   UNL     1     -19.630  42.674 -14.316  0.00  0.00    +0.000 A 
ATOM     12  C   UNL     1     -17.187  40.419 -10.881  0.00  0.00    +0.000 C 
ATOM     13  C   UNL     1     -19.218  39.349 -11.871  0.00  0.00    +0.000 C 
ENDBRANCH   3   7
BRANCH   2  14
ATOM     14  C   UNL     1     -18.979  47.398 -15.333  0.00  0.00    +0.000 C 
BRANCH  14  15
ATOM     15  C   UNL     1     -18.491  48.612 -14.550  0.00  0.00    +0.000 C 
BRANCH  15  18
ATOM     16  O   UNL     1     -18.563  48.010 -12.226  0.00  0.00    +0.000 OA
ATOM     17  N   UNL     1     -16.458  48.235 -13.173  0.00  0.00    +0.000 N 
ATOM     18  C   UNL     1     -17.857  48.259 -13.207  0.00  0.00    +0.000 C 
BRANCH  17  19
ATOM     19  C   UNL     1     -15.641  48.532 -14.347  0.00  0.00    +0.000 C 
ATOM     20  C   UNL     1     -15.226  47.265 -15.068  0.00  0.00    +0.000 C 
ENDBRANCH  17  19
BRANCH  17  21
ATOM     21  C   UNL     1     -15.711  47.911 -11.964  0.00  0.00    +0.000 C 
ATOM     22  C   UNL     1     -15.734  46.423 -11.680  0.00  0.00    +0.000 C 
ENDBRANCH  17  21
ENDBRANCH  15  18
ENDBRANCH  14  15
ENDBRANCH   2  14
TORSDOF 6
ENDMDL
