MODEL 1
REMARK VINA RESULT:    -5.685      0.000      0.000
REMARK INTER + INTRA:          -8.207
REMARK INTER:                  -7.679
REMARK INTRA:                  -0.528
REMARK UNBOUND:                -0.528
REMARK  Name = 52499080
REMARK  10 active torsions:
REMARK  status: ('A' for Active; 'I' for Inactive)
REMARK    1  A    between atoms: N_2  and  C_5
REMARK    2  A    between atoms: N_3  and  C_12
REMARK    3  A    between atoms: N_3  and  C_13
REMARK    4  A    between atoms: C_5  and  C_6
REMARK    5  A    between atoms: C_5  and  C_8
REMARK    6  A    between atoms: C_6  and  C_7
REMARK    7  A    between atoms: C_7  and  C_9
REMARK    8  A    between atoms: C_10  and  C_14
REMARK    9  A    between atoms: C_12  and  C_18
REMARK   10  A    between atoms: C_13  and  C_19
REMARK                            x       y       z     vdW  Elec       q    Type
REMARK                         _______ _______ _______ _____ _____    ______ ____
ROOT
ATOM      1  N   UNL     1     -18.364  45.405 -14.847  0.00  0.00    +0.000 N 
ATOM      2  N   UNL     1     -17.647  44.527 -12.751  0.00  0.00    +0.000 NA
ATOM      3  C   UNL     1     -18.394  44.379 -13.869  0.00  0.00    +0.000 A 
ATOM      4  C   UNL     1     -18.483  42.381 -12.013  0.00  0.00    +0.000 A 
ATOM      5  C   UNL     1     -19.197  43.281 -14.125  0.00  0.00    +0.000 A 
ATOM      6  C   UNL     1     -19.237  42.267 -13.175  0.00  0.00    +0.000 A 
ATOM      7  C   UNL     1     -17.711  43.521 -11.850  0.00  0.00    +0.000 A 
ENDROOT
BRANCH   4  10
ATOM      8  O   UNL     1     -17.877  40.278 -11.173  0.00  0.00    +0.000 OA
ATOM      9  N   UNL     1     -19.230  41.599  -9.831  0.00  0.00    +0.000 N 
ATOM     10  C   UNL     1     -18.503  41.315 -10.977  0.00  0.00    +0.000 C 
ATOM     11  H   UNL     1     -19.801  42.438  -9.784  0.00  0.00    +0.000 HD
BRANCH   9  12
ATOM     12  C   UNL     1     -19.324  40.676  -8.725  0.00  0.00    +0.000 C 
ATOM     13  C   UNL     1     -20.500  39.730  -8.945  0.00  0.00    +0.000 C 
BRANCH  12  14
ATOM     14  C   UNL     1     -19.462  41.418  -7.387  0.00  0.00    +0.000 C 
BRANCH  14  15
ATOM     15  C   UNL     1     -20.872  41.971  -7.164  0.00  0.00    +0.000 C 
ATOM     16  C   UNL     1     -21.208  42.055  -5.684  0.00  0.00    +0.000 C 
ENDBRANCH  14  15
ENDBRANCH  12  14
ENDBRANCH   9  12
ENDBRANCH   4  10
BRANCH   1  17
ATOM     17  C   UNL     1     -17.554  46.584 -14.640  0.00  0.00    +0.000 C 
ATOM     18  C   UNL     1     -16.216  46.428 -15.336  0.00  0.00    +0.000 C 
ENDBRANCH   1  17
BRANCH   1  19
ATOM     19  C   UNL     1     -19.151  45.281 -16.054  0.00  0.00    +0.000 C 
ATOM     20  C   UNL     1     -19.720  46.629 -16.447  0.00  0.00    +0.000 C 
ENDBRANCH   1  19
TORSDOF 6
ENDMDL
MODEL 2
REMARK VINA RESULT:    -5.387      2.991      7.771
REMARK INTER + INTRA:          -7.805
REMARK INTER:                  -7.168
REMARK INTRA:                  -0.637
REMARK UNBOUND:                -0.528
REMARK  Name = 52499080
REMARK  10 active torsions:
REMARK  status: ('A' for Active; 'I' for Inactive)
REMARK    1  A    between atoms: N_2  and  C_5
REMARK    2  A    between atoms: N_3  and  C_12
REMARK    3  A    between atoms: N_3  and  C_13
REMARK    4  A    between atoms: C_5  and  C_6
REMARK    5  A    between atoms: C_5  and  C_8
REMARK    6  A    between atoms: C_6  and  C_7
REMARK    7  A    between atoms: C_7  and  C_9
REMARK    8  A    between atoms: C_10  and  C_14
REMARK    9  A    between atoms: C_12  and  C_18
REMARK   10  A    between atoms: C_13  and  C_19
REMARK                            x       y       z     vdW  Elec       q    Type
REMARK                         _______ _______ _______ _____ _____    ______ ____
ROOT
ATOM      1  N   UNL     1     -18.503  42.025 -11.903  0.00  0.00    +0.000 N 
ATOM      2  N   UNL     1     -19.772  42.346 -13.894  0.00  0.00    +0.000 NA
ATOM      3  C   UNL     1     -18.782  42.769 -13.076  0.00  0.00    +0.000 A 
ATOM      4  C   UNL     1     -19.286  44.235 -15.321  0.00  0.00    +0.000 A 
ATOM      5  C   UNL     1     -18.013  43.898 -13.309  0.00  0.00    +0.000 A 
ATOM      6  C   UNL     1     -18.276  44.640 -14.455  0.00  0.00    +0.000 A 
ATOM      7  C   UNL     1     -19.998  43.091 -14.999  0.00  0.00    +0.000 A 
ENDROOT
BRANCH   4  10
ATOM      8  O   UNL     1     -18.912  44.820 -17.561  0.00  0.00    +0.000 OA
ATOM      9  N   UNL     1     -20.665  45.878 -16.473  0.00  0.00    +0.000 N 
ATOM     10  C   UNL     1     -19.591  45.005 -16.555  0.00  0.00    +0.000 C 
ATOM     11  H   UNL     1     -21.117  46.048 -15.579  0.00  0.00    +0.000 HD
BRANCH   9  12
ATOM     12  C   UNL     1     -21.102  46.677 -17.593  0.00  0.00    +0.000 C 
ATOM     13  C   UNL     1     -21.404  48.096 -17.125  0.00  0.00    +0.000 C 
BRANCH  12  14
ATOM     14  C   UNL     1     -22.327  46.056 -18.280  0.00  0.00    +0.000 C 
BRANCH  14  15
ATOM     15  C   UNL     1     -23.210  45.267 -17.308  0.00  0.00    +0.000 C 
ATOM     16  C   UNL     1     -24.664  45.703 -17.400  0.00  0.00    +0.000 C 
ENDBRANCH  14  15
ENDBRANCH  12  14
ENDBRANCH   9  12
ENDBRANCH   4  10
BRANCH   1  17
ATOM     17  C   UNL     1     -19.272  40.841 -11.593  0.00  0.00    +0.000 C 
ATOM     18  C   UNL     1     -18.436  39.597 -11.826  0.00  0.00    +0.000 C 
ENDBRANCH   1  17
BRANCH   1  19
ATOM     19  C   UNL     1     -17.451  42.449 -11.005  0.00  0.00    +0.000 C 
ATOM     20  C   UNL     1     -17.946  42.424  -9.572  0.00  0.00    +0.000 C 
ENDBRANCH   1  19
TORSDOF 6
ENDMDL
MODEL 3
REMARK VINA RESULT:    -5.365      2.861      7.997
REMARK INTER + INTRA:          -7.775
REMARK INTER:                  -7.047
REMARK INTRA:                  -0.728
REMARK UNBOUND:                -0.528
REMARK  Name = 52499080
REMARK  10 active torsions:
REMARK  status: ('A' for Active; 'I' for Inactive)
REMARK    1  A    between atoms: N_2  and  C_5
REMARK    2  A    between atoms: N_3  and  C_12
REMARK    3  A    between atoms: N_3  and  C_13
REMARK    4  A    between atoms: C_5  and  C_6
REMARK    5  A    between atoms: C_5  and  C_8
REMARK    6  A    between atoms: C_6  and  C_7
REMARK    7  A    between atoms: C_7  and  C_9
REMARK    8  A    between atoms: C_10  and  C_14
REMARK    9  A    between atoms: C_12  and  C_18
REMARK   10  A    between atoms: C_13  and  C_19
REMARK                            x       y       z     vdW  Elec       q    Type
REMARK                         _______ _______ _______ _____ _____    ______ ____
ROOT
ATOM      1  N   UNL     1     -18.317  41.167 -11.649  0.00  0.00    +0.000 N 
ATOM      2  N   UNL     1     -19.739  41.854 -13.433  0.00  0.00    +0.000 NA
ATOM      3  C   UNL     1     -18.617  42.060 -12.709  0.00  0.00    +0.000 A 
ATOM      4  C   UNL     1     -19.153  43.803 -14.738  0.00  0.00    +0.000 A 
ATOM      5  C   UNL     1     -17.728  43.098 -12.934  0.00  0.00    +0.000 A 
ATOM      6  C   UNL     1     -18.008  43.982 -13.970  0.00  0.00    +0.000 A 
ATOM      7  C   UNL     1     -19.978  42.732 -14.432  0.00  0.00    +0.000 A 
ENDROOT
BRANCH   4  10
ATOM      8  O   UNL     1     -18.653  45.565 -16.202  0.00  0.00    +0.000 OA
ATOM      9  N   UNL     1     -20.725  44.553 -16.439  0.00  0.00    +0.000 N 
ATOM     10  C   UNL     1     -19.481  44.729 -15.853  0.00  0.00    +0.000 C 
ATOM     11  H   UNL     1     -21.394  43.906 -16.032  0.00  0.00    +0.000 HD
BRANCH   9  12
ATOM     12  C   UNL     1     -21.179  45.356 -17.549  0.00  0.00    +0.000 C 
ATOM     13  C   UNL     1     -22.632  45.765 -17.327  0.00  0.00    +0.000 C 
BRANCH  12  14
ATOM     14  C   UNL     1     -21.019  44.612 -18.883  0.00  0.00    +0.000 C 
BRANCH  14  15
ATOM     15  C   UNL     1     -19.806  45.095 -19.684  0.00  0.00    +0.000 C 
ATOM     16  C   UNL     1     -18.615  44.168 -19.501  0.00  0.00    +0.000 C 
ENDBRANCH  14  15
ENDBRANCH  12  14
ENDBRANCH   9  12
ENDBRANCH   4  10
BRANCH   1  17
ATOM     17  C   UNL     1     -19.206  40.067 -11.352  0.00  0.00    +0.000 C 
ATOM     18  C   UNL     1     -19.634  40.116  -9.898  0.00  0.00    +0.000 C 
ENDBRANCH   1  17
BRANCH   1  19
ATOM     19  C   UNL     1     -17.125  41.358 -10.852  0.00  0.00    +0.000 C 
ATOM     20  C   UNL     1     -16.064  40.351 -11.251  0.00  0.00    +0.000 C 
ENDBRANCH   1  19
TORSDOF 6
ENDMDL
MODEL 4
REMARK VINA RESULT:    -5.280      2.145      3.477
REMARK INTER + INTRA:          -7.659
REMARK INTER:                  -7.103
REMARK INTRA:                  -0.556
REMARK UNBOUND:                -0.528
REMARK  Name = 52499080
REMARK  10 active torsions:
REMARK  status: ('A' for Active; 'I' for Inactive)
REMARK    1  A    between atoms: N_2  and  C_5
REMARK    2  A    between atoms: N_3  and  C_12
REMARK    3  A    between atoms: N_3  and  C_13
REMARK    4  A    between atoms: C_5  and  C_6
REMARK    5  A    between atoms: C_5  and  C_8
REMARK    6  A    between atoms: C_6  and  C_7
REMARK    7  A    between atoms: C_7  and  C_9
REMARK    8  A    between atoms: C_10  and  C_14
REMARK    9  A    between atoms: C_12  and  C_18
REMARK   10  A    between atoms: C_13  and  C_19
REMARK                            x       y       z     vdW  Elec       q    Type
REMARK                         _______ _______ _______ _____ _____    ______ ____
ROOT
ATOM      1  N   UNL     1     -20.606  44.849 -17.249  0.00  0.00    +0.000 N 
ATOM      2  N   UNL     1     -20.447  43.224 -15.514  0.00  0.00    +0.000 NA
ATOM      3  C   UNL     1     -19.994  44.373 -16.063  0.00  0.00    +0.000 A 
ATOM      4  C   UNL     1     -18.784  43.496 -13.779  0.00  0.00    +0.000 A 
ATOM      5  C   UNL     1     -18.957  45.128 -15.538  0.00  0.00    +0.000 A 
ATOM      6  C   UNL     1     -18.346  44.674 -14.375  0.00  0.00    +0.000 A 
ATOM      7  C   UNL     1     -19.829  42.815 -14.383  0.00  0.00    +0.000 A 
ENDROOT
BRANCH   4  10
ATOM      8  O   UNL     1     -17.344  43.689 -11.939  0.00  0.00    +0.000 OA
ATOM      9  N   UNL     1     -18.559  41.723 -12.126  0.00  0.00    +0.000 N 
ATOM     10  C   UNL     1     -18.153  42.984 -12.535  0.00  0.00    +0.000 C 
ATOM     11  H   UNL     1     -19.158  41.161 -12.724  0.00  0.00    +0.000 HD
BRANCH   9  12
ATOM     12  C   UNL     1     -18.057  41.100 -10.925  0.00  0.00    +0.000 C 
ATOM     13  C   UNL     1     -17.406  39.765 -11.273  0.00  0.00    +0.000 C 
BRANCH  12  14
ATOM     14  C   UNL     1     -19.171  40.910  -9.884  0.00  0.00    +0.000 C 
BRANCH  14  15
ATOM     15  C   UNL     1     -18.828  41.545  -8.534  0.00  0.00    +0.000 C 
ATOM     16  C   UNL     1     -19.900  41.255  -7.496  0.00  0.00    +0.000 C 
ENDBRANCH  14  15
ENDBRANCH  12  14
ENDBRANCH   9  12
ENDBRANCH   4  10
BRANCH   1  17
ATOM     17  C   UNL     1     -21.688  44.108 -17.856  0.00  0.00    +0.000 C 
ATOM     18  C   UNL     1     -23.022  44.720 -17.475  0.00  0.00    +0.000 C 
ENDBRANCH   1  17
BRANCH   1  19
ATOM     19  C   UNL     1     -20.146  46.075 -17.864  0.00  0.00    +0.000 C 
ATOM     20  C   UNL     1     -19.732  45.815 -19.299  0.00  0.00    +0.000 C 
ENDBRANCH   1  19
TORSDOF 6
ENDMDL
MODEL 5
REMARK VINA RESULT:    -5.279      1.391      2.446
REMARK INTER + INTRA:          -7.658
REMARK INTER:                  -7.063
REMARK INTRA:                  -0.595
REMARK UNBOUND:                -0.528
REMARK  Name = 52499080
REMARK  10 active torsions:
REMARK  status: ('A' for Active; 'I' for Inactive)
REMARK    1  A    between atoms: N_2  and  C_5
REMARK    2  A    between atoms: N_3  and  C_12
REMARK    3  A    between atoms: N_3  and  C_13
REMARK    4  A    between atoms: C_5  and  C_6
REMARK    5  A    between atoms: C_5  and  C_8
REMARK    6  A    between atoms: C_6  and  C_7
REMARK    7  A    between atoms: C_7  and  C_9
REMARK    8  A    between atoms: C_10  and  C_14
REMARK    9  A    between atoms: C_12  and  C_18
REMARK   10  A    between atoms: C_13  and  C_19
REMARK                            x       y       z     vdW  Elec       q    Type
REMARK                         _______ _______ _______ _____ _____    ______ ____
ROOT
ATOM      1  N   UNL     1     -18.608  46.644 -15.080  0.00  0.00    +0.000 N 
ATOM      2  N   UNL     1     -18.791  44.325 -14.564  0.00  0.00    +0.000 NA
ATOM      3  C   UNL     1     -18.446  45.570 -14.169  0.00  0.00    +0.000 A 
ATOM      4  C   UNL     1     -18.114  43.536 -12.381  0.00  0.00    +0.000 A 
ATOM      5  C   UNL     1     -17.935  45.873 -12.917  0.00  0.00    +0.000 A 
ATOM      6  C   UNL     1     -17.769  44.831 -12.012  0.00  0.00    +0.000 A 
ATOM      7  C   UNL     1     -18.617  43.337 -13.657  0.00  0.00    +0.000 A 
ENDROOT
BRANCH   4  10
ATOM      8  O   UNL     1     -16.969  42.370 -10.700  0.00  0.00    +0.000 OA
ATOM      9  N   UNL     1     -18.960  41.451 -11.452  0.00  0.00    +0.000 N 
ATOM     10  C   UNL     1     -17.950  42.400 -11.437  0.00  0.00    +0.000 C 
ATOM     11  H   UNL     1     -19.689  41.492 -12.158  0.00  0.00    +0.000 HD
BRANCH   9  12
ATOM     12  C   UNL     1     -18.958  40.303 -10.576  0.00  0.00    +0.000 C 
ATOM     13  C   UNL     1     -19.259  39.043 -11.381  0.00  0.00    +0.000 C 
BRANCH  12  14
ATOM     14  C   UNL     1     -19.963  40.472  -9.428  0.00  0.00    +0.000 C 
BRANCH  14  15
ATOM     15  C   UNL     1     -19.381  41.255  -8.247  0.00  0.00    +0.000 C 
ATOM     16  C   UNL     1     -20.456  41.606  -7.231  0.00  0.00    +0.000 C 
ENDBRANCH  14  15
ENDBRANCH  12  14
ENDBRANCH   9  12
ENDBRANCH   4  10
BRANCH   1  17
ATOM     17  C   UNL     1     -19.127  46.398 -16.407  0.00  0.00    +0.000 C 
ATOM     18  C   UNL     1     -20.318  47.298 -16.678  0.00  0.00    +0.000 C 
ENDBRANCH   1  17
BRANCH   1  19
ATOM     19  C   UNL     1     -18.248  47.989 -14.691  0.00  0.00    +0.000 C 
ATOM     20  C   UNL     1     -17.043  48.457 -15.482  0.00  0.00    +0.000 C 
ENDBRANCH   1  19
TORSDOF 6
ENDMDL
