MODEL 1
REMARK VINA RESULT:    -4.958      0.000      0.000
REMARK INTER + INTRA:          -5.976
REMARK INTER:                  -5.828
REMARK INTRA:                  -0.148
REMARK UNBOUND:                -0.148
REMARK  Name = 53015797
REMARK  6 active torsions:
REMARK  status: ('A' for Active; 'I' for Inactive)
REMARK    1  A    between atoms: N_2  and  C_5
REMARK    2  A    between atoms: N_2  and  C_10
REMARK    3  A    between atoms: N_2  and  C_11
REMARK    4  A    between atoms: N_3  and  C_9
REMARK    5  A    between atoms: C_6  and  C_7
REMARK    6  A    between atoms: C_9  and  C_14
REMARK                            x       y       z     vdW  Elec       q    Type
REMARK                         _______ _______ _______ _____ _____    ______ ____
ROOT
ATOM      1  N   UNL     1     -18.003  42.186  -9.077  0.00  0.00    +0.000 NA
ATOM      2  C   UNL     1     -17.971  42.267 -10.426  0.00  0.00    +0.000 A 
ATOM      3  C   UNL     1     -18.751  41.492 -11.268  0.00  0.00    +0.000 A 
ATOM      4  C   UNL     1     -19.619  40.573 -10.689  0.00  0.00    +0.000 A 
ATOM      5  C   UNL     1     -19.680  40.460  -9.304  0.00  0.00    +0.000 A 
ATOM      6  C   UNL     1     -18.858  41.282  -8.550  0.00  0.00    +0.000 A 
ENDROOT
BRANCH   3   9
ATOM      7  O   UNL     1     -17.934  40.865 -13.376  0.00  0.00    +0.000 OA
ATOM      8  N   UNL     1     -19.537  42.541 -13.319  0.00  0.00    +0.000 N 
ATOM      9  C   UNL     1     -18.693  41.600 -12.719  0.00  0.00    +0.000 C 
ATOM     10  H   UNL     1     -20.136  43.109 -12.728  0.00  0.00    +0.000 HD
BRANCH   8  11
ATOM     11  C   UNL     1     -19.610  42.751 -14.748  0.00  0.00    +0.000 C 
ATOM     12  C   UNL     1     -19.200  44.160 -15.122  0.00  0.00    +0.000 C 
ENDBRANCH   8  11
ENDBRANCH   3   9
BRANCH   2  13
ATOM     13  N   UNL     1     -17.081  43.205 -11.010  0.00  0.00    +0.000 N 
ATOM     14  C   UNL     1     -17.528  44.550 -11.294  0.00  0.00    +0.000 C 
ATOM     15  C   UNL     1     -15.726  42.819 -11.330  0.00  0.00    +0.000 C 
ENDBRANCH   2  13
TORSDOF 3
ENDMDL
MODEL 2
REMARK VINA RESULT:    -4.896      2.029      4.820
REMARK INTER + INTRA:          -5.903
REMARK INTER:                  -6.010
REMARK INTRA:                   0.107
REMARK UNBOUND:                -0.148
REMARK  Name = 53015797
REMARK  6 active torsions:
REMARK  status: ('A' for Active; 'I' for Inactive)
REMARK    1  A    between atoms: N_2  and  C_5
REMARK    2  A    between atoms: N_2  and  C_10
REMARK    3  A    between atoms: N_2  and  C_11
REMARK    4  A    between atoms: N_3  and  C_9
REMARK    5  A    between atoms: C_6  and  C_7
REMARK    6  A    between atoms: C_9  and  C_14
REMARK                            x       y       z     vdW  Elec       q    Type
REMARK                         _______ _______ _______ _____ _____    ______ ____
ROOT
ATOM      1  N   UNL     1     -17.639  42.775 -13.289  0.00  0.00    +0.000 NA
ATOM      2  C   UNL     1     -17.858  41.935 -12.253  0.00  0.00    +0.000 A 
ATOM      3  C   UNL     1     -17.816  42.318 -10.921  0.00  0.00    +0.000 A 
ATOM      4  C   UNL     1     -17.531  43.648 -10.636  0.00  0.00    +0.000 A 
ATOM      5  C   UNL     1     -17.300  44.543 -11.676  0.00  0.00    +0.000 A 
ATOM      6  C   UNL     1     -17.365  44.060 -12.972  0.00  0.00    +0.000 A 
ENDROOT
BRANCH   3   9
ATOM      7  O   UNL     1     -17.281  40.433  -9.632  0.00  0.00    +0.000 OA
ATOM      8  N   UNL     1     -19.160  41.642  -9.009  0.00  0.00    +0.000 N 
ATOM      9  C   UNL     1     -18.053  41.389  -9.826  0.00  0.00    +0.000 C 
ATOM     10  H   UNL     1     -19.751  42.442  -9.217  0.00  0.00    +0.000 HD
BRANCH   8  11
ATOM     11  C   UNL     1     -19.514  40.825  -7.869  0.00  0.00    +0.000 C 
ATOM     12  C   UNL     1     -20.214  41.639  -6.801  0.00  0.00    +0.000 C 
ENDBRANCH   8  11
ENDBRANCH   3   9
BRANCH   2  13
ATOM     13  N   UNL     1     -18.145  40.579 -12.552  0.00  0.00    +0.000 N 
ATOM     14  C   UNL     1     -17.096  39.700 -13.017  0.00  0.00    +0.000 C 
ATOM     15  C   UNL     1     -19.489  40.070 -12.399  0.00  0.00    +0.000 C 
ENDBRANCH   2  13
TORSDOF 3
ENDMDL
MODEL 3
REMARK VINA RESULT:    -4.600      3.783      7.137
REMARK INTER + INTRA:          -5.555
REMARK INTER:                  -5.404
REMARK INTRA:                  -0.151
REMARK UNBOUND:                -0.148
REMARK  Name = 53015797
REMARK  6 active torsions:
REMARK  status: ('A' for Active; 'I' for Inactive)
REMARK    1  A    between atoms: N_2  and  C_5
REMARK    2  A    between atoms: N_2  and  C_10
REMARK    3  A    between atoms: N_2  and  C_11
REMARK    4  A    between atoms: N_3  and  C_9
REMARK    5  A    between atoms: C_6  and  C_7
REMARK    6  A    between atoms: C_9  and  C_14
REMARK                            x       y       z     vdW  Elec       q    Type
REMARK                         _______ _______ _______ _____ _____    ______ ____
ROOT
ATOM      1  N   UNL     1     -21.806  46.292 -17.968  0.00  0.00    +0.000 NA
ATOM      2  C   UNL     1     -20.964  45.366 -17.457  0.00  0.00    +0.000 A 
ATOM      3  C   UNL     1     -21.377  44.248 -16.749  0.00  0.00    +0.000 A 
ATOM      4  C   UNL     1     -22.741  44.071 -16.552  0.00  0.00    +0.000 A 
ATOM      5  C   UNL     1     -23.639  45.002 -17.063  0.00  0.00    +0.000 A 
ATOM      6  C   UNL     1     -23.124  46.085 -17.757  0.00  0.00    +0.000 A 
ENDROOT
BRANCH   3   9
ATOM      7  O   UNL     1     -20.128  42.266 -16.871  0.00  0.00    +0.000 OA
ATOM      8  N   UNL     1     -19.921  43.529 -14.937  0.00  0.00    +0.000 N 
ATOM      9  C   UNL     1     -20.445  43.269 -16.207  0.00  0.00    +0.000 C 
ATOM     10  H   UNL     1     -20.216  44.368 -14.446  0.00  0.00    +0.000 HD
BRANCH   8  11
ATOM     11  C   UNL     1     -18.969  42.665 -14.274  0.00  0.00    +0.000 C 
ATOM     12  C   UNL     1     -19.569  42.023 -13.041  0.00  0.00    +0.000 C 
ENDBRANCH   8  11
ENDBRANCH   3   9
BRANCH   2  13
ATOM     13  N   UNL     1     -19.573  45.555 -17.660  0.00  0.00    +0.000 N 
ATOM     14  C   UNL     1     -18.806  46.351 -16.729  0.00  0.00    +0.000 C 
ATOM     15  C   UNL     1     -18.917  44.959 -18.801  0.00  0.00    +0.000 C 
ENDBRANCH   2  13
TORSDOF 3
ENDMDL
MODEL 4
REMARK VINA RESULT:    -4.501      2.016      4.776
REMARK INTER + INTRA:          -5.438
REMARK INTER:                  -5.317
REMARK INTRA:                  -0.121
REMARK UNBOUND:                -0.148
REMARK  Name = 53015797
REMARK  6 active torsions:
REMARK  status: ('A' for Active; 'I' for Inactive)
REMARK    1  A    between atoms: N_2  and  C_5
REMARK    2  A    between atoms: N_2  and  C_10
REMARK    3  A    between atoms: N_2  and  C_11
REMARK    4  A    between atoms: N_3  and  C_9
REMARK    5  A    between atoms: C_6  and  C_7
REMARK    6  A    between atoms: C_9  and  C_14
REMARK                            x       y       z     vdW  Elec       q    Type
REMARK                         _______ _______ _______ _____ _____    ______ ____
ROOT
ATOM      1  N   UNL     1     -19.295  41.606 -13.790  0.00  0.00    +0.000 NA
ATOM      2  C   UNL     1     -18.297  41.677 -12.880  0.00  0.00    +0.000 A 
ATOM      3  C   UNL     1     -17.566  42.824 -12.618  0.00  0.00    +0.000 A 
ATOM      4  C   UNL     1     -17.877  43.973 -13.336  0.00  0.00    +0.000 A 
ATOM      5  C   UNL     1     -18.898  43.940 -14.281  0.00  0.00    +0.000 A 
ATOM      6  C   UNL     1     -19.569  42.743 -14.469  0.00  0.00    +0.000 A 
ENDROOT
BRANCH   3   9
ATOM      7  O   UNL     1     -16.756  42.921 -10.419  0.00  0.00    +0.000 OA
ATOM      8  N   UNL     1     -15.184  42.826 -12.121  0.00  0.00    +0.000 N 
ATOM      9  C   UNL     1     -16.494  42.869 -11.633  0.00  0.00    +0.000 C 
ATOM     10  H   UNL     1     -15.035  42.780 -13.125  0.00  0.00    +0.000 HD
BRANCH   8  11
ATOM     11  C   UNL     1     -14.015  42.839 -11.270  0.00  0.00    +0.000 C 
ATOM     12  C   UNL     1     -13.392  44.218 -11.206  0.00  0.00    +0.000 C 
ENDBRANCH   8  11
ENDBRANCH   3   9
BRANCH   2  13
ATOM     13  N   UNL     1     -17.983  40.500 -12.153  0.00  0.00    +0.000 N 
ATOM     14  C   UNL     1     -16.862  39.679 -12.551  0.00  0.00    +0.000 C 
ATOM     15  C   UNL     1     -18.785  40.113 -11.016  0.00  0.00    +0.000 C 
ENDBRANCH   2  13
TORSDOF 3
ENDMDL
MODEL 5
REMARK VINA RESULT:    -4.438      1.509      4.250
REMARK INTER + INTRA:          -5.364
REMARK INTER:                  -5.249
REMARK INTRA:                  -0.115
REMARK UNBOUND:                -0.148
REMARK  Name = 53015797
REMARK  6 active torsions:
REMARK  status: ('A' for Active; 'I' for Inactive)
REMARK    1  A    between atoms: N_2  and  C_5
REMARK    2  A    between atoms: N_2  and  C_10
REMARK    3  A    between atoms: N_2  and  C_11
REMARK    4  A    between atoms: N_3  and  C_9
REMARK    5  A    between atoms: C_6  and  C_7
REMARK    6  A    between atoms: C_9  and  C_14
REMARK                            x       y       z     vdW  Elec       q    Type
REMARK                         _______ _______ _______ _____ _____    ______ ____
ROOT
ATOM      1  N   UNL     1     -17.946  44.954 -14.049  0.00  0.00    +0.000 NA
ATOM      2  C   UNL     1     -17.834  43.771 -13.404  0.00  0.00    +0.000 A 
ATOM      3  C   UNL     1     -18.545  42.631 -13.745  0.00  0.00    +0.000 A 
ATOM      4  C   UNL     1     -19.427  42.711 -14.816  0.00  0.00    +0.000 A 
ATOM      5  C   UNL     1     -19.569  43.911 -15.506  0.00  0.00    +0.000 A 
ATOM      6  C   UNL     1     -18.813  44.993 -15.086  0.00  0.00    +0.000 A 
ENDROOT
BRANCH   3   9
ATOM      7  O   UNL     1     -17.432  40.628 -13.244  0.00  0.00    +0.000 OA
ATOM      8  N   UNL     1     -19.395  41.065 -12.089  0.00  0.00    +0.000 N 
ATOM      9  C   UNL     1     -18.406  41.372 -13.028  0.00  0.00    +0.000 C 
ATOM     10  H   UNL     1     -20.164  41.716 -11.955  0.00  0.00    +0.000 HD
BRANCH   8  11
ATOM     11  C   UNL     1     -19.385  39.865 -11.282  0.00  0.00    +0.000 C 
ATOM     12  C   UNL     1     -19.344  40.192  -9.803  0.00  0.00    +0.000 C 
ENDBRANCH   8  11
ENDBRANCH   3   9
BRANCH   2  13
ATOM     13  N   UNL     1     -16.935  43.699 -12.310  0.00  0.00    +0.000 N 
ATOM     14  C   UNL     1     -17.428  43.807 -10.956  0.00  0.00    +0.000 C 
ATOM     15  C   UNL     1     -15.520  43.524 -12.543  0.00  0.00    +0.000 C 
ENDBRANCH   2  13
TORSDOF 3
ENDMDL
