MODEL 1
REMARK VINA RESULT:    -4.221      0.000      0.000
REMARK INTER + INTRA:          -4.447
REMARK INTER:                  -4.714
REMARK INTRA:                   0.267
REMARK UNBOUND:                 0.267
REMARK  Name = 53015798
REMARK  6 active torsions:
REMARK  status: ('A' for Active; 'I' for Inactive)
REMARK    1  A    between atoms: N_2  and  C_6
REMARK    2  A    between atoms: N_2  and  C_9
REMARK    3  A    between atoms: N_2  and  C_10
REMARK    4  A    between atoms: N_3  and  C_12
REMARK    5  A    between atoms: N_3  and  C_13
REMARK    6  A    between atoms: C_5  and  C_7
REMARK                            x       y       z     vdW  Elec       q    Type
REMARK                         _______ _______ _______ _____ _____    ______ ____
ROOT
ATOM      1  N   UNL     1     -19.477  41.929 -13.975  0.00  0.00    +0.000 NA
ATOM      2  C   UNL     1     -17.922  43.017 -12.476  0.00  0.00    +0.000 A 
ATOM      3  C   UNL     1     -18.539  41.893 -13.000  0.00  0.00    +0.000 A 
ATOM      4  C   UNL     1     -18.292  44.258 -12.982  0.00  0.00    +0.000 A 
ATOM      5  C   UNL     1     -19.254  44.336 -13.984  0.00  0.00    +0.000 A 
ATOM      6  C   UNL     1     -19.811  43.152 -14.442  0.00  0.00    +0.000 A 
ENDROOT
BRANCH   2   9
ATOM      7  O   UNL     1     -17.303  42.645 -10.295  0.00  0.00    +0.000 OA
ATOM      8  N   UNL     1     -15.570  43.203 -11.761  0.00  0.00    +0.000 N 
ATOM      9  C   UNL     1     -16.902  42.945 -11.419  0.00  0.00    +0.000 C 
ATOM     10  C   UNL     1     -14.492  43.141 -10.784  0.00  0.00    +0.000 C 
ATOM     11  C   UNL     1     -15.171  43.555 -13.122  0.00  0.00    +0.000 C 
ENDBRANCH   2   9
BRANCH   3  12
ATOM     12  N   UNL     1     -18.166  40.624 -12.492  0.00  0.00    +0.000 N 
ATOM     13  C   UNL     1     -16.955  39.983 -12.953  0.00  0.00    +0.000 C 
ATOM     14  C   UNL     1     -18.990  39.966 -11.502  0.00  0.00    +0.000 C 
ENDBRANCH   3  12
TORSDOF 2
ENDMDL
MODEL 2
REMARK VINA RESULT:    -4.168      1.502      3.216
REMARK INTER + INTRA:          -4.388
REMARK INTER:                  -4.598
REMARK INTRA:                   0.210
REMARK UNBOUND:                 0.267
REMARK  Name = 53015798
REMARK  6 active torsions:
REMARK  status: ('A' for Active; 'I' for Inactive)
REMARK    1  A    between atoms: N_2  and  C_6
REMARK    2  A    between atoms: N_2  and  C_9
REMARK    3  A    between atoms: N_2  and  C_10
REMARK    4  A    between atoms: N_3  and  C_12
REMARK    5  A    between atoms: N_3  and  C_13
REMARK    6  A    between atoms: C_5  and  C_7
REMARK                            x       y       z     vdW  Elec       q    Type
REMARK                         _______ _______ _______ _____ _____    ______ ____
ROOT
ATOM      1  N   UNL     1     -18.169  44.655 -14.531  0.00  0.00    +0.000 NA
ATOM      2  C   UNL     1     -18.430  42.900 -12.889  0.00  0.00    +0.000 A 
ATOM      3  C   UNL     1     -17.767  43.994 -13.422  0.00  0.00    +0.000 A 
ATOM      4  C   UNL     1     -19.577  42.455 -13.536  0.00  0.00    +0.000 A 
ATOM      5  C   UNL     1     -20.022  43.110 -14.680  0.00  0.00    +0.000 A 
ATOM      6  C   UNL     1     -19.288  44.195 -15.132  0.00  0.00    +0.000 A 
ENDROOT
BRANCH   2   9
ATOM      7  O   UNL     1     -18.158  42.785 -10.610  0.00  0.00    +0.000 OA
ATOM      8  N   UNL     1     -17.376  40.945 -11.820  0.00  0.00    +0.000 N 
ATOM      9  C   UNL     1     -17.970  42.203 -11.678  0.00  0.00    +0.000 C 
ATOM     10  C   UNL     1     -16.904  40.176 -10.676  0.00  0.00    +0.000 C 
ATOM     11  C   UNL     1     -17.186  40.318 -13.127  0.00  0.00    +0.000 C 
ENDBRANCH   2   9
BRANCH   3  12
ATOM     12  N   UNL     1     -16.598  44.455 -12.766  0.00  0.00    +0.000 N 
ATOM     13  C   UNL     1     -16.659  45.604 -11.893  0.00  0.00    +0.000 C 
ATOM     14  C   UNL     1     -15.339  43.771 -12.962  0.00  0.00    +0.000 C 
ENDBRANCH   3  12
TORSDOF 2
ENDMDL
MODEL 3
REMARK VINA RESULT:    -4.096     14.500     16.536
REMARK INTER + INTRA:          -4.308
REMARK INTER:                  -4.303
REMARK INTRA:                  -0.005
REMARK UNBOUND:                 0.267
REMARK  Name = 53015798
REMARK  6 active torsions:
REMARK  status: ('A' for Active; 'I' for Inactive)
REMARK    1  A    between atoms: N_2  and  C_6
REMARK    2  A    between atoms: N_2  and  C_9
REMARK    3  A    between atoms: N_2  and  C_10
REMARK    4  A    between atoms: N_3  and  C_12
REMARK    5  A    between atoms: N_3  and  C_13
REMARK    6  A    between atoms: C_5  and  C_7
REMARK                            x       y       z     vdW  Elec       q    Type
REMARK                         _______ _______ _______ _____ _____    ______ ____
ROOT
ATOM      1  N   UNL     1     -36.029  42.959 -13.370  0.00  0.00    +0.000 NA
ATOM      2  C   UNL     1     -33.616  43.016 -13.525  0.00  0.00    +0.000 A 
ATOM      3  C   UNL     1     -34.884  43.327 -13.989  0.00  0.00    +0.000 A 
ATOM      4  C   UNL     1     -33.517  42.277 -12.350  0.00  0.00    +0.000 A 
ATOM      5  C   UNL     1     -34.672  41.880 -11.685  0.00  0.00    +0.000 A 
ATOM      6  C   UNL     1     -35.892  42.244 -12.232  0.00  0.00    +0.000 A 
ENDROOT
BRANCH   2   9
ATOM      7  O   UNL     1     -31.991  42.691 -15.116  0.00  0.00    +0.000 OA
ATOM      8  N   UNL     1     -31.778  44.630 -13.829  0.00  0.00    +0.000 N 
ATOM      9  C   UNL     1     -32.389  43.433 -14.219  0.00  0.00    +0.000 C 
ATOM     10  C   UNL     1     -30.569  45.129 -14.469  0.00  0.00    +0.000 C 
ATOM     11  C   UNL     1     -32.313  45.460 -12.750  0.00  0.00    +0.000 C 
ENDBRANCH   2   9
BRANCH   3  12
ATOM     12  N   UNL     1     -34.994  44.082 -15.184  0.00  0.00    +0.000 N 
ATOM     13  C   UNL     1     -35.067  43.413 -16.463  0.00  0.00    +0.000 C 
ATOM     14  C   UNL     1     -35.041  45.526 -15.128  0.00  0.00    +0.000 C 
ENDBRANCH   3  12
TORSDOF 2
ENDMDL
MODEL 4
REMARK VINA RESULT:    -3.975      4.975      6.952
REMARK INTER + INTRA:          -4.172
REMARK INTER:                  -4.531
REMARK INTRA:                   0.358
REMARK UNBOUND:                 0.267
REMARK  Name = 53015798
REMARK  6 active torsions:
REMARK  status: ('A' for Active; 'I' for Inactive)
REMARK    1  A    between atoms: N_2  and  C_6
REMARK    2  A    between atoms: N_2  and  C_9
REMARK    3  A    between atoms: N_2  and  C_10
REMARK    4  A    between atoms: N_3  and  C_12
REMARK    5  A    between atoms: N_3  and  C_13
REMARK    6  A    between atoms: C_5  and  C_7
REMARK                            x       y       z     vdW  Elec       q    Type
REMARK                         _______ _______ _______ _____ _____    ______ ____
ROOT
ATOM      1  N   UNL     1     -20.243  45.871 -19.839  0.00  0.00    +0.000 NA
ATOM      2  C   UNL     1     -19.630  44.107 -18.303  0.00  0.00    +0.000 A 
ATOM      3  C   UNL     1     -20.446  45.148 -18.714  0.00  0.00    +0.000 A 
ATOM      4  C   UNL     1     -18.533  43.787 -19.096  0.00  0.00    +0.000 A 
ATOM      5  C   UNL     1     -18.291  44.508 -20.261  0.00  0.00    +0.000 A 
ATOM      6  C   UNL     1     -19.168  45.531 -20.585  0.00  0.00    +0.000 A 
ENDROOT
BRANCH   2   9
ATOM      7  O   UNL     1     -20.440  42.251 -17.217  0.00  0.00    +0.000 OA
ATOM      8  N   UNL     1     -19.455  43.875 -15.855  0.00  0.00    +0.000 N 
ATOM      9  C   UNL     1     -19.879  43.337 -17.075  0.00  0.00    +0.000 C 
ATOM     10  C   UNL     1     -19.646  43.177 -14.591  0.00  0.00    +0.000 C 
ATOM     11  C   UNL     1     -18.793  45.175 -15.767  0.00  0.00    +0.000 C 
ENDBRANCH   2   9
BRANCH   3  12
ATOM     12  N   UNL     1     -21.567  45.478 -17.912  0.00  0.00    +0.000 N 
ATOM     13  C   UNL     1     -21.609  46.736 -17.203  0.00  0.00    +0.000 C 
ATOM     14  C   UNL     1     -22.679  44.560 -17.806  0.00  0.00    +0.000 C 
ENDBRANCH   3  12
TORSDOF 2
ENDMDL
MODEL 5
REMARK VINA RESULT:    -3.936     14.102     15.643
REMARK INTER + INTRA:          -4.129
REMARK INTER:                  -4.120
REMARK INTRA:                  -0.010
REMARK UNBOUND:                 0.267
REMARK  Name = 53015798
REMARK  6 active torsions:
REMARK  status: ('A' for Active; 'I' for Inactive)
REMARK    1  A    between atoms: N_2  and  C_6
REMARK    2  A    between atoms: N_2  and  C_9
REMARK    3  A    between atoms: N_2  and  C_10
REMARK    4  A    between atoms: N_3  and  C_12
REMARK    5  A    between atoms: N_3  and  C_13
REMARK    6  A    between atoms: C_5  and  C_7
REMARK                            x       y       z     vdW  Elec       q    Type
REMARK                         _______ _______ _______ _____ _____    ______ ____
ROOT
ATOM      1  N   UNL     1     -33.055  41.935 -18.912  0.00  0.00    +0.000 NA
ATOM      2  C   UNL     1     -32.037  42.391 -16.767  0.00  0.00    +0.000 A 
ATOM      3  C   UNL     1     -33.043  42.549 -17.706  0.00  0.00    +0.000 A 
ATOM      4  C   UNL     1     -30.974  41.552 -17.085  0.00  0.00    +0.000 A 
ATOM      5  C   UNL     1     -30.952  40.903 -18.316  0.00  0.00    +0.000 A 
ATOM      6  C   UNL     1     -32.007  41.127 -19.185  0.00  0.00    +0.000 A 
ENDROOT
BRANCH   2   9
ATOM      7  O   UNL     1     -32.692  42.516 -14.568  0.00  0.00    +0.000 OA
ATOM      8  N   UNL     1     -31.340  44.266 -15.325  0.00  0.00    +0.000 N 
ATOM      9  C   UNL     1     -32.052  43.069 -15.462  0.00  0.00    +0.000 C 
ATOM     10  C   UNL     1     -31.288  44.998 -14.068  0.00  0.00    +0.000 C 
ATOM     11  C   UNL     1     -30.603  44.862 -16.437  0.00  0.00    +0.000 C 
ENDBRANCH   2   9
BRANCH   3  12
ATOM     12  N   UNL     1     -34.130  43.400 -17.388  0.00  0.00    +0.000 N 
ATOM     13  C   UNL     1     -34.063  44.811 -17.696  0.00  0.00    +0.000 C 
ATOM     14  C   UNL     1     -35.316  42.860 -16.761  0.00  0.00    +0.000 C 
ENDBRANCH   3  12
TORSDOF 2
ENDMDL
