MODEL 1
REMARK VINA RESULT:    -6.714      0.000      0.000
REMARK INTER + INTRA:          -8.179
REMARK INTER:                  -7.695
REMARK INTRA:                  -0.484
REMARK UNBOUND:                -0.484
REMARK  Name = 53334695
REMARK  3 active torsions:
REMARK  status: ('A' for Active; 'I' for Inactive)
REMARK    1  A    between atoms: N_2  and  C_5
REMARK    2  A    between atoms: N_4  and  C_13
REMARK    3  A    between atoms: C_11  and  C_12
REMARK                            x       y       z     vdW  Elec       q    Type
REMARK                         _______ _______ _______ _____ _____    ______ ____
ROOT
ATOM      1  O   UNL     1     -17.954  40.511  -8.259  0.00  0.00    +0.000 OA
ATOM      2  N   UNL     1     -18.538  42.165  -9.776  0.00  0.00    +0.000 N 
ATOM      3  C   UNL     1     -18.762  41.328  -8.695  0.00  0.00    +0.000 C 
ATOM      4  H   UNL     1     -19.258  42.832 -10.039  0.00  0.00    +0.000 HD
ENDROOT
BRANCH   3   6
ATOM      5  N   UNL     1     -22.372  40.650  -7.797  0.00  0.00    +0.000 NA
ATOM      6  C   UNL     1     -20.101  41.436  -8.060  0.00  0.00    +0.000 A 
ATOM      7  C   UNL     1     -21.143  40.573  -8.356  0.00  0.00    +0.000 A 
ATOM      8  C   UNL     1     -20.333  42.445  -7.131  0.00  0.00    +0.000 A 
ATOM      9  C   UNL     1     -21.585  42.556  -6.535  0.00  0.00    +0.000 A 
ATOM     10  C   UNL     1     -22.561  41.643  -6.899  0.00  0.00    +0.000 A 
BRANCH   7  11
ATOM     11  N   UNL     1     -20.913  39.544  -9.304  0.00  0.00    +0.000 N 
ATOM     12  H   UNL     1     -20.040  39.587  -9.814  0.00  0.00    +0.000 HD
ATOM     13  H   UNL     1     -21.316  38.631  -9.136  0.00  0.00    +0.000 HD
ENDBRANCH   7  11
ENDBRANCH   3   6
BRANCH   2  14
ATOM     14  C   UNL     1     -17.294  42.160 -10.515  0.00  0.00    +0.000 C 
ATOM     15  C   UNL     1     -17.248  40.994 -11.506  0.00  0.00    +0.000 C 
ATOM     16  C   UNL     1     -17.069  43.500 -11.223  0.00  0.00    +0.000 C 
ATOM     17  C   UNL     1     -18.189  41.197 -12.694  0.00  0.00    +0.000 C 
ATOM     18  C   UNL     1     -18.011  43.699 -12.411  0.00  0.00    +0.000 C 
ATOM     19  C   UNL     1     -17.938  42.531 -13.389  0.00  0.00    +0.000 C 
ENDBRANCH   2  14
TORSDOF 3
ENDMDL
MODEL 2
REMARK VINA RESULT:    -6.090      1.921      3.038
REMARK INTER + INTRA:          -7.464
REMARK INTER:                  -6.884
REMARK INTRA:                  -0.580
REMARK UNBOUND:                -0.484
REMARK  Name = 53334695
REMARK  3 active torsions:
REMARK  status: ('A' for Active; 'I' for Inactive)
REMARK    1  A    between atoms: N_2  and  C_5
REMARK    2  A    between atoms: N_4  and  C_13
REMARK    3  A    between atoms: C_11  and  C_12
REMARK                            x       y       z     vdW  Elec       q    Type
REMARK                         _______ _______ _______ _____ _____    ______ ____
ROOT
ATOM      1  O   UNL     1     -17.012  40.735 -11.864  0.00  0.00    +0.000 OA
ATOM      2  N   UNL     1     -18.095  42.784 -11.934  0.00  0.00    +0.000 N 
ATOM      3  C   UNL     1     -17.822  41.534 -11.402  0.00  0.00    +0.000 C 
ATOM      4  H   UNL     1     -18.760  43.386 -11.458  0.00  0.00    +0.000 HD
ENDROOT
BRANCH   3   6
ATOM      5  N   UNL     1     -20.203  39.715  -9.096  0.00  0.00    +0.000 NA
ATOM      6  C   UNL     1     -18.608  41.159 -10.198  0.00  0.00    +0.000 A 
ATOM      7  C   UNL     1     -19.473  40.077 -10.175  0.00  0.00    +0.000 A 
ATOM      8  C   UNL     1     -18.483  41.919  -9.040  0.00  0.00    +0.000 A 
ATOM      9  C   UNL     1     -19.218  41.577  -7.910  0.00  0.00    +0.000 A 
ATOM     10  C   UNL     1     -20.056  40.476  -7.989  0.00  0.00    +0.000 A 
BRANCH   7  11
ATOM     11  N   UNL     1     -19.607  39.300 -11.353  0.00  0.00    +0.000 N 
ATOM     12  H   UNL     1     -20.543  39.208 -11.730  0.00  0.00    +0.000 HD
ATOM     13  H   UNL     1     -18.833  39.269 -12.004  0.00  0.00    +0.000 HD
ENDBRANCH   7  11
ENDBRANCH   3   6
BRANCH   2  14
ATOM     14  C   UNL     1     -17.431  43.283 -13.119  0.00  0.00    +0.000 C 
ATOM     15  C   UNL     1     -18.323  44.273 -13.873  0.00  0.00    +0.000 C 
ATOM     16  C   UNL     1     -16.077  43.909 -12.769  0.00  0.00    +0.000 C 
ATOM     17  C   UNL     1     -18.465  45.609 -13.142  0.00  0.00    +0.000 C 
ATOM     18  C   UNL     1     -16.222  45.245 -12.039  0.00  0.00    +0.000 C 
ATOM     19  C   UNL     1     -17.105  46.218 -12.815  0.00  0.00    +0.000 C 
ENDBRANCH   2  14
TORSDOF 3
ENDMDL
MODEL 3
REMARK VINA RESULT:    -5.504      3.956      6.217
REMARK INTER + INTRA:          -6.792
REMARK INTER:                  -6.197
REMARK INTRA:                  -0.595
REMARK UNBOUND:                -0.484
REMARK  Name = 53334695
REMARK  3 active torsions:
REMARK  status: ('A' for Active; 'I' for Inactive)
REMARK    1  A    between atoms: N_2  and  C_5
REMARK    2  A    between atoms: N_4  and  C_13
REMARK    3  A    between atoms: C_11  and  C_12
REMARK                            x       y       z     vdW  Elec       q    Type
REMARK                         _______ _______ _______ _____ _____    ______ ____
ROOT
ATOM      1  O   UNL     1     -15.080  43.225 -12.664  0.00  0.00    +0.000 OA
ATOM      2  N   UNL     1     -17.244  42.410 -12.497  0.00  0.00    +0.000 N 
ATOM      3  C   UNL     1     -16.293  43.411 -12.609  0.00  0.00    +0.000 C 
ATOM      4  H   UNL     1     -18.227  42.665 -12.493  0.00  0.00    +0.000 HD
ENDROOT
BRANCH   3   6
ATOM      5  N   UNL     1     -16.965  46.973 -13.686  0.00  0.00    +0.000 NA
ATOM      6  C   UNL     1     -16.817  44.801 -12.633  0.00  0.00    +0.000 A 
ATOM      7  C   UNL     1     -16.506  45.702 -13.640  0.00  0.00    +0.000 A 
ATOM      8  C   UNL     1     -17.652  45.232 -11.608  0.00  0.00    +0.000 A 
ATOM      9  C   UNL     1     -18.144  46.532 -11.621  0.00  0.00    +0.000 A 
ATOM     10  C   UNL     1     -17.774  47.356 -12.672  0.00  0.00    +0.000 A 
BRANCH   7  11
ATOM     11  N   UNL     1     -15.654  45.270 -14.687  0.00  0.00    +0.000 N 
ATOM     12  H   UNL     1     -15.948  44.448 -15.200  0.00  0.00    +0.000 HD
ATOM     13  H   UNL     1     -15.105  45.962 -15.182  0.00  0.00    +0.000 HD
ENDBRANCH   7  11
ENDBRANCH   3   6
BRANCH   2  14
ATOM     14  C   UNL     1     -16.890  41.009 -12.435  0.00  0.00    +0.000 C 
ATOM     15  C   UNL     1     -16.699  40.554 -10.985  0.00  0.00    +0.000 C 
ATOM     16  C   UNL     1     -17.931  40.146 -13.156  0.00  0.00    +0.000 C 
ATOM     17  C   UNL     1     -18.020  40.463 -10.220  0.00  0.00    +0.000 C 
ATOM     18  C   UNL     1     -19.250  40.057 -12.388  0.00  0.00    +0.000 C 
ATOM     19  C   UNL     1     -19.035  39.590 -10.952  0.00  0.00    +0.000 C 
ENDBRANCH   2  14
TORSDOF 3
ENDMDL
MODEL 4
REMARK VINA RESULT:    -5.445      3.934      5.476
REMARK INTER + INTRA:          -6.725
REMARK INTER:                  -6.229
REMARK INTRA:                  -0.495
REMARK UNBOUND:                -0.484
REMARK  Name = 53334695
REMARK  3 active torsions:
REMARK  status: ('A' for Active; 'I' for Inactive)
REMARK    1  A    between atoms: N_2  and  C_5
REMARK    2  A    between atoms: N_4  and  C_13
REMARK    3  A    between atoms: C_11  and  C_12
REMARK                            x       y       z     vdW  Elec       q    Type
REMARK                         _______ _______ _______ _____ _____    ______ ____
ROOT
ATOM      1  O   UNL     1     -15.772  43.043 -12.614  0.00  0.00    +0.000 OA
ATOM      2  N   UNL     1     -14.443  42.240 -10.892  0.00  0.00    +0.000 N 
ATOM      3  C   UNL     1     -15.623  42.352 -11.609  0.00  0.00    +0.000 C 
ATOM      4  H   UNL     1     -14.411  41.614 -10.092  0.00  0.00    +0.000 HD
ENDROOT
BRANCH   3   6
ATOM      5  N   UNL     1     -18.166  39.606 -11.074  0.00  0.00    +0.000 NA
ATOM      6  C   UNL     1     -16.778  41.585 -11.076  0.00  0.00    +0.000 A 
ATOM      7  C   UNL     1     -17.119  40.324 -11.538  0.00  0.00    +0.000 A 
ATOM      8  C   UNL     1     -17.563  42.146 -10.074  0.00  0.00    +0.000 A 
ATOM      9  C   UNL     1     -18.649  41.437  -9.572  0.00  0.00    +0.000 A 
ATOM     10  C   UNL     1     -18.906  40.182 -10.101  0.00  0.00    +0.000 A 
BRANCH   7  11
ATOM     11  N   UNL     1     -16.325  39.748 -12.561  0.00  0.00    +0.000 N 
ATOM     12  H   UNL     1     -16.658  38.877 -12.956  0.00  0.00    +0.000 HD
ATOM     13  H   UNL     1     -15.787  40.361 -13.161  0.00  0.00    +0.000 HD
ENDBRANCH   7  11
ENDBRANCH   3   6
BRANCH   2  14
ATOM     14  C   UNL     1     -13.237  42.945 -11.270  0.00  0.00    +0.000 C 
ATOM     15  C   UNL     1     -12.806  43.924 -10.173  0.00  0.00    +0.000 C 
ATOM     16  C   UNL     1     -12.111  41.964 -11.614  0.00  0.00    +0.000 C 
ATOM     17  C   UNL     1     -12.248  43.213  -8.940  0.00  0.00    +0.000 C 
ATOM     18  C   UNL     1     -11.554  41.257 -10.378  0.00  0.00    +0.000 C 
ATOM     19  C   UNL     1     -11.121  42.252  -9.306  0.00  0.00    +0.000 C 
ENDBRANCH   2  14
TORSDOF 3
ENDMDL
MODEL 5
REMARK VINA RESULT:    -5.370      4.742      7.599
REMARK INTER + INTRA:          -6.638
REMARK INTER:                  -6.058
REMARK INTRA:                  -0.580
REMARK UNBOUND:                -0.484
REMARK  Name = 53334695
REMARK  3 active torsions:
REMARK  status: ('A' for Active; 'I' for Inactive)
REMARK    1  A    between atoms: N_2  and  C_5
REMARK    2  A    between atoms: N_4  and  C_13
REMARK    3  A    between atoms: C_11  and  C_12
REMARK                            x       y       z     vdW  Elec       q    Type
REMARK                         _______ _______ _______ _____ _____    ______ ____
ROOT
ATOM      1  O   UNL     1     -18.742  44.980 -14.273  0.00  0.00    +0.000 OA
ATOM      2  N   UNL     1     -18.753  42.662 -14.278  0.00  0.00    +0.000 N 
ATOM      3  C   UNL     1     -19.020  43.912 -14.812  0.00  0.00    +0.000 C 
ATOM      4  H   UNL     1     -18.992  41.836 -14.819  0.00  0.00    +0.000 HD
ENDROOT
BRANCH   3   6
ATOM      5  N   UNL     1     -19.886  44.683 -18.410  0.00  0.00    +0.000 NA
ATOM      6  C   UNL     1     -19.719  43.920 -16.123  0.00  0.00    +0.000 A 
ATOM      7  C   UNL     1     -19.268  44.654 -17.208  0.00  0.00    +0.000 A 
ATOM      8  C   UNL     1     -20.878  43.167 -16.280  0.00  0.00    +0.000 A 
ATOM      9  C   UNL     1     -21.540  43.171 -17.503  0.00  0.00    +0.000 A 
ATOM     10  C   UNL     1     -21.009  43.939 -18.527  0.00  0.00    +0.000 A 
BRANCH   7  11
ATOM     11  N   UNL     1     -18.090  45.426 -17.053  0.00  0.00    +0.000 N 
ATOM     12  H   UNL     1     -17.366  45.033 -16.464  0.00  0.00    +0.000 HD
ATOM     13  H   UNL     1     -17.801  46.029 -17.814  0.00  0.00    +0.000 HD
ENDBRANCH   7  11
ENDBRANCH   3   6
BRANCH   2  14
ATOM     14  C   UNL     1     -18.101  42.489 -12.999  0.00  0.00    +0.000 C 
ATOM     15  C   UNL     1     -19.116  42.131 -11.908  0.00  0.00    +0.000 C 
ATOM     16  C   UNL     1     -16.987  41.441 -13.086  0.00  0.00    +0.000 C 
ATOM     17  C   UNL     1     -19.656  40.708 -12.054  0.00  0.00    +0.000 C 
ATOM     18  C   UNL     1     -17.530  40.019 -13.231  0.00  0.00    +0.000 C 
ATOM     19  C   UNL     1     -18.529  39.683 -12.128  0.00  0.00    +0.000 C 
ENDBRANCH   2  14
TORSDOF 3
ENDMDL
