MODEL 1
REMARK VINA RESULT:    -6.718      0.000      0.000
REMARK INTER + INTRA:          -9.174
REMARK INTER:                  -8.485
REMARK INTRA:                  -0.688
REMARK UNBOUND:                -0.688
REMARK  Name = 53334700
REMARK  5 active torsions:
REMARK  status: ('A' for Active; 'I' for Inactive)
REMARK    1  A    between atoms: N_2  and  C_12
REMARK    2  A    between atoms: N_4  and  C_15
REMARK    3  A    between atoms: C_7  and  C_10
REMARK    4  A    between atoms: C_10  and  C_12
REMARK    5  A    between atoms: C_13  and  C_14
REMARK                            x       y       z     vdW  Elec       q    Type
REMARK                         _______ _______ _______ _____ _____    ______ ____
ROOT
ATOM      1  O   UNL     1     -18.450  40.417  -8.670  0.00  0.00    +0.000 OA
ATOM      2  N   UNL     1     -19.995  40.179 -10.383  0.00  0.00    +0.000 N 
ATOM      3  C   UNL     1     -19.596  40.526  -9.098  0.00  0.00    +0.000 C 
ATOM      4  H   UNL     1     -20.968  40.298 -10.651  0.00  0.00    +0.000 HD
ENDROOT
BRANCH   3   6
ATOM      5  N   UNL     1     -21.426  42.607  -6.526  0.00  0.00    +0.000 NA
ATOM      6  C   UNL     1     -20.661  41.039  -8.199  0.00  0.00    +0.000 A 
ATOM      7  C   UNL     1     -20.474  42.121  -7.356  0.00  0.00    +0.000 A 
ATOM      8  C   UNL     1     -21.904  40.414  -8.191  0.00  0.00    +0.000 A 
ATOM      9  C   UNL     1     -22.907  40.884  -7.351  0.00  0.00    +0.000 A 
ATOM     10  C   UNL     1     -22.620  41.974  -6.545  0.00  0.00    +0.000 A 
BRANCH   7  11
ATOM     11  N   UNL     1     -19.211  42.762  -7.356  0.00  0.00    +0.000 N 
ATOM     12  H   UNL     1     -18.411  42.187  -7.591  0.00  0.00    +0.000 HD
ATOM     13  H   UNL     1     -19.171  43.744  -7.605  0.00  0.00    +0.000 HD
ENDBRANCH   7  11
ENDBRANCH   3   6
BRANCH   2  14
ATOM     14  C   UNL     1     -19.086  39.646 -11.361  0.00  0.00    +0.000 C 
BRANCH  14  15
ATOM     15  C   UNL     1     -18.943  40.544 -12.583  0.00  0.00    +0.000 C 
BRANCH  15  18
ATOM     16  C   UNL     1     -18.088  42.873 -13.191  0.00  0.00    +0.000 C 
ATOM     17  C   UNL     1     -16.844  43.764 -13.235  0.00  0.00    +0.000 C 
ATOM     18  C   UNL     1     -17.890  41.598 -12.409  0.00  0.00    +0.000 C 
ATOM     19  C   UNL     1     -16.175  43.846 -11.869  0.00  0.00    +0.000 C 
ATOM     20  C   UNL     1     -15.774  42.457 -11.370  0.00  0.00    +0.000 C 
ATOM     21  C   UNL     1     -16.831  41.418 -11.601  0.00  0.00    +0.000 C 
ENDBRANCH  15  18
ENDBRANCH  14  15
ENDBRANCH   2  14
TORSDOF 5
ENDMDL
MODEL 2
REMARK VINA RESULT:    -6.421      3.911      5.759
REMARK INTER + INTRA:          -8.799
REMARK INTER:                  -8.306
REMARK INTRA:                  -0.493
REMARK UNBOUND:                -0.688
REMARK  Name = 53334700
REMARK  5 active torsions:
REMARK  status: ('A' for Active; 'I' for Inactive)
REMARK    1  A    between atoms: N_2  and  C_12
REMARK    2  A    between atoms: N_4  and  C_15
REMARK    3  A    between atoms: C_7  and  C_10
REMARK    4  A    between atoms: C_10  and  C_12
REMARK    5  A    between atoms: C_13  and  C_14
REMARK                            x       y       z     vdW  Elec       q    Type
REMARK                         _______ _______ _______ _____ _____    ______ ____
ROOT
ATOM      1  O   UNL     1     -17.346  41.579 -13.524  0.00  0.00    +0.000 OA
ATOM      2  N   UNL     1     -19.237  42.910 -13.336  0.00  0.00    +0.000 N 
ATOM      3  C   UNL     1     -18.316  41.973 -12.883  0.00  0.00    +0.000 C 
ATOM      4  H   UNL     1     -20.015  43.173 -12.738  0.00  0.00    +0.000 HD
ENDROOT
BRANCH   3   6
ATOM      5  N   UNL     1     -19.484  39.681 -10.111  0.00  0.00    +0.000 NA
ATOM      6  C   UNL     1     -18.569  41.411 -11.531  0.00  0.00    +0.000 A 
ATOM      7  C   UNL     1     -19.238  40.215 -11.329  0.00  0.00    +0.000 A 
ATOM      8  C   UNL     1     -18.123  42.104 -10.411  0.00  0.00    +0.000 A 
ATOM      9  C   UNL     1     -18.358  41.589  -9.142  0.00  0.00    +0.000 A 
ATOM     10  C   UNL     1     -19.036  40.384  -9.046  0.00  0.00    +0.000 A 
BRANCH   7  11
ATOM     11  N   UNL     1     -19.697  39.503 -12.465  0.00  0.00    +0.000 N 
ATOM     12  H   UNL     1     -20.325  39.997 -13.087  0.00  0.00    +0.000 HD
ATOM     13  H   UNL     1     -19.085  38.806 -12.874  0.00  0.00    +0.000 HD
ENDBRANCH   7  11
ENDBRANCH   3   6
BRANCH   2  14
ATOM     14  C   UNL     1     -19.141  43.526 -14.632  0.00  0.00    +0.000 C 
BRANCH  14  15
ATOM     15  C   UNL     1     -20.107  42.923 -15.644  0.00  0.00    +0.000 C 
BRANCH  15  18
ATOM     16  C   UNL     1     -20.271  45.180 -16.827  0.00  0.00    +0.000 C 
ATOM     17  C   UNL     1     -21.222  46.325 -17.186  0.00  0.00    +0.000 C 
ATOM     18  C   UNL     1     -20.975  43.952 -16.303  0.00  0.00    +0.000 C 
ATOM     19  C   UNL     1     -22.445  45.812 -17.936  0.00  0.00    +0.000 C 
ATOM     20  C   UNL     1     -23.205  44.776 -17.106  0.00  0.00    +0.000 C 
ATOM     21  C   UNL     1     -22.304  43.790 -16.422  0.00  0.00    +0.000 C 
ENDBRANCH  15  18
ENDBRANCH  14  15
ENDBRANCH   2  14
TORSDOF 5
ENDMDL
MODEL 3
REMARK VINA RESULT:    -6.136      2.645      4.135
REMARK INTER + INTRA:          -8.438
REMARK INTER:                  -7.609
REMARK INTRA:                  -0.829
REMARK UNBOUND:                -0.688
REMARK  Name = 53334700
REMARK  5 active torsions:
REMARK  status: ('A' for Active; 'I' for Inactive)
REMARK    1  A    between atoms: N_2  and  C_12
REMARK    2  A    between atoms: N_4  and  C_15
REMARK    3  A    between atoms: C_7  and  C_10
REMARK    4  A    between atoms: C_10  and  C_12
REMARK    5  A    between atoms: C_13  and  C_14
REMARK                            x       y       z     vdW  Elec       q    Type
REMARK                         _______ _______ _______ _____ _____    ______ ____
ROOT
ATOM      1  O   UNL     1     -17.452  40.982 -13.146  0.00  0.00    +0.000 OA
ATOM      2  N   UNL     1     -19.126  42.585 -13.090  0.00  0.00    +0.000 N 
ATOM      3  C   UNL     1     -18.330  41.589 -12.539  0.00  0.00    +0.000 C 
ATOM      4  H   UNL     1     -19.835  43.032 -12.514  0.00  0.00    +0.000 HD
ENDROOT
BRANCH   3   6
ATOM      5  N   UNL     1     -19.521  39.740  -9.464  0.00  0.00    +0.000 NA
ATOM      6  C   UNL     1     -18.605  41.242 -11.122  0.00  0.00    +0.000 A 
ATOM      7  C   UNL     1     -19.255  40.079 -10.746  0.00  0.00    +0.000 A 
ATOM      8  C   UNL     1     -18.200  42.115 -10.117  0.00  0.00    +0.000 A 
ATOM      9  C   UNL     1     -18.456  41.802  -8.787  0.00  0.00    +0.000 A 
ATOM     10  C   UNL     1     -19.113  40.613  -8.515  0.00  0.00    +0.000 A 
BRANCH   7  11
ATOM     11  N   UNL     1     -19.672  39.185 -11.764  0.00  0.00    +0.000 N 
ATOM     12  H   UNL     1     -20.660  38.962 -11.794  0.00  0.00    +0.000 HD
ATOM     13  H   UNL     1     -19.166  39.187 -12.641  0.00  0.00    +0.000 HD
ENDBRANCH   7  11
ENDBRANCH   3   6
BRANCH   2  14
ATOM     14  C   UNL     1     -18.997  43.015 -14.457  0.00  0.00    +0.000 C 
BRANCH  14  15
ATOM     15  C   UNL     1     -18.810  44.521 -14.585  0.00  0.00    +0.000 C 
BRANCH  15  18
ATOM     16  C   UNL     1     -16.487  44.843 -13.572  0.00  0.00    +0.000 C 
ATOM     17  C   UNL     1     -15.732  45.160 -12.278  0.00  0.00    +0.000 C 
ATOM     18  C   UNL     1     -17.972  45.097 -13.482  0.00  0.00    +0.000 C 
ATOM     19  C   UNL     1     -16.210  46.471 -11.668  0.00  0.00    +0.000 C 
ATOM     20  C   UNL     1     -17.708  46.425 -11.369  0.00  0.00    +0.000 C 
ATOM     21  C   UNL     1     -18.512  45.801 -12.472  0.00  0.00    +0.000 C 
ENDBRANCH  15  18
ENDBRANCH  14  15
ENDBRANCH   2  14
TORSDOF 5
ENDMDL
MODEL 4
REMARK VINA RESULT:    -6.064      4.925      6.931
REMARK INTER + INTRA:          -8.347
REMARK INTER:                  -7.794
REMARK INTRA:                  -0.553
REMARK UNBOUND:                -0.688
REMARK  Name = 53334700
REMARK  5 active torsions:
REMARK  status: ('A' for Active; 'I' for Inactive)
REMARK    1  A    between atoms: N_2  and  C_12
REMARK    2  A    between atoms: N_4  and  C_15
REMARK    3  A    between atoms: C_7  and  C_10
REMARK    4  A    between atoms: C_10  and  C_12
REMARK    5  A    between atoms: C_13  and  C_14
REMARK                            x       y       z     vdW  Elec       q    Type
REMARK                         _______ _______ _______ _____ _____    ______ ____
ROOT
ATOM      1  O   UNL     1     -18.958  43.948 -13.568  0.00  0.00    +0.000 OA
ATOM      2  N   UNL     1     -19.672  42.377 -15.116  0.00  0.00    +0.000 N 
ATOM      3  C   UNL     1     -19.109  42.779 -13.912  0.00  0.00    +0.000 C 
ATOM      4  H   UNL     1     -19.753  41.385 -15.321  0.00  0.00    +0.000 HD
ENDROOT
BRANCH   3   6
ATOM      5  N   UNL     1     -16.863  40.529 -11.864  0.00  0.00    +0.000 NA
ATOM      6  C   UNL     1     -18.645  41.692 -13.012  0.00  0.00    +0.000 A 
ATOM      7  C   UNL     1     -17.313  41.511 -12.679  0.00  0.00    +0.000 A 
ATOM      8  C   UNL     1     -19.576  40.809 -12.476  0.00  0.00    +0.000 A 
ATOM      9  C   UNL     1     -19.152  39.786 -11.636  0.00  0.00    +0.000 A 
ATOM     10  C   UNL     1     -17.797  39.690 -11.363  0.00  0.00    +0.000 A 
BRANCH   7  11
ATOM     11  N   UNL     1     -16.358  42.406 -13.222  0.00  0.00    +0.000 N 
ATOM     12  H   UNL     1     -15.839  42.971 -12.561  0.00  0.00    +0.000 HD
ATOM     13  H   UNL     1     -15.891  42.145 -14.082  0.00  0.00    +0.000 HD
ENDBRANCH   7  11
ENDBRANCH   3   6
BRANCH   2  14
ATOM     14  C   UNL     1     -20.146  43.310 -16.102  0.00  0.00    +0.000 C 
BRANCH  14  15
ATOM     15  C   UNL     1     -21.663  43.304 -16.237  0.00  0.00    +0.000 C 
BRANCH  15  18
ATOM     16  C   UNL     1     -21.177  45.625 -17.188  0.00  0.00    +0.000 C 
ATOM     17  C   UNL     1     -21.775  47.011 -17.437  0.00  0.00    +0.000 C 
ATOM     18  C   UNL     1     -22.201  44.587 -16.797  0.00  0.00    +0.000 C 
ATOM     19  C   UNL     1     -23.063  46.920 -18.246  0.00  0.00    +0.000 C 
ATOM     20  C   UNL     1     -24.100  46.053 -17.532  0.00  0.00    +0.000 C 
ATOM     21  C   UNL     1     -23.520  44.800 -16.944  0.00  0.00    +0.000 C 
ENDBRANCH  15  18
ENDBRANCH  14  15
ENDBRANCH   2  14
TORSDOF 5
ENDMDL
MODEL 5
REMARK VINA RESULT:    -5.895      3.355      4.696
REMARK INTER + INTRA:          -8.134
REMARK INTER:                  -7.731
REMARK INTRA:                  -0.404
REMARK UNBOUND:                -0.688
REMARK  Name = 53334700
REMARK  5 active torsions:
REMARK  status: ('A' for Active; 'I' for Inactive)
REMARK    1  A    between atoms: N_2  and  C_12
REMARK    2  A    between atoms: N_4  and  C_15
REMARK    3  A    between atoms: C_7  and  C_10
REMARK    4  A    between atoms: C_10  and  C_12
REMARK    5  A    between atoms: C_13  and  C_14
REMARK                            x       y       z     vdW  Elec       q    Type
REMARK                         _______ _______ _______ _____ _____    ______ ____
ROOT
ATOM      1  O   UNL     1     -17.736  40.453 -12.474  0.00  0.00    +0.000 OA
ATOM      2  N   UNL     1     -19.314  42.137 -12.701  0.00  0.00    +0.000 N 
ATOM      3  C   UNL     1     -18.583  41.196 -11.986  0.00  0.00    +0.000 C 
ATOM      4  H   UNL     1     -20.000  42.708 -12.215  0.00  0.00    +0.000 HD
ENDROOT
BRANCH   3   6
ATOM      5  N   UNL     1     -18.482  41.751  -8.247  0.00  0.00    +0.000 NA
ATOM      6  C   UNL     1     -18.892  41.092 -10.537  0.00  0.00    +0.000 A 
ATOM      7  C   UNL     1     -18.223  41.827  -9.573  0.00  0.00    +0.000 A 
ATOM      8  C   UNL     1     -19.892  40.222 -10.115  0.00  0.00    +0.000 A 
ATOM      9  C   UNL     1     -20.187  40.115  -8.761  0.00  0.00    +0.000 A 
ATOM     10  C   UNL     1     -19.460  40.894  -7.875  0.00  0.00    +0.000 A 
BRANCH   7  11
ATOM     11  N   UNL     1     -17.202  42.714  -9.994  0.00  0.00    +0.000 N 
ATOM     12  H   UNL     1     -17.477  43.452 -10.631  0.00  0.00    +0.000 HD
ATOM     13  H   UNL     1     -16.440  42.908  -9.354  0.00  0.00    +0.000 HD
ENDBRANCH   7  11
ENDBRANCH   3   6
BRANCH   2  14
ATOM     14  C   UNL     1     -19.146  42.340 -14.115  0.00  0.00    +0.000 C 
BRANCH  14  15
ATOM     15  C   UNL     1     -19.080  43.813 -14.495  0.00  0.00    +0.000 C 
BRANCH  15  18
ATOM     16  C   UNL     1     -20.775  43.079 -16.259  0.00  0.00    +0.000 C 
ATOM     17  C   UNL     1     -21.207  43.266 -17.715  0.00  0.00    +0.000 C 
ATOM     18  C   UNL     1     -19.780  44.111 -15.787  0.00  0.00    +0.000 C 
ATOM     19  C   UNL     1     -21.479  44.732 -18.026  0.00  0.00    +0.000 C 
ATOM     20  C   UNL     1     -20.240  45.589 -17.762  0.00  0.00    +0.000 C 
ATOM     21  C   UNL     1     -19.537  45.234 -16.485  0.00  0.00    +0.000 C 
ENDBRANCH  15  18
ENDBRANCH  14  15
ENDBRANCH   2  14
TORSDOF 5
ENDMDL
