MODEL 1
REMARK VINA RESULT:    -6.419      0.000      0.000
REMARK INTER + INTRA:          -9.009
REMARK INTER:                  -8.483
REMARK INTRA:                  -0.526
REMARK UNBOUND:                -0.526
REMARK  Name = 53334694
REMARK  7 active torsions:
REMARK  status: ('A' for Active; 'I' for Inactive)
REMARK    1  A    between atoms: N_2  and  C_7
REMARK    2  A    between atoms: N_4  and  C_12
REMARK    3  A    between atoms: C_5  and  C_6
REMARK    4  A    between atoms: C_5  and  C_7
REMARK    5  A    between atoms: C_6  and  C_8
REMARK    6  A    between atoms: C_8  and  C_9
REMARK    7  A    between atoms: C_10  and  C_11
REMARK                            x       y       z     vdW  Elec       q    Type
REMARK                         _______ _______ _______ _____ _____    ______ ____
ROOT
ATOM      1  O   UNL     1     -18.116  39.881 -10.095  0.00  0.00    +0.000 OA
ATOM      2  N   UNL     1     -19.273  41.669  -9.173  0.00  0.00    +0.000 N 
ATOM      3  C   UNL     1     -18.645  40.984 -10.208  0.00  0.00    +0.000 C 
ATOM      4  H   UNL     1     -19.674  42.584  -9.354  0.00  0.00    +0.000 HD
ENDROOT
BRANCH   3   6
ATOM      5  N   UNL     1     -19.247  41.800 -13.850  0.00  0.00    +0.000 NA
ATOM      6  C   UNL     1     -18.609  41.677 -11.522  0.00  0.00    +0.000 A 
ATOM      7  C   UNL     1     -19.264  41.192 -12.642  0.00  0.00    +0.000 A 
ATOM      8  C   UNL     1     -17.889  42.859 -11.648  0.00  0.00    +0.000 A 
ATOM      9  C   UNL     1     -17.847  43.514 -12.875  0.00  0.00    +0.000 A 
ATOM     10  C   UNL     1     -18.536  42.948 -13.935  0.00  0.00    +0.000 A 
BRANCH   7  11
ATOM     11  N   UNL     1     -19.998  39.985 -12.522  0.00  0.00    +0.000 N 
ATOM     12  H   UNL     1     -20.011  39.382 -13.336  0.00  0.00    +0.000 HD
ATOM     13  H   UNL     1     -20.065  39.548 -11.612  0.00  0.00    +0.000 HD
ENDBRANCH   7  11
ENDBRANCH   3   6
BRANCH   2  14
ATOM     14  C   UNL     1     -19.367  41.141  -7.840  0.00  0.00    +0.000 C 
BRANCH  14  15
ATOM     15  C   UNL     1     -19.809  42.209  -6.845  0.00  0.00    +0.000 C 
BRANCH  15  16
ATOM     16  C   UNL     1     -21.051  41.768  -6.071  0.00  0.00    +0.000 C 
BRANCH  16  17
ATOM     17  C   UNL     1     -22.332  42.244  -6.759  0.00  0.00    +0.000 C 
ATOM     18  C   UNL     1     -23.158  41.074  -7.269  0.00  0.00    +0.000 C 
ENDBRANCH  16  17
ENDBRANCH  15  16
ENDBRANCH  14  15
ENDBRANCH   2  14
TORSDOF 6
ENDMDL
MODEL 2
REMARK VINA RESULT:    -5.921      1.698      5.929
REMARK INTER + INTRA:          -8.350
REMARK INTER:                  -7.865
REMARK INTRA:                  -0.485
REMARK UNBOUND:                -0.526
REMARK  Name = 53334694
REMARK  7 active torsions:
REMARK  status: ('A' for Active; 'I' for Inactive)
REMARK    1  A    between atoms: N_2  and  C_7
REMARK    2  A    between atoms: N_4  and  C_12
REMARK    3  A    between atoms: C_5  and  C_6
REMARK    4  A    between atoms: C_5  and  C_7
REMARK    5  A    between atoms: C_6  and  C_8
REMARK    6  A    between atoms: C_8  and  C_9
REMARK    7  A    between atoms: C_10  and  C_11
REMARK                            x       y       z     vdW  Elec       q    Type
REMARK                         _______ _______ _______ _____ _____    ______ ____
ROOT
ATOM      1  O   UNL     1     -18.355  40.432  -8.552  0.00  0.00    +0.000 OA
ATOM      2  N   UNL     1     -19.831  39.945 -10.276  0.00  0.00    +0.000 N 
ATOM      3  C   UNL     1     -19.491  40.439  -9.021  0.00  0.00    +0.000 C 
ATOM      4  H   UNL     1     -20.800  39.979 -10.577  0.00  0.00    +0.000 HD
ENDROOT
BRANCH   3   6
ATOM      5  N   UNL     1     -21.478  42.617  -6.653  0.00  0.00    +0.000 NA
ATOM      6  C   UNL     1     -20.610  40.981  -8.207  0.00  0.00    +0.000 A 
ATOM      7  C   UNL     1     -20.479  42.103  -7.405  0.00  0.00    +0.000 A 
ATOM      8  C   UNL     1     -21.845  40.344  -8.239  0.00  0.00    +0.000 A 
ATOM      9  C   UNL     1     -22.898  40.842  -7.479  0.00  0.00    +0.000 A 
ATOM     10  C   UNL     1     -22.665  41.970  -6.710  0.00  0.00    +0.000 A 
BRANCH   7  11
ATOM     11  N   UNL     1     -19.221  42.756  -7.365  0.00  0.00    +0.000 N 
ATOM     12  H   UNL     1     -19.083  43.512  -8.024  0.00  0.00    +0.000 HD
ATOM     13  H   UNL     1     -18.731  42.807  -6.482  0.00  0.00    +0.000 HD
ENDBRANCH   7  11
ENDBRANCH   3   6
BRANCH   2  14
ATOM     14  C   UNL     1     -18.865  39.367 -11.168  0.00  0.00    +0.000 C 
BRANCH  14  15
ATOM     15  C   UNL     1     -18.906  40.026 -12.543  0.00  0.00    +0.000 C 
BRANCH  15  16
ATOM     16  C   UNL     1     -19.568  41.402 -12.479  0.00  0.00    +0.000 C 
BRANCH  16  17
ATOM     17  C   UNL     1     -18.530  42.522 -12.561  0.00  0.00    +0.000 C 
ATOM     18  C   UNL     1     -17.204  42.014 -13.105  0.00  0.00    +0.000 C 
ENDBRANCH  16  17
ENDBRANCH  15  16
ENDBRANCH  14  15
ENDBRANCH   2  14
TORSDOF 6
ENDMDL
MODEL 3
REMARK VINA RESULT:    -5.905      2.196      2.703
REMARK INTER + INTRA:          -8.329
REMARK INTER:                  -7.865
REMARK INTRA:                  -0.464
REMARK UNBOUND:                -0.526
REMARK  Name = 53334694
REMARK  7 active torsions:
REMARK  status: ('A' for Active; 'I' for Inactive)
REMARK    1  A    between atoms: N_2  and  C_7
REMARK    2  A    between atoms: N_4  and  C_12
REMARK    3  A    between atoms: C_5  and  C_6
REMARK    4  A    between atoms: C_5  and  C_7
REMARK    5  A    between atoms: C_6  and  C_8
REMARK    6  A    between atoms: C_8  and  C_9
REMARK    7  A    between atoms: C_10  and  C_11
REMARK                            x       y       z     vdW  Elec       q    Type
REMARK                         _______ _______ _______ _____ _____    ______ ____
ROOT
ATOM      1  O   UNL     1     -17.740  40.170 -10.848  0.00  0.00    +0.000 OA
ATOM      2  N   UNL     1     -18.216  41.611  -9.092  0.00  0.00    +0.000 N 
ATOM      3  C   UNL     1     -17.689  41.286 -10.338  0.00  0.00    +0.000 C 
ATOM      4  H   UNL     1     -18.116  42.559  -8.742  0.00  0.00    +0.000 HD
ENDROOT
BRANCH   3   6
ATOM      5  N   UNL     1     -15.034  43.284 -12.142  0.00  0.00    +0.000 NA
ATOM      6  C   UNL     1     -17.002  42.386 -11.064  0.00  0.00    +0.000 A 
ATOM      7  C   UNL     1     -15.685  42.299 -11.482  0.00  0.00    +0.000 A 
ATOM      8  C   UNL     1     -17.698  43.558 -11.339  0.00  0.00    +0.000 A 
ATOM      9  C   UNL     1     -17.063  44.594 -12.016  0.00  0.00    +0.000 A 
ATOM     10  C   UNL     1     -15.743  44.409 -12.392  0.00  0.00    +0.000 A 
BRANCH   7  11
ATOM     11  N   UNL     1     -14.968  41.109 -11.202  0.00  0.00    +0.000 N 
ATOM     12  H   UNL     1     -14.543  40.640 -11.994  0.00  0.00    +0.000 HD
ATOM     13  H   UNL     1     -14.514  41.017 -10.303  0.00  0.00    +0.000 HD
ENDBRANCH   7  11
ENDBRANCH   3   6
BRANCH   2  14
ATOM     14  C   UNL     1     -18.886  40.650  -8.260  0.00  0.00    +0.000 C 
BRANCH  14  15
ATOM     15  C   UNL     1     -20.341  40.466  -8.677  0.00  0.00    +0.000 C 
BRANCH  15  16
ATOM     16  C   UNL     1     -21.280  41.286  -7.793  0.00  0.00    +0.000 C 
BRANCH  16  17
ATOM     17  C   UNL     1     -20.556  41.816  -6.554  0.00  0.00    +0.000 C 
ATOM     18  C   UNL     1     -21.534  42.382  -5.537  0.00  0.00    +0.000 C 
ENDBRANCH  16  17
ENDBRANCH  15  16
ENDBRANCH  14  15
ENDBRANCH   2  14
TORSDOF 6
ENDMDL
MODEL 4
REMARK VINA RESULT:    -5.844      1.745      5.220
REMARK INTER + INTRA:          -8.248
REMARK INTER:                  -7.495
REMARK INTRA:                  -0.754
REMARK UNBOUND:                -0.526
REMARK  Name = 53334694
REMARK  7 active torsions:
REMARK  status: ('A' for Active; 'I' for Inactive)
REMARK    1  A    between atoms: N_2  and  C_7
REMARK    2  A    between atoms: N_4  and  C_12
REMARK    3  A    between atoms: C_5  and  C_6
REMARK    4  A    between atoms: C_5  and  C_7
REMARK    5  A    between atoms: C_6  and  C_8
REMARK    6  A    between atoms: C_8  and  C_9
REMARK    7  A    between atoms: C_10  and  C_11
REMARK                            x       y       z     vdW  Elec       q    Type
REMARK                         _______ _______ _______ _____ _____    ______ ____
ROOT
ATOM      1  O   UNL     1     -17.230  40.108 -10.572  0.00  0.00    +0.000 OA
ATOM      2  N   UNL     1     -17.067  42.420 -10.443  0.00  0.00    +0.000 N 
ATOM      3  C   UNL     1     -17.632  41.186 -10.139  0.00  0.00    +0.000 C 
ATOM      4  H   UNL     1     -17.474  43.263 -10.050  0.00  0.00    +0.000 HD
ENDROOT
BRANCH   3   6
ATOM      5  N   UNL     1     -21.040  40.445  -8.679  0.00  0.00    +0.000 NA
ATOM      6  C   UNL     1     -18.819  41.213  -9.246  0.00  0.00    +0.000 A 
ATOM      7  C   UNL     1     -19.946  40.439  -9.473  0.00  0.00    +0.000 A 
ATOM      8  C   UNL     1     -18.814  42.046  -8.133  0.00  0.00    +0.000 A 
ATOM      9  C   UNL     1     -19.922  42.080  -7.292  0.00  0.00    +0.000 A 
ATOM     10  C   UNL     1     -20.999  41.268  -7.606  0.00  0.00    +0.000 A 
BRANCH   7  11
ATOM     11  N   UNL     1     -19.959  39.590 -10.608  0.00  0.00    +0.000 N 
ATOM     12  H   UNL     1     -19.647  38.637 -10.463  0.00  0.00    +0.000 HD
ATOM     13  H   UNL     1     -20.653  39.753 -11.326  0.00  0.00    +0.000 HD
ENDBRANCH   7  11
ENDBRANCH   3   6
BRANCH   2  14
ATOM     14  C   UNL     1     -15.932  42.559 -11.312  0.00  0.00    +0.000 C 
BRANCH  14  15
ATOM     15  C   UNL     1     -16.356  42.872 -12.743  0.00  0.00    +0.000 C 
BRANCH  15  16
ATOM     16  C   UNL     1     -17.612  43.742 -12.772  0.00  0.00    +0.000 C 
BRANCH  16  17
ATOM     17  C   UNL     1     -18.628  43.218 -13.789  0.00  0.00    +0.000 C 
ATOM     18  C   UNL     1     -19.518  42.144 -13.184  0.00  0.00    +0.000 C 
ENDBRANCH  16  17
ENDBRANCH  15  16
ENDBRANCH  14  15
ENDBRANCH   2  14
TORSDOF 6
ENDMDL
MODEL 5
REMARK VINA RESULT:    -5.568      2.551      6.298
REMARK INTER + INTRA:          -7.884
REMARK INTER:                  -7.462
REMARK INTRA:                  -0.422
REMARK UNBOUND:                -0.526
REMARK  Name = 53334694
REMARK  7 active torsions:
REMARK  status: ('A' for Active; 'I' for Inactive)
REMARK    1  A    between atoms: N_2  and  C_7
REMARK    2  A    between atoms: N_4  and  C_12
REMARK    3  A    between atoms: C_5  and  C_6
REMARK    4  A    between atoms: C_5  and  C_7
REMARK    5  A    between atoms: C_6  and  C_8
REMARK    6  A    between atoms: C_8  and  C_9
REMARK    7  A    between atoms: C_10  and  C_11
REMARK                            x       y       z     vdW  Elec       q    Type
REMARK                         _______ _______ _______ _____ _____    ______ ____
ROOT
ATOM      1  O   UNL     1     -17.329  41.492 -13.522  0.00  0.00    +0.000 OA
ATOM      2  N   UNL     1     -19.219  42.830 -13.379  0.00  0.00    +0.000 N 
ATOM      3  C   UNL     1     -18.300  41.906 -12.894  0.00  0.00    +0.000 C 
ATOM      4  H   UNL     1     -20.002  43.106 -12.794  0.00  0.00    +0.000 HD
ENDROOT
BRANCH   3   6
ATOM      5  N   UNL     1     -19.446  39.682 -10.059  0.00  0.00    +0.000 NA
ATOM      6  C   UNL     1     -18.557  41.385 -11.526  0.00  0.00    +0.000 A 
ATOM      7  C   UNL     1     -19.198  40.179 -11.292  0.00  0.00    +0.000 A 
ATOM      8  C   UNL     1     -18.144  42.129 -10.426  0.00  0.00    +0.000 A 
ATOM      9  C   UNL     1     -18.382  41.650  -9.142  0.00  0.00    +0.000 A 
ATOM     10  C   UNL     1     -19.030  40.433  -9.014  0.00  0.00    +0.000 A 
BRANCH   7  11
ATOM     11  N   UNL     1     -19.624  39.417 -12.408  0.00  0.00    +0.000 N 
ATOM     12  H   UNL     1     -18.907  38.905 -12.907  0.00  0.00    +0.000 HD
ATOM     13  H   UNL     1     -20.559  39.030 -12.401  0.00  0.00    +0.000 HD
ENDBRANCH   7  11
ENDBRANCH   3   6
BRANCH   2  14
ATOM     14  C   UNL     1     -19.121  43.406 -14.692  0.00  0.00    +0.000 C 
BRANCH  14  15
ATOM     15  C   UNL     1     -20.414  43.228 -15.479  0.00  0.00    +0.000 C 
BRANCH  15  16
ATOM     16  C   UNL     1     -20.132  42.902 -16.945  0.00  0.00    +0.000 C 
BRANCH  16  17
ATOM     17  C   UNL     1     -21.279  43.361 -17.847  0.00  0.00    +0.000 C 
ATOM     18  C   UNL     1     -22.326  44.138 -17.066  0.00  0.00    +0.000 C 
ENDBRANCH  16  17
ENDBRANCH  15  16
ENDBRANCH  14  15
ENDBRANCH   2  14
TORSDOF 6
ENDMDL
