MODEL 1
REMARK VINA RESULT:    -7.378      0.000      0.000
REMARK INTER + INTRA:         -10.221
REMARK INTER:                  -9.750
REMARK INTRA:                  -0.471
REMARK UNBOUND:                -0.471
REMARK  Name = 53334734
REMARK  6 active torsions:
REMARK  status: ('A' for Active; 'I' for Inactive)
REMARK    1  A    between atoms: N_2  and  C_7
REMARK    2  A    between atoms: N_4  and  C_16
REMARK    3  A    between atoms: C_5  and  C_6
REMARK    4  A    between atoms: C_5  and  C_7
REMARK    5  A    between atoms: C_6  and  C_8
REMARK    6  A    between atoms: C_11  and  C_12
REMARK                            x       y       z     vdW  Elec       q    Type
REMARK                         _______ _______ _______ _____ _____    ______ ____
ROOT
ATOM      1  O   UNL     1     -19.697  41.445 -13.106  0.00  0.00    +0.000 OA
ATOM      2  N   UNL     1     -18.217  40.752 -11.460  0.00  0.00    +0.000 N 
ATOM      3  C   UNL     1     -18.657  41.598 -12.471  0.00  0.00    +0.000 C 
ATOM      4  H   UNL     1     -17.339  40.952 -10.990  0.00  0.00    +0.000 HD
ENDROOT
BRANCH   3   6
ATOM      5  N   UNL     1     -17.448  44.966 -13.694  0.00  0.00    +0.000 NA
ATOM      6  C   UNL     1     -17.769  42.744 -12.796  0.00  0.00    +0.000 A 
ATOM      7  C   UNL     1     -18.233  43.910 -13.384  0.00  0.00    +0.000 A 
ATOM      8  C   UNL     1     -16.412  42.658 -12.507  0.00  0.00    +0.000 A 
ATOM      9  C   UNL     1     -15.572  43.724 -12.811  0.00  0.00    +0.000 A 
ATOM     10  C   UNL     1     -16.135  44.845 -13.399  0.00  0.00    +0.000 A 
BRANCH   7  11
ATOM     11  N   UNL     1     -19.615  44.005 -13.685  0.00  0.00    +0.000 N 
ATOM     12  H   UNL     1     -19.917  43.591 -14.557  0.00  0.00    +0.000 HD
ATOM     13  H   UNL     1     -20.277  44.016 -12.917  0.00  0.00    +0.000 HD
ENDBRANCH   7  11
ENDBRANCH   3   6
BRANCH   2  14
ATOM     14  C   UNL     1     -18.952  39.587 -11.048  0.00  0.00    +0.000 C 
BRANCH  14  15
ATOM     15  C   UNL     1     -19.960  39.890  -9.942  0.00  0.00    +0.000 C 
BRANCH  15  16
ATOM     16  C   UNL     1     -19.360  40.570  -8.703  0.00  0.00    +0.000 C 
BRANCH  16  17
ATOM     17  C   UNL     1     -20.389  41.167  -7.776  0.00  0.00    +0.000 A 
ATOM     18  C   UNL     1     -21.744  40.899  -7.972  0.00  0.00    +0.000 A 
ATOM     19  C   UNL     1     -19.985  41.985  -6.722  0.00  0.00    +0.000 A 
ATOM     20  C   UNL     1     -22.695  41.452  -7.114  0.00  0.00    +0.000 A 
ATOM     21  C   UNL     1     -20.937  42.537  -5.864  0.00  0.00    +0.000 A 
ATOM     22  C   UNL     1     -22.291  42.271  -6.060  0.00  0.00    +0.000 A 
ENDBRANCH  16  17
ENDBRANCH  15  16
ENDBRANCH  14  15
ENDBRANCH   2  14
TORSDOF 6
ENDMDL
MODEL 2
REMARK VINA RESULT:    -7.179      1.646      2.496
REMARK INTER + INTRA:          -9.959
REMARK INTER:                  -8.966
REMARK INTRA:                  -0.992
REMARK UNBOUND:                -0.471
REMARK  Name = 53334734
REMARK  6 active torsions:
REMARK  status: ('A' for Active; 'I' for Inactive)
REMARK    1  A    between atoms: N_2  and  C_7
REMARK    2  A    between atoms: N_4  and  C_16
REMARK    3  A    between atoms: C_5  and  C_6
REMARK    4  A    between atoms: C_5  and  C_7
REMARK    5  A    between atoms: C_6  and  C_8
REMARK    6  A    between atoms: C_11  and  C_12
REMARK                            x       y       z     vdW  Elec       q    Type
REMARK                         _______ _______ _______ _____ _____    ______ ____
ROOT
ATOM      1  O   UNL     1     -19.747  41.950 -13.277  0.00  0.00    +0.000 OA
ATOM      2  N   UNL     1     -17.469  41.660 -12.950  0.00  0.00    +0.000 N 
ATOM      3  C   UNL     1     -18.620  42.416 -13.137  0.00  0.00    +0.000 C 
ATOM      4  H   UNL     1     -16.575  42.130 -12.849  0.00  0.00    +0.000 HD
ENDROOT
BRANCH   3   6
ATOM      5  N   UNL     1     -18.470  45.968 -14.426  0.00  0.00    +0.000 NA
ATOM      6  C   UNL     1     -18.431  43.889 -13.193  0.00  0.00    +0.000 A 
ATOM      7  C   UNL     1     -18.637  44.630 -14.346  0.00  0.00    +0.000 A 
ATOM      8  C   UNL     1     -18.028  44.568 -12.048  0.00  0.00    +0.000 A 
ATOM      9  C   UNL     1     -17.846  45.946 -12.091  0.00  0.00    +0.000 A 
ATOM     10  C   UNL     1     -18.077  46.593 -13.293  0.00  0.00    +0.000 A 
BRANCH   7  11
ATOM     11  N   UNL     1     -19.046  43.945 -15.518  0.00  0.00    +0.000 N 
ATOM     12  H   UNL     1     -20.006  44.079 -15.808  0.00  0.00    +0.000 HD
ATOM     13  H   UNL     1     -18.357  43.773 -16.242  0.00  0.00    +0.000 HD
ENDBRANCH   7  11
ENDBRANCH   3   6
BRANCH   2  14
ATOM     14  C   UNL     1     -17.485  40.223 -12.899  0.00  0.00    +0.000 C 
BRANCH  14  15
ATOM     15  C   UNL     1     -17.642  39.687 -11.477  0.00  0.00    +0.000 C 
BRANCH  15  16
ATOM     16  C   UNL     1     -17.389  40.725 -10.375  0.00  0.00    +0.000 C 
BRANCH  16  17
ATOM     17  C   UNL     1     -18.557  40.921  -9.442  0.00  0.00    +0.000 A 
ATOM     18  C   UNL     1     -18.502  41.900  -8.450  0.00  0.00    +0.000 A 
ATOM     19  C   UNL     1     -19.694  40.124  -9.573  0.00  0.00    +0.000 A 
ATOM     20  C   UNL     1     -19.583  42.080  -7.587  0.00  0.00    +0.000 A 
ATOM     21  C   UNL     1     -20.775  40.305  -8.710  0.00  0.00    +0.000 A 
ATOM     22  C   UNL     1     -20.720  41.283  -7.717  0.00  0.00    +0.000 A 
ENDBRANCH  16  17
ENDBRANCH  15  16
ENDBRANCH  14  15
ENDBRANCH   2  14
TORSDOF 6
ENDMDL
MODEL 3
REMARK VINA RESULT:    -6.910      1.683      2.482
REMARK INTER + INTRA:          -9.603
REMARK INTER:                  -9.180
REMARK INTRA:                  -0.424
REMARK UNBOUND:                -0.471
REMARK  Name = 53334734
REMARK  6 active torsions:
REMARK  status: ('A' for Active; 'I' for Inactive)
REMARK    1  A    between atoms: N_2  and  C_7
REMARK    2  A    between atoms: N_4  and  C_16
REMARK    3  A    between atoms: C_5  and  C_6
REMARK    4  A    between atoms: C_5  and  C_7
REMARK    5  A    between atoms: C_6  and  C_8
REMARK    6  A    between atoms: C_11  and  C_12
REMARK                            x       y       z     vdW  Elec       q    Type
REMARK                         _______ _______ _______ _____ _____    ______ ____
ROOT
ATOM      1  O   UNL     1     -16.438  42.013 -11.886  0.00  0.00    +0.000 OA
ATOM      2  N   UNL     1     -18.292  42.607 -10.625  0.00  0.00    +0.000 N 
ATOM      3  C   UNL     1     -17.562  42.499 -11.803  0.00  0.00    +0.000 C 
ATOM      4  H   UNL     1     -19.216  43.030 -10.648  0.00  0.00    +0.000 HD
ENDROOT
BRANCH   3   6
ATOM      5  N   UNL     1     -19.638  42.754 -14.953  0.00  0.00    +0.000 NA
ATOM      6  C   UNL     1     -18.210  43.044 -13.024  0.00  0.00    +0.000 A 
ATOM      7  C   UNL     1     -19.040  42.286 -13.835  0.00  0.00    +0.000 A 
ATOM      8  C   UNL     1     -17.981  44.367 -13.384  0.00  0.00    +0.000 A 
ATOM      9  C   UNL     1     -18.579  44.885 -14.527  0.00  0.00    +0.000 A 
ATOM     10  C   UNL     1     -19.392  44.045 -15.271  0.00  0.00    +0.000 A 
BRANCH   7  11
ATOM     11  N   UNL     1     -19.276  40.935 -13.477  0.00  0.00    +0.000 N 
ATOM     12  H   UNL     1     -20.024  40.768 -12.815  0.00  0.00    +0.000 HD
ATOM     13  H   UNL     1     -19.087  40.213 -14.163  0.00  0.00    +0.000 HD
ENDBRANCH   7  11
ENDBRANCH   3   6
BRANCH   2  14
ATOM     14  C   UNL     1     -17.791  42.149  -9.357  0.00  0.00    +0.000 C 
BRANCH  14  15
ATOM     15  C   UNL     1     -18.343  40.780  -8.968  0.00  0.00    +0.000 C 
BRANCH  15  16
ATOM     16  C   UNL     1     -19.861  40.634  -9.136  0.00  0.00    +0.000 C 
BRANCH  16  17
ATOM     17  C   UNL     1     -20.658  41.162  -7.970  0.00  0.00    +0.000 A 
ATOM     18  C   UNL     1     -20.010  41.806  -6.916  0.00  0.00    +0.000 A 
ATOM     19  C   UNL     1     -22.044  41.008  -7.947  0.00  0.00    +0.000 A 
ATOM     20  C   UNL     1     -20.748  42.294  -5.838  0.00  0.00    +0.000 A 
ATOM     21  C   UNL     1     -22.782  41.497  -6.868  0.00  0.00    +0.000 A 
ATOM     22  C   UNL     1     -22.134  42.140  -5.814  0.00  0.00    +0.000 A 
ENDBRANCH  16  17
ENDBRANCH  15  16
ENDBRANCH  14  15
ENDBRANCH   2  14
TORSDOF 6
ENDMDL
MODEL 4
REMARK VINA RESULT:    -6.444      2.885      4.069
REMARK INTER + INTRA:          -8.987
REMARK INTER:                  -8.587
REMARK INTRA:                  -0.400
REMARK UNBOUND:                -0.471
REMARK  Name = 53334734
REMARK  6 active torsions:
REMARK  status: ('A' for Active; 'I' for Inactive)
REMARK    1  A    between atoms: N_2  and  C_7
REMARK    2  A    between atoms: N_4  and  C_16
REMARK    3  A    between atoms: C_5  and  C_6
REMARK    4  A    between atoms: C_5  and  C_7
REMARK    5  A    between atoms: C_6  and  C_8
REMARK    6  A    between atoms: C_11  and  C_12
REMARK                            x       y       z     vdW  Elec       q    Type
REMARK                         _______ _______ _______ _____ _____    ______ ____
ROOT
ATOM      1  O   UNL     1     -18.864  44.420 -13.962  0.00  0.00    +0.000 OA
ATOM      2  N   UNL     1     -19.624  42.231 -14.068  0.00  0.00    +0.000 N 
ATOM      3  C   UNL     1     -19.404  43.505 -14.578  0.00  0.00    +0.000 C 
ATOM      4  H   UNL     1     -20.086  41.536 -14.648  0.00  0.00    +0.000 HD
ENDROOT
BRANCH   3   6
ATOM      5  N   UNL     1     -19.688  44.865 -18.095  0.00  0.00    +0.000 NA
ATOM      6  C   UNL     1     -19.893  43.750 -15.960  0.00  0.00    +0.000 A 
ATOM      7  C   UNL     1     -19.264  44.620 -16.835  0.00  0.00    +0.000 A 
ATOM      8  C   UNL     1     -21.030  43.087 -16.407  0.00  0.00    +0.000 A 
ATOM      9  C   UNL     1     -21.497  43.312 -17.697  0.00  0.00    +0.000 A 
ATOM     10  C   UNL     1     -20.796  44.203 -18.494  0.00  0.00    +0.000 A 
BRANCH   7  11
ATOM     11  N   UNL     1     -18.105  45.302 -16.386  0.00  0.00    +0.000 N 
ATOM     12  H   UNL     1     -17.524  45.725 -17.099  0.00  0.00    +0.000 HD
ATOM     13  H   UNL     1     -18.129  45.749 -15.476  0.00  0.00    +0.000 HD
ENDBRANCH   7  11
ENDBRANCH   3   6
BRANCH   2  14
ATOM     14  C   UNL     1     -19.232  41.848 -12.739  0.00  0.00    +0.000 C 
BRANCH  14  15
ATOM     15  C   UNL     1     -18.833  40.377 -12.646  0.00  0.00    +0.000 C 
BRANCH  15  16
ATOM     16  C   UNL     1     -18.133  39.990 -11.336  0.00  0.00    +0.000 C 
BRANCH  16  17
ATOM     17  C   UNL     1     -18.848  40.468 -10.097  0.00  0.00    +0.000 A 
ATOM     18  C   UNL     1     -20.067  39.899  -9.731  0.00  0.00    +0.000 A 
ATOM     19  C   UNL     1     -18.287  41.480  -9.318  0.00  0.00    +0.000 A 
ATOM     20  C   UNL     1     -20.727  40.343  -8.585  0.00  0.00    +0.000 A 
ATOM     21  C   UNL     1     -18.949  41.923  -8.171  0.00  0.00    +0.000 A 
ATOM     22  C   UNL     1     -20.168  41.355  -7.805  0.00  0.00    +0.000 A 
ENDBRANCH  16  17
ENDBRANCH  15  16
ENDBRANCH  14  15
ENDBRANCH   2  14
TORSDOF 6
ENDMDL
MODEL 5
REMARK VINA RESULT:    -6.142      4.636      7.947
REMARK INTER + INTRA:          -8.588
REMARK INTER:                  -7.977
REMARK INTRA:                  -0.611
REMARK UNBOUND:                -0.471
REMARK  Name = 53334734
REMARK  6 active torsions:
REMARK  status: ('A' for Active; 'I' for Inactive)
REMARK    1  A    between atoms: N_2  and  C_7
REMARK    2  A    between atoms: N_4  and  C_16
REMARK    3  A    between atoms: C_5  and  C_6
REMARK    4  A    between atoms: C_5  and  C_7
REMARK    5  A    between atoms: C_6  and  C_8
REMARK    6  A    between atoms: C_11  and  C_12
REMARK                            x       y       z     vdW  Elec       q    Type
REMARK                         _______ _______ _______ _____ _____    ______ ____
ROOT
ATOM      1  O   UNL     1     -18.877  44.054 -13.293  0.00  0.00    +0.000 OA
ATOM      2  N   UNL     1     -19.398  42.573 -15.001  0.00  0.00    +0.000 N 
ATOM      3  C   UNL     1     -18.954  42.908 -13.727  0.00  0.00    +0.000 C 
ATOM      4  H   UNL     1     -19.423  41.596 -15.278  0.00  0.00    +0.000 HD
ENDROOT
BRANCH   3   6
ATOM      5  N   UNL     1     -16.790  40.544 -11.720  0.00  0.00    +0.000 NA
ATOM      6  C   UNL     1     -18.527  41.776 -12.865  0.00  0.00    +0.000 A 
ATOM      7  C   UNL     1     -17.207  41.567 -12.499  0.00  0.00    +0.000 A 
ATOM      8  C   UNL     1     -19.480  40.876 -12.400  0.00  0.00    +0.000 A 
ATOM      9  C   UNL     1     -19.090  39.811 -11.597  0.00  0.00    +0.000 A 
ATOM     10  C   UNL     1     -17.745  39.691 -11.288  0.00  0.00    +0.000 A 
BRANCH   7  11
ATOM     11  N   UNL     1     -16.228  42.478 -12.970  0.00  0.00    +0.000 N 
ATOM     12  H   UNL     1     -16.256  43.412 -12.581  0.00  0.00    +0.000 HD
ATOM     13  H   UNL     1     -15.325  42.115 -13.251  0.00  0.00    +0.000 HD
ENDBRANCH   7  11
ENDBRANCH   3   6
BRANCH   2  14
ATOM     14  C   UNL     1     -19.821  43.558 -15.959  0.00  0.00    +0.000 C 
BRANCH  14  15
ATOM     15  C   UNL     1     -21.306  43.450 -16.295  0.00  0.00    +0.000 C 
BRANCH  15  16
ATOM     16  C   UNL     1     -21.677  43.936 -17.703  0.00  0.00    +0.000 C 
BRANCH  16  17
ATOM     17  C   UNL     1     -22.620  45.113 -17.714  0.00  0.00    +0.000 A 
ATOM     18  C   UNL     1     -23.957  44.940 -17.354  0.00  0.00    +0.000 A 
ATOM     19  C   UNL     1     -22.154  46.375 -18.082  0.00  0.00    +0.000 A 
ATOM     20  C   UNL     1     -24.828  46.029 -17.364  0.00  0.00    +0.000 A 
ATOM     21  C   UNL     1     -23.027  47.464 -18.092  0.00  0.00    +0.000 A 
ATOM     22  C   UNL     1     -24.363  47.291 -17.733  0.00  0.00    +0.000 A 
ENDBRANCH  16  17
ENDBRANCH  15  16
ENDBRANCH  14  15
ENDBRANCH   2  14
TORSDOF 6
ENDMDL
