MODEL 1
REMARK VINA RESULT:    -6.907      0.000      0.000
REMARK INTER + INTRA:          -9.207
REMARK INTER:                  -8.724
REMARK INTRA:                  -0.483
REMARK UNBOUND:                -0.483
REMARK  Name = 53334742
REMARK  5 active torsions:
REMARK  status: ('A' for Active; 'I' for Inactive)
REMARK    1  A    between atoms: N_2  and  C_10
REMARK    2  A    between atoms: N_3  and  C_11
REMARK    3  A    between atoms: N_5  and  C_14
REMARK    4  A    between atoms: C_10  and  C_11
REMARK    5  A    between atoms: C_12  and  C_13
REMARK                            x       y       z     vdW  Elec       q    Type
REMARK                         _______ _______ _______ _____ _____    ______ ____
ROOT
ATOM      1  O   UNL     1     -18.393  40.551  -8.546  0.00  0.00    +0.000 OA
ATOM      2  N   UNL     1     -19.903  39.975 -10.210  0.00  0.00    +0.000 N 
ATOM      3  C   UNL     1     -19.543  40.500  -8.974  0.00  0.00    +0.000 C 
ATOM      4  H   UNL     1     -20.884  39.954 -10.476  0.00  0.00    +0.000 HD
ENDROOT
BRANCH   3   6
ATOM      5  N   UNL     1     -21.519  42.581  -6.512  0.00  0.00    +0.000 NA
ATOM      6  C   UNL     1     -20.655  41.004  -8.129  0.00  0.00    +0.000 A 
ATOM      7  C   UNL     1     -20.525  42.103  -7.294  0.00  0.00    +0.000 A 
ATOM      8  C   UNL     1     -21.884  40.354  -8.163  0.00  0.00    +0.000 A 
ATOM      9  C   UNL     1     -22.931  40.817  -7.372  0.00  0.00    +0.000 A 
ATOM     10  C   UNL     1     -22.698  41.923  -6.572  0.00  0.00    +0.000 A 
BRANCH   7  11
ATOM     11  N   UNL     1     -19.274  42.768  -7.253  0.00  0.00    +0.000 N 
ATOM     12  H   UNL     1     -18.950  43.064  -6.339  0.00  0.00    +0.000 HD
ATOM     13  H   UNL     1     -18.575  42.529  -7.944  0.00  0.00    +0.000 HD
ENDBRANCH   7  11
ENDBRANCH   3   6
BRANCH   2  14
ATOM     14  C   UNL     1     -18.944  39.426 -11.130  0.00  0.00    +0.000 C 
BRANCH  14  15
ATOM     15  C   UNL     1     -19.376  39.643 -12.572  0.00  0.00    +0.000 C 
BRANCH  15  16
ATOM     16  N   UNL     1     -18.603  40.718 -13.176  0.00  0.00    +0.000 NA
ATOM     17  C   UNL     1     -17.372  41.003 -12.439  0.00  0.00    +0.000 C 
ATOM     18  C   UNL     1     -19.333  41.985 -13.201  0.00  0.00    +0.000 C 
ATOM     19  C   UNL     1     -16.950  42.356 -12.991  0.00  0.00    +0.000 C 
ATOM     20  C   UNL     1     -18.239  43.003 -13.489  0.00  0.00    +0.000 C 
ENDBRANCH  15  16
ENDBRANCH  14  15
ENDBRANCH   2  14
TORSDOF 5
ENDMDL
MODEL 2
REMARK VINA RESULT:    -6.386      2.123      6.432
REMARK INTER + INTRA:          -8.549
REMARK INTER:                  -8.185
REMARK INTRA:                  -0.364
REMARK UNBOUND:                -0.483
REMARK  Name = 53334742
REMARK  5 active torsions:
REMARK  status: ('A' for Active; 'I' for Inactive)
REMARK    1  A    between atoms: N_2  and  C_10
REMARK    2  A    between atoms: N_3  and  C_11
REMARK    3  A    between atoms: N_5  and  C_14
REMARK    4  A    between atoms: C_10  and  C_11
REMARK    5  A    between atoms: C_12  and  C_13
REMARK                            x       y       z     vdW  Elec       q    Type
REMARK                         _______ _______ _______ _____ _____    ______ ____
ROOT
ATOM      1  O   UNL     1     -19.733  40.779 -13.067  0.00  0.00    +0.000 OA
ATOM      2  N   UNL     1     -18.974  41.456 -10.982  0.00  0.00    +0.000 N 
ATOM      3  C   UNL     1     -19.186  41.610 -12.347  0.00  0.00    +0.000 C 
ATOM      4  H   UNL     1     -18.493  42.188 -10.467  0.00  0.00    +0.000 HD
ENDROOT
BRANCH   3   6
ATOM      5  N   UNL     1     -18.858  44.635 -14.592  0.00  0.00    +0.000 NA
ATOM      6  C   UNL     1     -18.679  42.870 -12.950  0.00  0.00    +0.000 A 
ATOM      7  C   UNL     1     -19.298  43.491 -14.023  0.00  0.00    +0.000 A 
ATOM      8  C   UNL     1     -17.534  43.462 -12.427  0.00  0.00    +0.000 A 
ATOM      9  C   UNL     1     -17.050  44.639 -12.986  0.00  0.00    +0.000 A 
ATOM     10  C   UNL     1     -17.742  45.180 -14.057  0.00  0.00    +0.000 A 
BRANCH   7  11
ATOM     11  N   UNL     1     -20.465  42.891 -14.562  0.00  0.00    +0.000 N 
ATOM     12  H   UNL     1     -21.109  42.480 -13.897  0.00  0.00    +0.000 HD
ATOM     13  H   UNL     1     -20.850  43.266 -15.419  0.00  0.00    +0.000 HD
ENDBRANCH   7  11
ENDBRANCH   3   6
BRANCH   2  14
ATOM     14  C   UNL     1     -19.384  40.282 -10.260  0.00  0.00    +0.000 C 
BRANCH  14  15
ATOM     15  C   UNL     1     -19.235  40.478  -8.759  0.00  0.00    +0.000 C 
BRANCH  15  16
ATOM     16  N   UNL     1     -20.285  41.350  -8.256  0.00  0.00    +0.000 NA
ATOM     17  C   UNL     1     -19.978  41.890  -6.932  0.00  0.00    +0.000 C 
ATOM     18  C   UNL     1     -21.561  40.652  -8.095  0.00  0.00    +0.000 C 
ATOM     19  C   UNL     1     -21.323  42.420  -6.459  0.00  0.00    +0.000 C 
ATOM     20  C   UNL     1     -22.363  41.604  -7.222  0.00  0.00    +0.000 C 
ENDBRANCH  15  16
ENDBRANCH  14  15
ENDBRANCH   2  14
TORSDOF 5
ENDMDL
MODEL 3
REMARK VINA RESULT:    -6.302      1.486      2.191
REMARK INTER + INTRA:          -8.443
REMARK INTER:                  -7.828
REMARK INTRA:                  -0.614
REMARK UNBOUND:                -0.483
REMARK  Name = 53334742
REMARK  5 active torsions:
REMARK  status: ('A' for Active; 'I' for Inactive)
REMARK    1  A    between atoms: N_2  and  C_10
REMARK    2  A    between atoms: N_3  and  C_11
REMARK    3  A    between atoms: N_5  and  C_14
REMARK    4  A    between atoms: C_10  and  C_11
REMARK    5  A    between atoms: C_12  and  C_13
REMARK                            x       y       z     vdW  Elec       q    Type
REMARK                         _______ _______ _______ _____ _____    ______ ____
ROOT
ATOM      1  O   UNL     1     -18.724  39.357 -10.468  0.00  0.00    +0.000 OA
ATOM      2  N   UNL     1     -19.793  41.112 -11.545  0.00  0.00    +0.000 N 
ATOM      3  C   UNL     1     -19.380  40.395 -10.428  0.00  0.00    +0.000 C 
ATOM      4  H   UNL     1     -20.352  41.951 -11.420  0.00  0.00    +0.000 HD
ENDROOT
BRANCH   3   6
ATOM      5  N   UNL     1     -19.370  42.316  -7.171  0.00  0.00    +0.000 NA
ATOM      6  C   UNL     1     -19.800  40.938  -9.111  0.00  0.00    +0.000 A 
ATOM      7  C   UNL     1     -19.014  41.809  -8.373  0.00  0.00    +0.000 A 
ATOM      8  C   UNL     1     -21.030  40.562  -8.581  0.00  0.00    +0.000 A 
ATOM      9  C   UNL     1     -21.430  41.062  -7.347  0.00  0.00    +0.000 A 
ATOM     10  C   UNL     1     -20.572  41.928  -6.689  0.00  0.00    +0.000 A 
BRANCH   7  11
ATOM     11  N   UNL     1     -17.759  42.194  -8.906  0.00  0.00    +0.000 N 
ATOM     12  H   UNL     1     -17.483  41.751  -9.775  0.00  0.00    +0.000 HD
ATOM     13  H   UNL     1     -17.424  43.133  -8.731  0.00  0.00    +0.000 HD
ENDBRANCH   7  11
ENDBRANCH   3   6
BRANCH   2  14
ATOM     14  C   UNL     1     -19.487  40.701 -12.889  0.00  0.00    +0.000 C 
BRANCH  14  15
ATOM     15  C   UNL     1     -18.715  41.779 -13.633  0.00  0.00    +0.000 C 
BRANCH  15  16
ATOM     16  N   UNL     1     -18.019  42.644 -12.692  0.00  0.00    +0.000 NA
ATOM     17  C   UNL     1     -18.137  44.059 -13.040  0.00  0.00    +0.000 C 
ATOM     18  C   UNL     1     -16.580  42.381 -12.651  0.00  0.00    +0.000 C 
ATOM     19  C   UNL     1     -17.054  44.710 -12.193  0.00  0.00    +0.000 C 
ATOM     20  C   UNL     1     -16.030  43.608 -11.940  0.00  0.00    +0.000 C 
ENDBRANCH  15  16
ENDBRANCH  14  15
ENDBRANCH   2  14
TORSDOF 5
ENDMDL
MODEL 4
REMARK VINA RESULT:    -6.076      2.664      3.851
REMARK INTER + INTRA:          -8.158
REMARK INTER:                  -7.612
REMARK INTRA:                  -0.546
REMARK UNBOUND:                -0.483
REMARK  Name = 53334742
REMARK  5 active torsions:
REMARK  status: ('A' for Active; 'I' for Inactive)
REMARK    1  A    between atoms: N_2  and  C_10
REMARK    2  A    between atoms: N_3  and  C_11
REMARK    3  A    between atoms: N_5  and  C_14
REMARK    4  A    between atoms: C_10  and  C_11
REMARK    5  A    between atoms: C_12  and  C_13
REMARK                            x       y       z     vdW  Elec       q    Type
REMARK                         _______ _______ _______ _____ _____    ______ ____
ROOT
ATOM      1  O   UNL     1     -17.154  40.074 -10.413  0.00  0.00    +0.000 OA
ATOM      2  N   UNL     1     -17.164  42.389 -10.555  0.00  0.00    +0.000 N 
ATOM      3  C   UNL     1     -17.634  41.161 -10.105  0.00  0.00    +0.000 C 
ATOM      4  H   UNL     1     -17.636  43.241 -10.264  0.00  0.00    +0.000 HD
ENDROOT
BRANCH   3   6
ATOM      5  N   UNL     1     -21.043  40.457  -8.627  0.00  0.00    +0.000 NA
ATOM      6  C   UNL     1     -18.818  41.204  -9.208  0.00  0.00    +0.000 A 
ATOM      7  C   UNL     1     -19.951  40.436  -9.424  0.00  0.00    +0.000 A 
ATOM      8  C   UNL     1     -18.804  42.046  -8.101  0.00  0.00    +0.000 A 
ATOM      9  C   UNL     1     -19.908  42.095  -7.258  0.00  0.00    +0.000 A 
ATOM     10  C   UNL     1     -20.992  41.288  -7.562  0.00  0.00    +0.000 A 
BRANCH   7  11
ATOM     11  N   UNL     1     -19.973  39.578 -10.552  0.00  0.00    +0.000 N 
ATOM     12  H   UNL     1     -19.212  39.681 -11.212  0.00  0.00    +0.000 HD
ATOM     13  H   UNL     1     -20.390  38.660 -10.455  0.00  0.00    +0.000 HD
ENDBRANCH   7  11
ENDBRANCH   3   6
BRANCH   2  14
ATOM     14  C   UNL     1     -16.043  42.512 -11.447  0.00  0.00    +0.000 C 
BRANCH  14  15
ATOM     15  C   UNL     1     -16.266  43.623 -12.462  0.00  0.00    +0.000 C 
BRANCH  15  16
ATOM     16  N   UNL     1     -16.797  44.808 -11.807  0.00  0.00    +0.000 NA
ATOM     17  C   UNL     1     -18.059  45.255 -12.395  0.00  0.00    +0.000 C 
ATOM     18  C   UNL     1     -15.898  45.958 -11.919  0.00  0.00    +0.000 C 
ATOM     19  C   UNL     1     -18.212  46.664 -11.844  0.00  0.00    +0.000 C 
ATOM     20  C   UNL     1     -16.792  47.127 -11.534  0.00  0.00    +0.000 C 
ENDBRANCH  15  16
ENDBRANCH  14  15
ENDBRANCH   2  14
TORSDOF 5
ENDMDL
MODEL 5
REMARK VINA RESULT:    -5.969      4.138      6.301
REMARK INTER + INTRA:          -8.022
REMARK INTER:                  -7.461
REMARK INTRA:                  -0.560
REMARK UNBOUND:                -0.483
REMARK  Name = 53334742
REMARK  5 active torsions:
REMARK  status: ('A' for Active; 'I' for Inactive)
REMARK    1  A    between atoms: N_2  and  C_10
REMARK    2  A    between atoms: N_3  and  C_11
REMARK    3  A    between atoms: N_5  and  C_14
REMARK    4  A    between atoms: C_10  and  C_11
REMARK    5  A    between atoms: C_12  and  C_13
REMARK                            x       y       z     vdW  Elec       q    Type
REMARK                         _______ _______ _______ _____ _____    ______ ____
ROOT
ATOM      1  O   UNL     1     -18.650  44.079 -13.249  0.00  0.00    +0.000 OA
ATOM      2  N   UNL     1     -19.288  42.676 -14.983  0.00  0.00    +0.000 N 
ATOM      3  C   UNL     1     -18.810  42.950 -13.707  0.00  0.00    +0.000 C 
ATOM      4  H   UNL     1     -19.370  41.710 -15.287  0.00  0.00    +0.000 HD
ENDROOT
BRANCH   3   6
ATOM      5  N   UNL     1     -16.803  40.435 -11.720  0.00  0.00    +0.000 NA
ATOM      6  C   UNL     1     -18.455  41.772 -12.875  0.00  0.00    +0.000 A 
ATOM      7  C   UNL     1     -17.156  41.500 -12.474  0.00  0.00    +0.000 A 
ATOM      8  C   UNL     1     -19.456  40.894 -12.474  0.00  0.00    +0.000 A 
ATOM      9  C   UNL     1     -19.133  39.787 -11.698  0.00  0.00    +0.000 A 
ATOM     10  C   UNL     1     -17.804  39.604 -11.351  0.00  0.00    +0.000 A 
BRANCH   7  11
ATOM     11  N   UNL     1     -16.130  42.389 -12.881  0.00  0.00    +0.000 N 
ATOM     12  H   UNL     1     -16.297  43.375 -12.720  0.00  0.00    +0.000 HD
ATOM     13  H   UNL     1     -15.171  42.066 -12.860  0.00  0.00    +0.000 HD
ENDBRANCH   7  11
ENDBRANCH   3   6
BRANCH   2  14
ATOM     14  C   UNL     1     -19.650  43.709 -15.915  0.00  0.00    +0.000 C 
BRANCH  14  15
ATOM     15  C   UNL     1     -20.281  43.123 -17.169  0.00  0.00    +0.000 C 
BRANCH  15  16
ATOM     16  N   UNL     1     -21.461  43.886 -17.547  0.00  0.00    +0.000 NA
ATOM     17  C   UNL     1     -21.185  45.317 -17.669  0.00  0.00    +0.000 C 
ATOM     18  C   UNL     1     -22.530  43.789 -16.553  0.00  0.00    +0.000 C 
ATOM     19  C   UNL     1     -22.576  45.933 -17.676  0.00  0.00    +0.000 C 
ATOM     20  C   UNL     1     -23.459  44.930 -16.939  0.00  0.00    +0.000 C 
ENDBRANCH  15  16
ENDBRANCH  14  15
ENDBRANCH   2  14
TORSDOF 5
ENDMDL
