MODEL 1
REMARK VINA RESULT:    -6.514      0.000      0.000
REMARK INTER + INTRA:          -7.886
REMARK INTER:                  -7.466
REMARK INTRA:                  -0.421
REMARK UNBOUND:                -0.421
REMARK  Name = 53334698
REMARK  3 active torsions:
REMARK  status: ('A' for Active; 'I' for Inactive)
REMARK    1  A    between atoms: N_2  and  C_5
REMARK    2  A    between atoms: N_4  and  C_14
REMARK    3  A    between atoms: C_12  and  C_13
REMARK                            x       y       z     vdW  Elec       q    Type
REMARK                         _______ _______ _______ _____ _____    ______ ____
ROOT
ATOM      1  O   UNL     1     -21.105  39.494  -8.821  0.00  0.00    +0.000 OA
ATOM      2  N   UNL     1     -19.535  41.140  -9.268  0.00  0.00    +0.000 N 
ATOM      3  C   UNL     1     -20.577  40.570  -8.557  0.00  0.00    +0.000 C 
ATOM      4  H   UNL     1     -19.204  42.066  -9.012  0.00  0.00    +0.000 HD
ENDROOT
BRANCH   2   5
ATOM      5  C   UNL     1     -18.948  40.499 -10.428  0.00  0.00    +0.000 C 
ATOM      6  C   UNL     1     -19.699  40.939 -11.689  0.00  0.00    +0.000 C 
ATOM      7  C   UNL     1     -17.429  40.699 -10.430  0.00  0.00    +0.000 C 
ATOM      8  C   UNL     1     -18.978  40.657 -13.003  0.00  0.00    +0.000 C 
ATOM      9  C   UNL     1     -16.947  42.001 -11.070  0.00  0.00    +0.000 C 
ATOM     10  C   UNL     1     -18.024  41.781 -13.405  0.00  0.00    +0.000 C 
ATOM     11  C   UNL     1     -16.745  41.875 -12.580  0.00  0.00    +0.000 C 
ENDBRANCH   2   5
BRANCH   3  13
ATOM     12  N   UNL     1     -22.914  42.126  -6.024  0.00  0.00    +0.000 NA
ATOM     13  C   UNL     1     -21.085  41.365  -7.410  0.00  0.00    +0.000 A 
ATOM     14  C   UNL     1     -22.424  41.409  -7.061  0.00  0.00    +0.000 A 
ATOM     15  C   UNL     1     -20.190  42.107  -6.645  0.00  0.00    +0.000 A 
ATOM     16  C   UNL     1     -20.655  42.856  -5.571  0.00  0.00    +0.000 A 
ATOM     17  C   UNL     1     -22.014  42.833  -5.304  0.00  0.00    +0.000 A 
BRANCH  14  18
ATOM     18  N   UNL     1     -23.345  40.659  -7.836  0.00  0.00    +0.000 N 
ATOM     19  H   UNL     1     -23.338  40.828  -8.835  0.00  0.00    +0.000 HD
ATOM     20  H   UNL     1     -23.605  39.734  -7.518  0.00  0.00    +0.000 HD
ENDBRANCH  14  18
ENDBRANCH   3  13
TORSDOF 3
ENDMDL
MODEL 2
REMARK VINA RESULT:    -5.986      5.005      7.135
REMARK INTER + INTRA:          -7.281
REMARK INTER:                  -6.732
REMARK INTRA:                  -0.549
REMARK UNBOUND:                -0.421
REMARK  Name = 53334698
REMARK  3 active torsions:
REMARK  status: ('A' for Active; 'I' for Inactive)
REMARK    1  A    between atoms: N_2  and  C_5
REMARK    2  A    between atoms: N_4  and  C_14
REMARK    3  A    between atoms: C_12  and  C_13
REMARK                            x       y       z     vdW  Elec       q    Type
REMARK                         _______ _______ _______ _____ _____    ______ ____
ROOT
ATOM      1  O   UNL     1     -19.012  44.149 -13.061  0.00  0.00    +0.000 OA
ATOM      2  N   UNL     1     -19.791  42.815 -14.789  0.00  0.00    +0.000 N 
ATOM      3  C   UNL     1     -19.167  43.045 -13.575  0.00  0.00    +0.000 C 
ATOM      4  H   UNL     1     -19.817  41.871 -15.165  0.00  0.00    +0.000 HD
ENDROOT
BRANCH   2   5
ATOM      5  C   UNL     1     -20.339  43.889 -15.593  0.00  0.00    +0.000 C 
ATOM      6  C   UNL     1     -19.232  44.493 -16.462  0.00  0.00    +0.000 C 
ATOM      7  C   UNL     1     -21.599  43.411 -16.324  0.00  0.00    +0.000 C 
ATOM      8  C   UNL     1     -19.716  45.361 -17.619  0.00  0.00    +0.000 C 
ATOM      9  C   UNL     1     -21.349  42.715 -17.661  0.00  0.00    +0.000 C 
ATOM     10  C   UNL     1     -20.008  44.551 -18.881  0.00  0.00    +0.000 C 
ATOM     11  C   UNL     1     -21.270  43.696 -18.830  0.00  0.00    +0.000 C 
ENDBRANCH   2   5
BRANCH   3  13
ATOM     12  N   UNL     1     -16.766  40.517 -12.111  0.00  0.00    +0.000 NA
ATOM     13  C   UNL     1     -18.634  41.842 -12.886  0.00  0.00    +0.000 A 
ATOM     14  C   UNL     1     -17.279  41.604 -12.731  0.00  0.00    +0.000 A 
ATOM     15  C   UNL     1     -19.522  40.903 -12.371  0.00  0.00    +0.000 A 
ATOM     16  C   UNL     1     -19.034  39.773 -11.726  0.00  0.00    +0.000 A 
ATOM     17  C   UNL     1     -17.660  39.627 -11.624  0.00  0.00    +0.000 A 
BRANCH  14  18
ATOM     18  N   UNL     1     -16.366  42.554 -13.256  0.00  0.00    +0.000 N 
ATOM     19  H   UNL     1     -16.479  42.800 -14.232  0.00  0.00    +0.000 HD
ATOM     20  H   UNL     1     -15.992  43.261 -12.634  0.00  0.00    +0.000 HD
ENDBRANCH  14  18
ENDBRANCH   3  13
TORSDOF 3
ENDMDL
MODEL 3
REMARK VINA RESULT:    -5.985      3.187      4.520
REMARK INTER + INTRA:          -7.280
REMARK INTER:                  -6.704
REMARK INTRA:                  -0.576
REMARK UNBOUND:                -0.421
REMARK  Name = 53334698
REMARK  3 active torsions:
REMARK  status: ('A' for Active; 'I' for Inactive)
REMARK    1  A    between atoms: N_2  and  C_5
REMARK    2  A    between atoms: N_4  and  C_14
REMARK    3  A    between atoms: C_12  and  C_13
REMARK                            x       y       z     vdW  Elec       q    Type
REMARK                         _______ _______ _______ _____ _____    ______ ____
ROOT
ATOM      1  O   UNL     1     -17.091  41.119 -12.023  0.00  0.00    +0.000 OA
ATOM      2  N   UNL     1     -18.054  43.180 -11.578  0.00  0.00    +0.000 N 
ATOM      3  C   UNL     1     -17.841  41.829 -11.360  0.00  0.00    +0.000 C 
ATOM      4  H   UNL     1     -18.743  43.672 -11.016  0.00  0.00    +0.000 HD
ENDROOT
BRANCH   2   5
ATOM      5  C   UNL     1     -17.391  43.906 -12.643  0.00  0.00    +0.000 C 
ATOM      6  C   UNL     1     -18.435  44.405 -13.647  0.00  0.00    +0.000 C 
ATOM      7  C   UNL     1     -16.448  44.960 -12.055  0.00  0.00    +0.000 C 
ATOM      8  C   UNL     1     -17.948  45.489 -14.603  0.00  0.00    +0.000 C 
ATOM      9  C   UNL     1     -17.099  46.303 -11.725  0.00  0.00    +0.000 C 
ATOM     10  C   UNL     1     -18.102  46.896 -14.027  0.00  0.00    +0.000 C 
ATOM     11  C   UNL     1     -17.119  47.257 -12.918  0.00  0.00    +0.000 C 
ENDBRANCH   2   5
BRANCH   3  13
ATOM     12  N   UNL     1     -20.189  39.582  -9.428  0.00  0.00    +0.000 NA
ATOM     13  C   UNL     1     -18.616  41.226 -10.246  0.00  0.00    +0.000 A 
ATOM     14  C   UNL     1     -19.469  40.149 -10.422  0.00  0.00    +0.000 A 
ATOM     15  C   UNL     1     -18.494  41.756  -8.966  0.00  0.00    +0.000 A 
ATOM     16  C   UNL     1     -19.217  41.200  -7.917  0.00  0.00    +0.000 A 
ATOM     17  C   UNL     1     -20.044  40.124  -8.198  0.00  0.00    +0.000 A 
BRANCH  14  18
ATOM     18  N   UNL     1     -19.602  39.605 -11.725  0.00  0.00    +0.000 N 
ATOM     19  H   UNL     1     -20.488  39.164 -11.943  0.00  0.00    +0.000 HD
ATOM     20  H   UNL     1     -19.094  40.039 -12.486  0.00  0.00    +0.000 HD
ENDBRANCH  14  18
ENDBRANCH   3  13
TORSDOF 3
ENDMDL
MODEL 4
REMARK VINA RESULT:    -5.866      5.298      7.906
REMARK INTER + INTRA:          -7.144
REMARK INTER:                  -6.601
REMARK INTRA:                  -0.543
REMARK UNBOUND:                -0.421
REMARK  Name = 53334698
REMARK  3 active torsions:
REMARK  status: ('A' for Active; 'I' for Inactive)
REMARK    1  A    between atoms: N_2  and  C_5
REMARK    2  A    between atoms: N_4  and  C_14
REMARK    3  A    between atoms: C_12  and  C_13
REMARK                            x       y       z     vdW  Elec       q    Type
REMARK                         _______ _______ _______ _____ _____    ______ ____
ROOT
ATOM      1  O   UNL     1     -20.888  42.685 -14.649  0.00  0.00    +0.000 OA
ATOM      2  N   UNL     1     -18.641  42.904 -14.122  0.00  0.00    +0.000 N 
ATOM      3  C   UNL     1     -19.767  43.119 -14.898  0.00  0.00    +0.000 C 
ATOM      4  H   UNL     1     -17.742  43.251 -14.442  0.00  0.00    +0.000 HD
ENDROOT
BRANCH   2   5
ATOM      5  C   UNL     1     -18.680  42.119 -12.903  0.00  0.00    +0.000 C 
ATOM      6  C   UNL     1     -18.460  40.641 -13.240  0.00  0.00    +0.000 C 
ATOM      7  C   UNL     1     -17.746  42.729 -11.853  0.00  0.00    +0.000 C 
ATOM      8  C   UNL     1     -18.099  39.753 -12.053  0.00  0.00    +0.000 C 
ATOM      9  C   UNL     1     -16.288  42.278 -11.941  0.00  0.00    +0.000 C 
ATOM     10  C   UNL     1     -16.597  39.722 -11.775  0.00  0.00    +0.000 C 
ATOM     11  C   UNL     1     -16.022  40.992 -11.158  0.00  0.00    +0.000 C 
ENDBRANCH   2   5
BRANCH   3  13
ATOM     12  N   UNL     1     -19.785  44.203 -18.521  0.00  0.00    +0.000 NA
ATOM     13  C   UNL     1     -19.556  43.921 -16.130  0.00  0.00    +0.000 A 
ATOM     14  C   UNL     1     -19.967  43.495 -17.383  0.00  0.00    +0.000 A 
ATOM     15  C   UNL     1     -18.916  45.153 -16.041  0.00  0.00    +0.000 A 
ATOM     16  C   UNL     1     -18.712  45.910 -17.188  0.00  0.00    +0.000 A 
ATOM     17  C   UNL     1     -19.160  45.395 -18.394  0.00  0.00    +0.000 A 
BRANCH  14  18
ATOM     18  N   UNL     1     -20.616  42.239 -17.484  0.00  0.00    +0.000 N 
ATOM     19  H   UNL     1     -20.461  41.586 -16.726  0.00  0.00    +0.000 HD
ATOM     20  H   UNL     1     -21.502  42.190 -17.972  0.00  0.00    +0.000 HD
ENDBRANCH  14  18
ENDBRANCH   3  13
TORSDOF 3
ENDMDL
MODEL 5
REMARK VINA RESULT:    -5.787      4.941      7.978
REMARK INTER + INTRA:          -7.054
REMARK INTER:                  -6.658
REMARK INTRA:                  -0.395
REMARK UNBOUND:                -0.421
REMARK  Name = 53334698
REMARK  3 active torsions:
REMARK  status: ('A' for Active; 'I' for Inactive)
REMARK    1  A    between atoms: N_2  and  C_5
REMARK    2  A    between atoms: N_4  and  C_14
REMARK    3  A    between atoms: C_12  and  C_13
REMARK                            x       y       z     vdW  Elec       q    Type
REMARK                         _______ _______ _______ _____ _____    ______ ____
ROOT
ATOM      1  O   UNL     1     -18.244  44.572 -14.548  0.00  0.00    +0.000 OA
ATOM      2  N   UNL     1     -18.947  42.371 -14.358  0.00  0.00    +0.000 N 
ATOM      3  C   UNL     1     -18.969  43.646 -14.898  0.00  0.00    +0.000 C 
ATOM      4  H   UNL     1     -19.630  41.686 -14.670  0.00  0.00    +0.000 HD
ENDROOT
BRANCH   2   5
ATOM      5  C   UNL     1     -18.037  41.998 -13.293  0.00  0.00    +0.000 C 
ATOM      6  C   UNL     1     -18.463  42.686 -11.993  0.00  0.00    +0.000 C 
ATOM      7  C   UNL     1     -17.881  40.474 -13.243  0.00  0.00    +0.000 C 
ATOM      8  C   UNL     1     -17.848  42.107 -10.722  0.00  0.00    +0.000 C 
ATOM      9  C   UNL     1     -18.938  39.741 -12.418  0.00  0.00    +0.000 C 
ATOM     10  C   UNL     1     -18.658  40.943 -10.153  0.00  0.00    +0.000 C 
ATOM     11  C   UNL     1     -18.566  39.640 -10.939  0.00  0.00    +0.000 C 
ENDBRANCH   2   5
BRANCH   3  13
ATOM     12  N   UNL     1     -20.586  44.776 -18.124  0.00  0.00    +0.000 NA
ATOM     13  C   UNL     1     -19.977  43.877 -15.964  0.00  0.00    +0.000 A 
ATOM     14  C   UNL     1     -19.687  44.549 -17.139  0.00  0.00    +0.000 A 
ATOM     15  C   UNL     1     -21.275  43.408 -15.787  0.00  0.00    +0.000 A 
ATOM     16  C   UNL     1     -22.227  43.620 -16.777  0.00  0.00    +0.000 A 
ATOM     17  C   UNL     1     -21.836  44.305 -17.916  0.00  0.00    +0.000 A 
BRANCH  14  18
ATOM     18  N   UNL     1     -18.368  45.034 -17.327  0.00  0.00    +0.000 N 
ATOM     19  H   UNL     1     -18.170  45.474 -18.217  0.00  0.00    +0.000 HD
ATOM     20  H   UNL     1     -17.851  45.356 -16.518  0.00  0.00    +0.000 HD
ENDBRANCH  14  18
ENDBRANCH   3  13
TORSDOF 3
ENDMDL
