MODEL 1
REMARK VINA RESULT:    -5.791      0.000      0.000
REMARK INTER + INTRA:          -8.447
REMARK INTER:                  -7.822
REMARK INTRA:                  -0.625
REMARK UNBOUND:                -0.625
REMARK  Name = 53388495
REMARK  10 active torsions:
REMARK  status: ('A' for Active; 'I' for Inactive)
REMARK    1  A    between atoms: N_2  and  C_6
REMARK    2  A    between atoms: N_2  and  C_7
REMARK    3  A    between atoms: N_2  and  C_8
REMARK    4  A    between atoms: N_3  and  C_9
REMARK    5  A    between atoms: N_4  and  C_18
REMARK    6  A    between atoms: N_4  and  C_19
REMARK    7  A    between atoms: C_6  and  C_9
REMARK    8  A    between atoms: C_7  and  C_10
REMARK    9  A    between atoms: C_8  and  C_11
REMARK   10  A    between atoms: C_12  and  C_13
REMARK                            x       y       z     vdW  Elec       q    Type
REMARK                         _______ _______ _______ _____ _____    ______ ____
ROOT
ATOM      1  O   UNL     1     -17.141  41.050 -13.202  0.00  0.00    +0.000 OA
ATOM      2  N   UNL     1     -19.380  40.920 -12.614  0.00  0.00    +0.000 N 
ATOM      3  C   UNL     1     -18.280  41.510 -13.222  0.00  0.00    +0.000 C 
ATOM      4  H   UNL     1     -20.304  41.328 -12.714  0.00  0.00    +0.000 HD
ENDROOT
BRANCH   3   7
ATOM      5  N   UNL     1     -19.287  46.353 -15.912  0.00  0.00    +0.000 N 
ATOM      6  N   UNL     1     -19.699  44.021 -15.644  0.00  0.00    +0.000 NA
ATOM      7  C   UNL     1     -18.530  42.799 -13.917  0.00  0.00    +0.000 A 
ATOM      8  C   UNL     1     -17.870  43.961 -13.531  0.00  0.00    +0.000 A 
ATOM      9  C   UNL     1     -19.039  45.130 -15.241  0.00  0.00    +0.000 A 
ATOM     10  C   UNL     1     -19.426  42.882 -14.970  0.00  0.00    +0.000 A 
ATOM     11  C   UNL     1     -18.124  45.153 -14.200  0.00  0.00    +0.000 A 
ATOM     12  C   UNL     1     -20.224  46.401 -17.012  0.00  0.00    +0.000 C 
ATOM     13  C   UNL     1     -18.599  47.558 -15.507  0.00  0.00    +0.000 C 
ENDBRANCH   3   7
BRANCH   2  14
ATOM     14  C   UNL     1     -19.294  39.685 -11.882  0.00  0.00    +0.000 C 
BRANCH  14  15
ATOM     15  C   UNL     1     -18.719  39.906 -10.491  0.00  0.00    +0.000 C 
BRANCH  15  16
ATOM     16  N   UNL     1     -19.549  40.847  -9.741  0.00  0.00    +0.000 NA
BRANCH  16  17
ATOM     17  C   UNL     1     -20.533  40.129  -8.932  0.00  0.00    +0.000 C 
ATOM     18  C   UNL     1     -21.299  41.080  -8.027  0.00  0.00    +0.000 C 
ENDBRANCH  16  17
BRANCH  16  19
ATOM     19  C   UNL     1     -18.717  41.702  -8.895  0.00  0.00    +0.000 C 
ATOM     20  C   UNL     1     -17.793  42.570  -9.734  0.00  0.00    +0.000 C 
ENDBRANCH  16  19
ENDBRANCH  15  16
ENDBRANCH  14  15
ENDBRANCH   2  14
TORSDOF 6
ENDMDL
MODEL 2
REMARK VINA RESULT:    -5.569      2.834      4.434
REMARK INTER + INTRA:          -8.147
REMARK INTER:                  -7.816
REMARK INTRA:                  -0.332
REMARK UNBOUND:                -0.625
REMARK  Name = 53388495
REMARK  10 active torsions:
REMARK  status: ('A' for Active; 'I' for Inactive)
REMARK    1  A    between atoms: N_2  and  C_6
REMARK    2  A    between atoms: N_2  and  C_7
REMARK    3  A    between atoms: N_2  and  C_8
REMARK    4  A    between atoms: N_3  and  C_9
REMARK    5  A    between atoms: N_4  and  C_18
REMARK    6  A    between atoms: N_4  and  C_19
REMARK    7  A    between atoms: C_6  and  C_9
REMARK    8  A    between atoms: C_7  and  C_10
REMARK    9  A    between atoms: C_8  and  C_11
REMARK   10  A    between atoms: C_12  and  C_13
REMARK                            x       y       z     vdW  Elec       q    Type
REMARK                         _______ _______ _______ _____ _____    ______ ____
ROOT
ATOM      1  O   UNL     1     -19.679  42.290 -16.698  0.00  0.00    +0.000 OA
ATOM      2  N   UNL     1     -19.870  43.226 -14.584  0.00  0.00    +0.000 N 
ATOM      3  C   UNL     1     -20.177  43.114 -15.935  0.00  0.00    +0.000 C 
ATOM      4  H   UNL     1     -20.359  43.897 -14.000  0.00  0.00    +0.000 HD
ENDROOT
BRANCH   3   7
ATOM      5  N   UNL     1     -23.845  46.871 -17.969  0.00  0.00    +0.000 N 
ATOM      6  N   UNL     1     -21.595  46.216 -17.532  0.00  0.00    +0.000 NA
ATOM      7  C   UNL     1     -21.163  44.091 -16.465  0.00  0.00    +0.000 A 
ATOM      8  C   UNL     1     -22.529  43.833 -16.408  0.00  0.00    +0.000 A 
ATOM      9  C   UNL     1     -22.915  45.931 -17.459  0.00  0.00    +0.000 A 
ATOM     10  C   UNL     1     -20.752  45.286 -17.032  0.00  0.00    +0.000 A 
ATOM     11  C   UNL     1     -23.428  44.765 -16.912  0.00  0.00    +0.000 A 
ATOM     12  C   UNL     1     -23.380  48.113 -18.547  0.00  0.00    +0.000 C 
ATOM     13  C   UNL     1     -25.263  46.599 -17.907  0.00  0.00    +0.000 C 
ENDBRANCH   3   7
BRANCH   2  14
ATOM     14  C   UNL     1     -18.918  42.370 -13.930  0.00  0.00    +0.000 C 
BRANCH  14  15
ATOM     15  C   UNL     1     -19.571  41.570 -12.814  0.00  0.00    +0.000 C 
BRANCH  15  16
ATOM     16  N   UNL     1     -18.984  40.234 -12.734  0.00  0.00    +0.000 NA
BRANCH  16  17
ATOM     17  C   UNL     1     -17.585  40.263 -13.159  0.00  0.00    +0.000 C 
ATOM     18  C   UNL     1     -16.670  39.722 -12.075  0.00  0.00    +0.000 C 
ENDBRANCH  16  17
BRANCH  16  19
ATOM     19  C   UNL     1     -19.094  39.706 -11.374  0.00  0.00    +0.000 C 
ATOM     20  C   UNL     1     -19.645  40.756 -10.423  0.00  0.00    +0.000 C 
ENDBRANCH  16  19
ENDBRANCH  15  16
ENDBRANCH  14  15
ENDBRANCH   2  14
TORSDOF 6
ENDMDL
MODEL 3
REMARK VINA RESULT:    -5.330      2.065      2.473
REMARK INTER + INTRA:          -7.825
REMARK INTER:                  -7.223
REMARK INTRA:                  -0.601
REMARK UNBOUND:                -0.625
REMARK  Name = 53388495
REMARK  10 active torsions:
REMARK  status: ('A' for Active; 'I' for Inactive)
REMARK    1  A    between atoms: N_2  and  C_6
REMARK    2  A    between atoms: N_2  and  C_7
REMARK    3  A    between atoms: N_2  and  C_8
REMARK    4  A    between atoms: N_3  and  C_9
REMARK    5  A    between atoms: N_4  and  C_18
REMARK    6  A    between atoms: N_4  and  C_19
REMARK    7  A    between atoms: C_6  and  C_9
REMARK    8  A    between atoms: C_7  and  C_10
REMARK    9  A    between atoms: C_8  and  C_11
REMARK   10  A    between atoms: C_12  and  C_13
REMARK                            x       y       z     vdW  Elec       q    Type
REMARK                         _______ _______ _______ _____ _____    ______ ____
ROOT
ATOM      1  O   UNL     1     -16.984  41.083 -13.243  0.00  0.00    +0.000 OA
ATOM      2  N   UNL     1     -19.133  41.548 -12.504  0.00  0.00    +0.000 N 
ATOM      3  C   UNL     1     -17.859  41.891 -12.939  0.00  0.00    +0.000 C 
ATOM      4  H   UNL     1     -19.824  42.269 -12.319  0.00  0.00    +0.000 HD
ENDROOT
BRANCH   3   7
ATOM      5  N   UNL     1     -16.633  47.380 -13.206  0.00  0.00    +0.000 N 
ATOM      6  N   UNL     1     -15.920  45.106 -13.237  0.00  0.00    +0.000 NA
ATOM      7  C   UNL     1     -17.559  43.344 -13.006  0.00  0.00    +0.000 A 
ATOM      8  C   UNL     1     -18.574  44.291 -12.911  0.00  0.00    +0.000 A 
ATOM      9  C   UNL     1     -16.933  45.996 -13.140  0.00  0.00    +0.000 A 
ATOM     10  C   UNL     1     -16.261  43.800 -13.167  0.00  0.00    +0.000 A 
ATOM     11  C   UNL     1     -18.264  45.643 -12.978  0.00  0.00    +0.000 A 
ATOM     12  C   UNL     1     -15.265  47.820 -13.367  0.00  0.00    +0.000 C 
ATOM     13  C   UNL     1     -17.691  48.360 -13.106  0.00  0.00    +0.000 C 
ENDBRANCH   3   7
BRANCH   2  14
ATOM     14  C   UNL     1     -19.566  40.184 -12.362  0.00  0.00    +0.000 C 
BRANCH  14  15
ATOM     15  C   UNL     1     -19.086  39.588 -11.047  0.00  0.00    +0.000 C 
BRANCH  15  16
ATOM     16  N   UNL     1     -19.403  40.483  -9.936  0.00  0.00    +0.000 NA
BRANCH  16  17
ATOM     17  C   UNL     1     -20.321  39.835  -9.001  0.00  0.00    +0.000 C 
ATOM     18  C   UNL     1     -21.144  40.860  -8.240  0.00  0.00    +0.000 C 
ENDBRANCH  16  17
BRANCH  16  19
ATOM     19  C   UNL     1     -18.180  40.897  -9.248  0.00  0.00    +0.000 C 
ATOM     20  C   UNL     1     -18.036  42.411  -9.250  0.00  0.00    +0.000 C 
ENDBRANCH  16  19
ENDBRANCH  15  16
ENDBRANCH  14  15
ENDBRANCH   2  14
TORSDOF 6
ENDMDL
MODEL 4
REMARK VINA RESULT:    -5.306      2.409      7.199
REMARK INTER + INTRA:          -7.792
REMARK INTER:                  -7.286
REMARK INTRA:                  -0.506
REMARK UNBOUND:                -0.625
REMARK  Name = 53388495
REMARK  10 active torsions:
REMARK  status: ('A' for Active; 'I' for Inactive)
REMARK    1  A    between atoms: N_2  and  C_6
REMARK    2  A    between atoms: N_2  and  C_7
REMARK    3  A    between atoms: N_2  and  C_8
REMARK    4  A    between atoms: N_3  and  C_9
REMARK    5  A    between atoms: N_4  and  C_18
REMARK    6  A    between atoms: N_4  and  C_19
REMARK    7  A    between atoms: C_6  and  C_9
REMARK    8  A    between atoms: C_7  and  C_10
REMARK    9  A    between atoms: C_8  and  C_11
REMARK   10  A    between atoms: C_12  and  C_13
REMARK                            x       y       z     vdW  Elec       q    Type
REMARK                         _______ _______ _______ _____ _____    ______ ____
ROOT
ATOM      1  O   UNL     1     -18.753  46.168 -13.816  0.00  0.00    +0.000 OA
ATOM      2  N   UNL     1     -18.810  45.077 -15.863  0.00  0.00    +0.000 N 
ATOM      3  C   UNL     1     -18.697  45.135 -14.479  0.00  0.00    +0.000 C 
ATOM      4  H   UNL     1     -18.806  44.182 -16.342  0.00  0.00    +0.000 HD
ENDROOT
BRANCH   3   7
ATOM      5  N   UNL     1     -17.747  40.249 -11.845  0.00  0.00    +0.000 N 
ATOM      6  N   UNL     1     -16.930  42.306 -12.729  0.00  0.00    +0.000 NA
ATOM      7  C   UNL     1     -18.470  43.841 -13.786  0.00  0.00    +0.000 A 
ATOM      8  C   UNL     1     -19.523  42.965 -13.540  0.00  0.00    +0.000 A 
ATOM      9  C   UNL     1     -17.978  41.481 -12.508  0.00  0.00    +0.000 A 
ATOM     10  C   UNL     1     -17.205  43.467 -13.364  0.00  0.00    +0.000 A 
ATOM     11  C   UNL     1     -19.281  41.762 -12.889  0.00  0.00    +0.000 A 
ATOM     12  C   UNL     1     -16.411  39.889 -11.426  0.00  0.00    +0.000 C 
ATOM     13  C   UNL     1     -18.844  39.343 -11.592  0.00  0.00    +0.000 C 
ENDBRANCH   3   7
BRANCH   2  14
ATOM     14  C   UNL     1     -19.006  46.246 -16.676  0.00  0.00    +0.000 C 
BRANCH  14  15
ATOM     15  C   UNL     1     -19.930  45.953 -17.849  0.00  0.00    +0.000 C 
BRANCH  15  16
ATOM     16  N   UNL     1     -21.049  45.116 -17.420  0.00  0.00    +0.000 NA
BRANCH  16  17
ATOM     17  C   UNL     1     -22.297  45.877 -17.446  0.00  0.00    +0.000 C 
ATOM     18  C   UNL     1     -23.485  44.995 -17.104  0.00  0.00    +0.000 C 
ENDBRANCH  16  17
BRANCH  16  19
ATOM     19  C   UNL     1     -21.155  43.930 -18.268  0.00  0.00    +0.000 C 
ATOM     20  C   UNL     1     -20.817  42.668 -17.491  0.00  0.00    +0.000 C 
ENDBRANCH  16  19
ENDBRANCH  15  16
ENDBRANCH  14  15
ENDBRANCH   2  14
TORSDOF 6
ENDMDL
MODEL 5
REMARK VINA RESULT:    -5.220      2.130      7.039
REMARK INTER + INTRA:          -7.676
REMARK INTER:                  -7.105
REMARK INTRA:                  -0.571
REMARK UNBOUND:                -0.625
REMARK  Name = 53388495
REMARK  10 active torsions:
REMARK  status: ('A' for Active; 'I' for Inactive)
REMARK    1  A    between atoms: N_2  and  C_6
REMARK    2  A    between atoms: N_2  and  C_7
REMARK    3  A    between atoms: N_2  and  C_8
REMARK    4  A    between atoms: N_3  and  C_9
REMARK    5  A    between atoms: N_4  and  C_18
REMARK    6  A    between atoms: N_4  and  C_19
REMARK    7  A    between atoms: C_6  and  C_9
REMARK    8  A    between atoms: C_7  and  C_10
REMARK    9  A    between atoms: C_8  and  C_11
REMARK   10  A    between atoms: C_12  and  C_13
REMARK                            x       y       z     vdW  Elec       q    Type
REMARK                         _______ _______ _______ _____ _____    ______ ____
ROOT
ATOM      1  O   UNL     1     -18.288  46.457 -13.598  0.00  0.00    +0.000 OA
ATOM      2  N   UNL     1     -19.246  45.423 -15.441  0.00  0.00    +0.000 N 
ATOM      3  C   UNL     1     -18.713  45.448 -14.158  0.00  0.00    +0.000 C 
ATOM      4  H   UNL     1     -19.627  44.562 -15.822  0.00  0.00    +0.000 HD
ENDROOT
BRANCH   3   7
ATOM      5  N   UNL     1     -18.518  40.468 -11.539  0.00  0.00    +0.000 N 
ATOM      6  N   UNL     1     -19.288  41.815 -13.347  0.00  0.00    +0.000 NA
ATOM      7  C   UNL     1     -18.648  44.145 -13.450  0.00  0.00    +0.000 A 
ATOM      8  C   UNL     1     -17.923  44.004 -12.271  0.00  0.00    +0.000 A 
ATOM      9  C   UNL     1     -18.573  41.718 -12.204  0.00  0.00    +0.000 A 
ATOM     10  C   UNL     1     -19.306  43.029 -13.941  0.00  0.00    +0.000 A 
ATOM     11  C   UNL     1     -17.879  42.772 -11.630  0.00  0.00    +0.000 A 
ATOM     12  C   UNL     1     -19.225  39.327 -12.078  0.00  0.00    +0.000 C 
ATOM     13  C   UNL     1     -17.763  40.327 -10.314  0.00  0.00    +0.000 C 
ENDBRANCH   3   7
BRANCH   2  14
ATOM     14  C   UNL     1     -19.353  46.598 -16.262  0.00  0.00    +0.000 C 
BRANCH  14  15
ATOM     15  C   UNL     1     -20.382  46.407 -17.366  0.00  0.00    +0.000 C 
BRANCH  15  16
ATOM     16  N   UNL     1     -20.680  44.988 -17.544  0.00  0.00    +0.000 NA
BRANCH  16  17
ATOM     17  C   UNL     1     -22.085  44.717 -17.245  0.00  0.00    +0.000 C 
ATOM     18  C   UNL     1     -22.231  43.502 -16.345  0.00  0.00    +0.000 C 
ENDBRANCH  16  17
BRANCH  16  19
ATOM     19  C   UNL     1     -20.357  44.564 -18.907  0.00  0.00    +0.000 C 
ATOM     20  C   UNL     1     -18.915  44.094 -19.007  0.00  0.00    +0.000 C 
ENDBRANCH  16  19
ENDBRANCH  15  16
ENDBRANCH  14  15
ENDBRANCH   2  14
TORSDOF 6
ENDMDL
