MODEL 1
REMARK VINA RESULT:    -5.880      0.000      0.000
REMARK INTER + INTRA:          -7.475
REMARK INTER:                  -7.083
REMARK INTRA:                  -0.392
REMARK UNBOUND:                -0.392
REMARK  Name = 53618873
REMARK  4 active torsions:
REMARK  status: ('A' for Active; 'I' for Inactive)
REMARK    1  A    between atoms: N_2  and  C_12
REMARK    2  A    between atoms: N_3  and  C_11
REMARK    3  A    between atoms: C_6  and  C_11
REMARK    4  A    between atoms: C_13  and  C_15
REMARK                            x       y       z     vdW  Elec       q    Type
REMARK                         _______ _______ _______ _____ _____    ______ ____
ROOT
ATOM      1  N   UNL     1     -18.086  42.265  -9.215  0.00  0.00    +0.000 NA
ATOM      2  C   UNL     1     -17.876  42.115 -10.542  0.00  0.00    +0.000 A 
ATOM      3  C   UNL     1     -18.319  41.028 -11.279  0.00  0.00    +0.000 A 
ATOM      4  C   UNL     1     -19.020  40.030 -10.612  0.00  0.00    +0.000 A 
ATOM      5  C   UNL     1     -18.771  41.274  -8.600  0.00  0.00    +0.000 A 
ATOM      6  C   UNL     1     -19.255  40.148  -9.246  0.00  0.00    +0.000 A 
ENDROOT
BRANCH   2   7
ATOM      7  N   UNL     1     -17.167  43.123 -11.208  0.00  0.00    +0.000 N 
ATOM      8  C   UNL     1     -15.703  45.286 -12.456  0.00  0.00    +0.000 C 
ATOM      9  C   UNL     1     -17.232  45.297 -12.363  0.00  0.00    +0.000 C 
ATOM     10  C   UNL     1     -15.206  43.839 -12.513  0.00  0.00    +0.000 C 
ATOM     11  C   UNL     1     -17.726  44.481 -11.170  0.00  0.00    +0.000 C 
ATOM     12  C   UNL     1     -15.709  43.022 -11.323  0.00  0.00    +0.000 C 
BRANCH   8  13
ATOM     13  C   UNL     1     -15.226  46.074 -13.674  0.00  0.00    +0.000 C 
BRANCH  13  14
ATOM     14  N   UNL     1     -15.643  45.425 -14.908  0.00  0.00    +0.000 NA
ATOM     15  H   UNL     1     -16.650  45.529 -15.022  0.00  0.00    +0.000 HD
ATOM     16  H   UNL     1     -15.214  45.891 -15.705  0.00  0.00    +0.000 HD
ENDBRANCH  13  14
ENDBRANCH   8  13
ENDBRANCH   2   7
BRANCH   3  19
ATOM     17  O   UNL     1     -18.855  41.378 -13.546  0.00  0.00    +0.000 OA
ATOM     18  N   UNL     1     -16.925  40.220 -13.108  0.00  0.00    +0.000 N 
ATOM     19  C   UNL     1     -18.074  40.894 -12.709  0.00  0.00    +0.000 C 
ATOM     20  H   UNL     1     -16.272  39.826 -12.438  0.00  0.00    +0.000 HD
ATOM     21  H   UNL     1     -16.703  40.103 -14.090  0.00  0.00    +0.000 HD
ENDBRANCH   3  19
TORSDOF 4
ENDMDL
MODEL 2
REMARK VINA RESULT:    -5.306      2.932      5.659
REMARK INTER + INTRA:          -6.783
REMARK INTER:                  -6.536
REMARK INTRA:                  -0.247
REMARK UNBOUND:                -0.392
REMARK  Name = 53618873
REMARK  4 active torsions:
REMARK  status: ('A' for Active; 'I' for Inactive)
REMARK    1  A    between atoms: N_2  and  C_12
REMARK    2  A    between atoms: N_3  and  C_11
REMARK    3  A    between atoms: C_6  and  C_11
REMARK    4  A    between atoms: C_13  and  C_15
REMARK                            x       y       z     vdW  Elec       q    Type
REMARK                         _______ _______ _______ _____ _____    ______ ____
ROOT
ATOM      1  N   UNL     1     -19.673  42.459 -15.550  0.00  0.00    +0.000 NA
ATOM      2  C   UNL     1     -19.109  43.136 -14.526  0.00  0.00    +0.000 A 
ATOM      3  C   UNL     1     -18.859  44.499 -14.541  0.00  0.00    +0.000 A 
ATOM      4  C   UNL     1     -19.209  45.212 -15.682  0.00  0.00    +0.000 A 
ATOM      5  C   UNL     1     -19.998  43.185 -16.643  0.00  0.00    +0.000 A 
ATOM      6  C   UNL     1     -19.790  44.551 -16.758  0.00  0.00    +0.000 A 
ENDROOT
BRANCH   2   7
ATOM      7  N   UNL     1     -18.758  42.411 -13.380  0.00  0.00    +0.000 N 
ATOM      8  C   UNL     1     -18.076  40.786 -11.083  0.00  0.00    +0.000 C 
ATOM      9  C   UNL     1     -19.500  41.303 -11.309  0.00  0.00    +0.000 C 
ATOM     10  C   UNL     1     -17.074  41.764 -11.704  0.00  0.00    +0.000 C 
ATOM     11  C   UNL     1     -19.781  41.536 -12.793  0.00  0.00    +0.000 C 
ATOM     12  C   UNL     1     -17.363  42.003 -13.186  0.00  0.00    +0.000 C 
BRANCH   8  13
ATOM     13  C   UNL     1     -17.797  40.594  -9.594  0.00  0.00    +0.000 C 
BRANCH  13  14
ATOM     14  N   UNL     1     -17.967  41.844  -8.869  0.00  0.00    +0.000 NA
ATOM     15  H   UNL     1     -18.332  41.649  -7.938  0.00  0.00    +0.000 HD
ATOM     16  H   UNL     1     -17.062  42.291  -8.734  0.00  0.00    +0.000 HD
ENDBRANCH  13  14
ENDBRANCH   8  13
ENDBRANCH   2   7
BRANCH   3  19
ATOM     17  O   UNL     1     -18.929  45.615 -12.468  0.00  0.00    +0.000 OA
ATOM     18  N   UNL     1     -16.868  45.376 -13.443  0.00  0.00    +0.000 N 
ATOM     19  C   UNL     1     -18.247  45.201 -13.421  0.00  0.00    +0.000 C 
ATOM     20  H   UNL     1     -16.294  45.035 -14.208  0.00  0.00    +0.000 HD
ATOM     21  H   UNL     1     -16.389  45.851 -12.686  0.00  0.00    +0.000 HD
ENDBRANCH   3  19
TORSDOF 4
ENDMDL
MODEL 3
REMARK VINA RESULT:    -4.846      6.480      7.952
REMARK INTER + INTRA:          -6.229
REMARK INTER:                  -5.826
REMARK INTRA:                  -0.403
REMARK UNBOUND:                -0.392
REMARK  Name = 53618873
REMARK  4 active torsions:
REMARK  status: ('A' for Active; 'I' for Inactive)
REMARK    1  A    between atoms: N_2  and  C_12
REMARK    2  A    between atoms: N_3  and  C_11
REMARK    3  A    between atoms: C_6  and  C_11
REMARK    4  A    between atoms: C_13  and  C_15
REMARK                            x       y       z     vdW  Elec       q    Type
REMARK                         _______ _______ _______ _____ _____    ______ ____
ROOT
ATOM      1  N   UNL     1     -22.141  46.119 -18.341  0.00  0.00    +0.000 NA
ATOM      2  C   UNL     1     -21.183  45.206 -18.062  0.00  0.00    +0.000 A 
ATOM      3  C   UNL     1     -21.352  44.150 -17.182  0.00  0.00    +0.000 A 
ATOM      4  C   UNL     1     -22.582  44.021 -16.547  0.00  0.00    +0.000 A 
ATOM      5  C   UNL     1     -23.323  45.962 -17.704  0.00  0.00    +0.000 A 
ATOM      6  C   UNL     1     -23.592  44.940 -16.808  0.00  0.00    +0.000 A 
ENDROOT
BRANCH   2   7
ATOM      7  N   UNL     1     -19.946  45.344 -18.704  0.00  0.00    +0.000 N 
ATOM      8  C   UNL     1     -17.460  45.688 -20.148  0.00  0.00    +0.000 C 
ATOM      9  C   UNL     1     -18.347  44.454 -20.352  0.00  0.00    +0.000 C 
ATOM     10  C   UNL     1     -17.643  46.217 -18.723  0.00  0.00    +0.000 C 
ATOM     11  C   UNL     1     -19.811  44.761 -20.046  0.00  0.00    +0.000 C 
ATOM     12  C   UNL     1     -19.111  46.515 -18.415  0.00  0.00    +0.000 C 
BRANCH   8  13
ATOM     13  C   UNL     1     -15.995  45.356 -20.422  0.00  0.00    +0.000 C 
BRANCH  13  14
ATOM     14  N   UNL     1     -15.163  45.703 -19.280  0.00  0.00    +0.000 NA
ATOM     15  H   UNL     1     -14.992  46.707 -19.277  0.00  0.00    +0.000 HD
ATOM     16  H   UNL     1     -15.659  45.494 -18.415  0.00  0.00    +0.000 HD
ENDBRANCH  13  14
ENDBRANCH   8  13
ENDBRANCH   2   7
BRANCH   3  19
ATOM     17  O   UNL     1     -20.306  42.052 -17.411  0.00  0.00    +0.000 OA
ATOM     18  N   UNL     1     -19.270  43.578 -16.050  0.00  0.00    +0.000 N 
ATOM     19  C   UNL     1     -20.299  43.184 -16.900  0.00  0.00    +0.000 C 
ATOM     20  H   UNL     1     -19.243  44.503 -15.631  0.00  0.00    +0.000 HD
ATOM     21  H   UNL     1     -18.508  42.949 -15.825  0.00  0.00    +0.000 HD
ENDBRANCH   3  19
TORSDOF 4
ENDMDL
MODEL 4
REMARK VINA RESULT:    -4.691      2.134      5.322
REMARK INTER + INTRA:          -6.043
REMARK INTER:                  -5.656
REMARK INTRA:                  -0.387
REMARK UNBOUND:                -0.392
REMARK  Name = 53618873
REMARK  4 active torsions:
REMARK  status: ('A' for Active; 'I' for Inactive)
REMARK    1  A    between atoms: N_2  and  C_12
REMARK    2  A    between atoms: N_3  and  C_11
REMARK    3  A    between atoms: C_6  and  C_11
REMARK    4  A    between atoms: C_13  and  C_15
REMARK                            x       y       z     vdW  Elec       q    Type
REMARK                         _______ _______ _______ _____ _____    ______ ____
ROOT
ATOM      1  N   UNL     1     -17.947  46.219 -11.427  0.00  0.00    +0.000 NA
ATOM      2  C   UNL     1     -17.140  45.171 -11.703  0.00  0.00    +0.000 A 
ATOM      3  C   UNL     1     -15.780  45.281 -11.947  0.00  0.00    +0.000 A 
ATOM      4  C   UNL     1     -15.212  46.550 -11.906  0.00  0.00    +0.000 A 
ATOM      5  C   UNL     1     -17.359  47.437 -11.396  0.00  0.00    +0.000 A 
ATOM      6  C   UNL     1     -16.010  47.654 -11.625  0.00  0.00    +0.000 A 
ENDROOT
BRANCH   2   7
ATOM      7  N   UNL     1     -17.719  43.896 -11.745  0.00  0.00    +0.000 N 
ATOM      8  C   UNL     1     -19.005  41.302 -11.717  0.00  0.00    +0.000 C 
ATOM      9  C   UNL     1     -17.817  41.622 -10.804  0.00  0.00    +0.000 C 
ATOM     10  C   UNL     1     -18.903  42.137 -12.997  0.00  0.00    +0.000 C 
ATOM     11  C   UNL     1     -17.732  43.117 -10.500  0.00  0.00    +0.000 C 
ATOM     12  C   UNL     1     -18.810  43.632 -12.690  0.00  0.00    +0.000 C 
BRANCH   8  13
ATOM     13  C   UNL     1     -19.055  39.811 -12.042  0.00  0.00    +0.000 C 
BRANCH  13  14
ATOM     14  N   UNL     1     -18.774  39.578 -13.451  0.00  0.00    +0.000 NA
ATOM     15  H   UNL     1     -18.750  40.469 -13.944  0.00  0.00    +0.000 HD
ATOM     16  H   UNL     1     -17.848  39.167 -13.555  0.00  0.00    +0.000 HD
ENDBRANCH  13  14
ENDBRANCH   8  13
ENDBRANCH   2   7
BRANCH   3  19
ATOM     17  O   UNL     1     -14.250  43.589 -11.364  0.00  0.00    +0.000 OA
ATOM     18  N   UNL     1     -14.941  43.648 -13.549  0.00  0.00    +0.000 N 
ATOM     19  C   UNL     1     -14.937  44.132 -12.245  0.00  0.00    +0.000 C 
ATOM     20  H   UNL     1     -15.504  44.073 -14.280  0.00  0.00    +0.000 HD
ATOM     21  H   UNL     1     -14.378  42.846 -13.810  0.00  0.00    +0.000 HD
ENDBRANCH   3  19
TORSDOF 4
ENDMDL
MODEL 5
REMARK VINA RESULT:    -4.678     15.477     16.592
REMARK INTER + INTRA:          -6.026
REMARK INTER:                  -5.558
REMARK INTRA:                  -0.468
REMARK UNBOUND:                -0.392
REMARK  Name = 53618873
REMARK  4 active torsions:
REMARK  status: ('A' for Active; 'I' for Inactive)
REMARK    1  A    between atoms: N_2  and  C_12
REMARK    2  A    between atoms: N_3  and  C_11
REMARK    3  A    between atoms: C_6  and  C_11
REMARK    4  A    between atoms: C_13  and  C_15
REMARK                            x       y       z     vdW  Elec       q    Type
REMARK                         _______ _______ _______ _____ _____    ______ ____
ROOT
ATOM      1  N   UNL     1     -34.265  42.311 -18.645  0.00  0.00    +0.000 NA
ATOM      2  C   UNL     1     -33.114  42.396 -17.942  0.00  0.00    +0.000 A 
ATOM      3  C   UNL     1     -31.899  41.892 -18.379  0.00  0.00    +0.000 A 
ATOM      4  C   UNL     1     -31.864  41.260 -19.617  0.00  0.00    +0.000 A 
ATOM      5  C   UNL     1     -34.192  41.689 -19.843  0.00  0.00    +0.000 A 
ATOM      6  C   UNL     1     -33.028  41.152 -20.370  0.00  0.00    +0.000 A 
ENDROOT
BRANCH   2   7
ATOM      7  N   UNL     1     -33.157  43.033 -16.695  0.00  0.00    +0.000 N 
ATOM      8  C   UNL     1     -33.372  44.419 -14.163  0.00  0.00    +0.000 C 
ATOM      9  C   UNL     1     -32.683  45.057 -15.374  0.00  0.00    +0.000 C 
ATOM     10  C   UNL     1     -33.229  42.897 -14.238  0.00  0.00    +0.000 C 
ATOM     11  C   UNL     1     -33.232  44.500 -16.687  0.00  0.00    +0.000 C 
ATOM     12  C   UNL     1     -33.771  42.343 -15.556  0.00  0.00    +0.000 C 
BRANCH   8  13
ATOM     13  C   UNL     1     -32.788  44.958 -12.859  0.00  0.00    +0.000 C 
BRANCH  13  14
ATOM     14  N   UNL     1     -31.343  44.784 -12.827  0.00  0.00    +0.000 NA
ATOM     15  H   UNL     1     -30.891  45.633 -13.163  0.00  0.00    +0.000 HD
ATOM     16  H   UNL     1     -31.032  44.655 -11.866  0.00  0.00    +0.000 HD
ENDBRANCH  13  14
ENDBRANCH   8  13
ENDBRANCH   2   7
BRANCH   3  19
ATOM     17  O   UNL     1     -30.270  41.050 -16.901  0.00  0.00    +0.000 OA
ATOM     18  N   UNL     1     -29.962  43.189 -17.667  0.00  0.00    +0.000 N 
ATOM     19  C   UNL     1     -30.676  41.997 -17.596  0.00  0.00    +0.000 C 
ATOM     20  H   UNL     1     -30.273  43.969 -18.238  0.00  0.00    +0.000 HD
ATOM     21  H   UNL     1     -29.100  43.313 -17.149  0.00  0.00    +0.000 HD
ENDBRANCH   3  19
TORSDOF 4
ENDMDL
