MODEL 1
REMARK VINA RESULT:    -6.362      0.000      0.000
REMARK INTER + INTRA:          -7.263
REMARK INTER:                  -7.106
REMARK INTRA:                  -0.157
REMARK UNBOUND:                -0.157
REMARK  Name = 5371876
REMARK  4 active torsions:
REMARK  status: ('A' for Active; 'I' for Inactive)
REMARK    1  A    between atoms: N_2  and  C_9
REMARK    2  A    between atoms: N_3  and  C_11
REMARK    3  A    between atoms: N_3  and  C_13
REMARK    4  A    between atoms: N_3  and  C_14
REMARK                            x       y       z     vdW  Elec       q    Type
REMARK                         _______ _______ _______ _____ _____    ______ ____
ROOT
ATOM      1  O   UNL     1     -19.976  40.592 -12.766  0.00  0.00    +0.000 OA
ATOM      2  N   UNL     1     -18.531  42.428 -12.581  0.00  0.00    +0.000 N 
ATOM      3  N   UNL     1     -17.710  43.084 -10.440  0.00  0.00    +0.000 NA
ATOM      4  N   UNL     1     -18.327  41.916  -8.521  0.00  0.00    +0.000 NA
ATOM      5  C   UNL     1     -19.217  41.166 -10.629  0.00  0.00    +0.000 A 
ATOM      6  C   UNL     1     -19.288  41.355 -12.094  0.00  0.00    +0.000 A 
ATOM      7  C   UNL     1     -18.438  42.030  -9.865  0.00  0.00    +0.000 A 
ATOM      8  C   UNL     1     -17.789  43.226 -11.723  0.00  0.00    +0.000 A 
ATOM      9  C   UNL     1     -19.913  40.141  -9.990  0.00  0.00    +0.000 A 
ATOM     10  C   UNL     1     -19.811  40.008  -8.611  0.00  0.00    +0.000 A 
ATOM     11  C   UNL     1     -19.014  40.912  -7.930  0.00  0.00    +0.000 A 
ENDROOT
BRANCH   2  12
ATOM     12  C   UNL     1     -18.521  42.700 -13.930  0.00  0.00    +0.000 C 
ATOM     13  C   UNL     1     -19.340  43.592 -14.495  0.00  0.00    +0.000 C 
BRANCH  13  14
ATOM     14  N   UNL     1     -19.411  43.935 -15.807  0.00  0.00    +0.000 N 
ATOM     15  C   UNL     1     -20.021  43.049 -16.797  0.00  0.00    +0.000 C 
ATOM     16  C   UNL     1     -19.117  45.289 -16.264  0.00  0.00    +0.000 C 
ENDBRANCH  13  14
ENDBRANCH   2  12
TORSDOF 2
ENDMDL
MODEL 2
REMARK VINA RESULT:    -6.172      3.781      5.069
REMARK INTER + INTRA:          -7.052
REMARK INTER:                  -6.903
REMARK INTRA:                  -0.149
REMARK UNBOUND:                -0.157
REMARK  Name = 5371876
REMARK  4 active torsions:
REMARK  status: ('A' for Active; 'I' for Inactive)
REMARK    1  A    between atoms: N_2  and  C_9
REMARK    2  A    between atoms: N_3  and  C_11
REMARK    3  A    between atoms: N_3  and  C_13
REMARK    4  A    between atoms: N_3  and  C_14
REMARK                            x       y       z     vdW  Elec       q    Type
REMARK                         _______ _______ _______ _____ _____    ______ ____
ROOT
ATOM      1  O   UNL     1     -18.579  42.590  -7.830  0.00  0.00    +0.000 OA
ATOM      2  N   UNL     1     -19.064  40.663  -9.073  0.00  0.00    +0.000 N 
ATOM      3  N   UNL     1     -21.233  39.680  -8.941  0.00  0.00    +0.000 NA
ATOM      4  N   UNL     1     -22.883  40.615  -7.589  0.00  0.00    +0.000 NA
ATOM      5  C   UNL     1     -20.730  41.691  -7.644  0.00  0.00    +0.000 A 
ATOM      6  C   UNL     1     -19.353  41.704  -8.182  0.00  0.00    +0.000 A 
ATOM      7  C   UNL     1     -21.609  40.688  -8.041  0.00  0.00    +0.000 A 
ATOM      8  C   UNL     1     -20.023  39.715  -9.397  0.00  0.00    +0.000 A 
ATOM      9  C   UNL     1     -21.173  42.661  -6.746  0.00  0.00    +0.000 A 
ATOM     10  C   UNL     1     -22.477  42.602  -6.272  0.00  0.00    +0.000 A 
ATOM     11  C   UNL     1     -23.284  41.570  -6.719  0.00  0.00    +0.000 A 
ENDROOT
BRANCH   2  12
ATOM     12  C   UNL     1     -17.812  40.574  -9.637  0.00  0.00    +0.000 C 
ATOM     13  C   UNL     1     -17.500  41.148 -10.802  0.00  0.00    +0.000 C 
BRANCH  13  14
ATOM     14  N   UNL     1     -16.304  41.123 -11.442  0.00  0.00    +0.000 N 
ATOM     15  C   UNL     1     -15.454  42.310 -11.525  0.00  0.00    +0.000 C 
ATOM     16  C   UNL     1     -15.684  39.871 -11.865  0.00  0.00    +0.000 C 
ENDBRANCH  13  14
ENDBRANCH   2  12
TORSDOF 2
ENDMDL
MODEL 3
REMARK VINA RESULT:    -5.557      2.992      5.956
REMARK INTER + INTRA:          -6.364
REMARK INTER:                  -6.322
REMARK INTRA:                  -0.042
REMARK UNBOUND:                -0.157
REMARK  Name = 5371876
REMARK  4 active torsions:
REMARK  status: ('A' for Active; 'I' for Inactive)
REMARK    1  A    between atoms: N_2  and  C_9
REMARK    2  A    between atoms: N_3  and  C_11
REMARK    3  A    between atoms: N_3  and  C_13
REMARK    4  A    between atoms: N_3  and  C_14
REMARK                            x       y       z     vdW  Elec       q    Type
REMARK                         _______ _______ _______ _____ _____    ______ ____
ROOT
ATOM      1  O   UNL     1     -19.916  39.451  -9.770  0.00  0.00    +0.000 OA
ATOM      2  N   UNL     1     -19.103  41.458  -8.874  0.00  0.00    +0.000 N 
ATOM      3  N   UNL     1     -17.425  42.687 -10.041  0.00  0.00    +0.000 NA
ATOM      4  N   UNL     1     -16.581  41.915 -12.070  0.00  0.00    +0.000 NA
ATOM      5  C   UNL     1     -18.272  40.593 -10.980  0.00  0.00    +0.000 A 
ATOM      6  C   UNL     1     -19.180  40.432  -9.824  0.00  0.00    +0.000 A 
ATOM      7  C   UNL     1     -17.437  41.704 -11.043  0.00  0.00    +0.000 A 
ATOM      8  C   UNL     1     -18.230  42.522  -9.042  0.00  0.00    +0.000 A 
ATOM      9  C   UNL     1     -18.230  39.657 -12.012  0.00  0.00    +0.000 A 
ATOM     10  C   UNL     1     -17.358  39.856 -13.074  0.00  0.00    +0.000 A 
ATOM     11  C   UNL     1     -16.562  40.989 -13.056  0.00  0.00    +0.000 A 
ENDROOT
BRANCH   2  12
ATOM     12  C   UNL     1     -19.903  41.415  -7.755  0.00  0.00    +0.000 C 
ATOM     13  C   UNL     1     -21.217  41.655  -7.794  0.00  0.00    +0.000 C 
BRANCH  13  14
ATOM     14  N   UNL     1     -22.092  41.637  -6.757  0.00  0.00    +0.000 N 
ATOM     15  C   UNL     1     -21.866  42.430  -5.550  0.00  0.00    +0.000 C 
ATOM     16  C   UNL     1     -23.416  41.034  -6.879  0.00  0.00    +0.000 C 
ENDBRANCH  13  14
ENDBRANCH   2  12
TORSDOF 2
ENDMDL
MODEL 4
REMARK VINA RESULT:    -5.492      2.477      3.361
REMARK INTER + INTRA:          -6.292
REMARK INTER:                  -6.126
REMARK INTRA:                  -0.166
REMARK UNBOUND:                -0.157
REMARK  Name = 5371876
REMARK  4 active torsions:
REMARK  status: ('A' for Active; 'I' for Inactive)
REMARK    1  A    between atoms: N_2  and  C_9
REMARK    2  A    between atoms: N_3  and  C_11
REMARK    3  A    between atoms: N_3  and  C_13
REMARK    4  A    between atoms: N_3  and  C_14
REMARK                            x       y       z     vdW  Elec       q    Type
REMARK                         _______ _______ _______ _____ _____    ______ ____
ROOT
ATOM      1  O   UNL     1     -17.383  44.112 -11.308  0.00  0.00    +0.000 OA
ATOM      2  N   UNL     1     -18.632  44.026 -13.289  0.00  0.00    +0.000 N 
ATOM      3  N   UNL     1     -19.641  41.975 -13.969  0.00  0.00    +0.000 NA
ATOM      4  N   UNL     1     -19.402  40.047 -12.683  0.00  0.00    +0.000 NA
ATOM      5  C   UNL     1     -18.339  42.061 -11.900  0.00  0.00    +0.000 A 
ATOM      6  C   UNL     1     -18.064  43.497 -12.124  0.00  0.00    +0.000 A 
ATOM      7  C   UNL     1     -19.111  41.362 -12.823  0.00  0.00    +0.000 A 
ATOM      8  C   UNL     1     -19.386  43.231 -14.140  0.00  0.00    +0.000 A 
ATOM      9  C   UNL     1     -17.845  41.387 -10.785  0.00  0.00    +0.000 A 
ATOM     10  C   UNL     1     -18.134  40.038 -10.623  0.00  0.00    +0.000 A 
ATOM     11  C   UNL     1     -18.908  39.421 -11.591  0.00  0.00    +0.000 A 
ENDROOT
BRANCH   2  12
ATOM     12  C   UNL     1     -18.442  45.353 -13.600  0.00  0.00    +0.000 C 
ATOM     13  C   UNL     1     -18.545  45.826 -14.846  0.00  0.00    +0.000 C 
BRANCH  13  14
ATOM     14  N   UNL     1     -18.379  47.108 -15.259  0.00  0.00    +0.000 N 
ATOM     15  C   UNL     1     -19.446  47.837 -15.941  0.00  0.00    +0.000 C 
ATOM     16  C   UNL     1     -17.235  47.910 -14.836  0.00  0.00    +0.000 C 
ENDBRANCH  13  14
ENDBRANCH   2  12
TORSDOF 2
ENDMDL
MODEL 5
REMARK VINA RESULT:    -5.430      1.894      2.497
REMARK INTER + INTRA:          -6.222
REMARK INTER:                  -6.055
REMARK INTRA:                  -0.168
REMARK UNBOUND:                -0.157
REMARK  Name = 5371876
REMARK  4 active torsions:
REMARK  status: ('A' for Active; 'I' for Inactive)
REMARK    1  A    between atoms: N_2  and  C_9
REMARK    2  A    between atoms: N_3  and  C_11
REMARK    3  A    between atoms: N_3  and  C_13
REMARK    4  A    between atoms: N_3  and  C_14
REMARK                            x       y       z     vdW  Elec       q    Type
REMARK                         _______ _______ _______ _____ _____    ______ ____
ROOT
ATOM      1  O   UNL     1     -17.234  43.819 -10.835  0.00  0.00    +0.000 OA
ATOM      2  N   UNL     1     -18.280  42.763 -12.648  0.00  0.00    +0.000 N 
ATOM      3  N   UNL     1     -19.630  40.832 -12.280  0.00  0.00    +0.000 NA
ATOM      4  N   UNL     1     -19.925  39.978 -10.133  0.00  0.00    +0.000 NA
ATOM      5  C   UNL     1     -18.540  41.931 -10.386  0.00  0.00    +0.000 A 
ATOM      6  C   UNL     1     -17.949  42.934 -11.298  0.00  0.00    +0.000 A 
ATOM      7  C   UNL     1     -19.351  40.928 -10.908  0.00  0.00    +0.000 A 
ATOM      8  C   UNL     1     -19.101  41.722 -13.054  0.00  0.00    +0.000 A 
ATOM      9  C   UNL     1     -18.307  41.965  -9.012  0.00  0.00    +0.000 A 
ATOM     10  C   UNL     1     -18.887  40.998  -8.201  0.00  0.00    +0.000 A 
ATOM     11  C   UNL     1     -19.679  40.036  -8.804  0.00  0.00    +0.000 A 
ENDROOT
BRANCH   2  12
ATOM     12  C   UNL     1     -17.786  43.638 -13.588  0.00  0.00    +0.000 C 
ATOM     13  C   UNL     1     -18.519  44.622 -14.117  0.00  0.00    +0.000 C 
BRANCH  13  14
ATOM     14  N   UNL     1     -18.133  45.535 -15.045  0.00  0.00    +0.000 N 
ATOM     15  C   UNL     1     -16.770  46.062 -15.078  0.00  0.00    +0.000 C 
ATOM     16  C   UNL     1     -18.964  45.854 -16.202  0.00  0.00    +0.000 C 
ENDBRANCH  13  14
ENDBRANCH   2  12
TORSDOF 2
ENDMDL
