MODEL 1
REMARK VINA RESULT:    -7.292      0.000      0.000
REMARK INTER + INTRA:          -9.883
REMARK INTER:                  -9.423
REMARK INTRA:                  -0.460
REMARK UNBOUND:                -0.460
REMARK  Name = 53833611
REMARK  7 active torsions:
REMARK  status: ('A' for Active; 'I' for Inactive)
REMARK    1  A    between atoms: N_2  and  C_6
REMARK    2  A    between atoms: C_5  and  C_9
REMARK    3  A    between atoms: C_5  and  C_13
REMARK    4  A    between atoms: C_6  and  C_10
REMARK    5  A    between atoms: C_7  and  C_8
REMARK    6  A    between atoms: C_7  and  C_14
REMARK    7  A    between atoms: C_11  and  C_12
REMARK                            x       y       z     vdW  Elec       q    Type
REMARK                         _______ _______ _______ _____ _____    ______ ____
ROOT
ATOM      1  O   UNL     1     -17.979  40.375  -9.163  0.00  0.00    +0.000 OA
ATOM      2  N   UNL     1     -19.846  39.952 -10.474  0.00  0.00    +0.000 N 
ATOM      3  C   UNL     1     -19.189  40.453  -9.354  0.00  0.00    +0.000 C 
ATOM      4  H   UNL     1     -20.858  39.992 -10.535  0.00  0.00    +0.000 HD
ENDROOT
BRANCH   3   7
ATOM      5  N   UNL     1     -22.247  41.422  -7.378  0.00  0.00    +0.000 NA
ATOM      6  N   UNL     1     -22.511  42.862  -5.498  0.00  0.00    +0.000 N 
ATOM      7  C   UNL     1     -20.046  41.100  -8.327  0.00  0.00    +0.000 A 
ATOM      8  C   UNL     1     -19.503  41.960  -7.379  0.00  0.00    +0.000 A 
ATOM      9  C   UNL     1     -21.411  40.866  -8.284  0.00  0.00    +0.000 A 
ATOM     10  C   UNL     1     -20.330  42.550  -6.429  0.00  0.00    +0.000 A 
ATOM     11  C   UNL     1     -21.682  42.252  -6.472  0.00  0.00    +0.000 A 
ATOM     12  H   UNL     1     -22.105  43.109  -4.605  0.00  0.00    +0.000 HD
ATOM     13  H   UNL     1     -23.498  42.636  -5.529  0.00  0.00    +0.000 HD
ENDBRANCH   3   7
BRANCH   2  14
ATOM     14  C   UNL     1     -19.159  39.279 -11.540  0.00  0.00    +0.000 C 
BRANCH  14  16
ATOM     15  C   UNL     1     -19.434  41.441 -12.763  0.00  0.00    +0.000 C 
ATOM     16  C   UNL     1     -18.782  40.280 -12.585  0.00  0.00    +0.000 C 
BRANCH  15  17
ATOM     17  C   UNL     1     -19.136  42.471 -13.759  0.00  0.00    +0.000 C 
ATOM     18  C   UNL     1     -20.041  42.715 -14.729  0.00  0.00    +0.000 C 
ATOM     19  C   UNL     1     -17.816  43.190 -13.651  0.00  0.00    +0.000 C 
BRANCH  18  20
ATOM     20  C   UNL     1     -19.968  43.739 -15.826  0.00  0.00    +0.000 C 
ATOM     21  C   UNL     1     -19.924  43.082 -17.197  0.00  0.00    +0.000 C 
ENDBRANCH  18  20
ENDBRANCH  15  17
ENDBRANCH  14  16
ENDBRANCH   2  14
TORSDOF 5
ENDMDL
MODEL 2
REMARK VINA RESULT:    -6.864      1.169      2.029
REMARK INTER + INTRA:          -9.330
REMARK INTER:                  -8.853
REMARK INTRA:                  -0.477
REMARK UNBOUND:                -0.460
REMARK  Name = 53833611
REMARK  7 active torsions:
REMARK  status: ('A' for Active; 'I' for Inactive)
REMARK    1  A    between atoms: N_2  and  C_6
REMARK    2  A    between atoms: C_5  and  C_9
REMARK    3  A    between atoms: C_5  and  C_13
REMARK    4  A    between atoms: C_6  and  C_10
REMARK    5  A    between atoms: C_7  and  C_8
REMARK    6  A    between atoms: C_7  and  C_14
REMARK    7  A    between atoms: C_11  and  C_12
REMARK                            x       y       z     vdW  Elec       q    Type
REMARK                         _______ _______ _______ _____ _____    ______ ____
ROOT
ATOM      1  O   UNL     1     -17.900  40.218  -9.419  0.00  0.00    +0.000 OA
ATOM      2  N   UNL     1     -19.817  40.095 -10.721  0.00  0.00    +0.000 N 
ATOM      3  C   UNL     1     -19.100  40.426  -9.575  0.00  0.00    +0.000 C 
ATOM      4  H   UNL     1     -20.822  40.234 -10.755  0.00  0.00    +0.000 HD
ENDROOT
BRANCH   3   7
ATOM      5  N   UNL     1     -19.912  42.475  -6.520  0.00  0.00    +0.000 NA
ATOM      6  N   UNL     1     -21.967  42.834  -5.369  0.00  0.00    +0.000 N 
ATOM      7  C   UNL     1     -19.877  41.050  -8.473  0.00  0.00    +0.000 A 
ATOM      8  C   UNL     1     -21.243  40.824  -8.342  0.00  0.00    +0.000 A 
ATOM      9  C   UNL     1     -19.264  41.876  -7.545  0.00  0.00    +0.000 A 
ATOM     10  C   UNL     1     -21.944  41.423  -7.300  0.00  0.00    +0.000 A 
ATOM     11  C   UNL     1     -21.239  42.232  -6.425  0.00  0.00    +0.000 A 
ATOM     12  H   UNL     1     -22.951  43.027  -5.511  0.00  0.00    +0.000 HD
ATOM     13  H   UNL     1     -21.448  43.430  -4.735  0.00  0.00    +0.000 HD
ENDBRANCH   3   7
BRANCH   2  14
ATOM     14  C   UNL     1     -19.212  39.464 -11.859  0.00  0.00    +0.000 C 
BRANCH  14  16
ATOM     15  C   UNL     1     -19.150  41.811 -12.716  0.00  0.00    +0.000 C 
ATOM     16  C   UNL     1     -18.817  40.516 -12.847  0.00  0.00    +0.000 C 
BRANCH  15  17
ATOM     17  C   UNL     1     -18.811  42.901 -13.633  0.00  0.00    +0.000 C 
ATOM     18  C   UNL     1     -17.916  43.828 -13.235  0.00  0.00    +0.000 C 
ATOM     19  C   UNL     1     -19.503  42.931 -14.971  0.00  0.00    +0.000 C 
BRANCH  18  20
ATOM     20  C   UNL     1     -17.394  45.004 -14.011  0.00  0.00    +0.000 C 
ATOM     21  C   UNL     1     -18.209  46.257 -13.736  0.00  0.00    +0.000 C 
ENDBRANCH  18  20
ENDBRANCH  15  17
ENDBRANCH  14  16
ENDBRANCH   2  14
TORSDOF 5
ENDMDL
MODEL 3
REMARK VINA RESULT:    -6.757      2.496      2.670
REMARK INTER + INTRA:          -9.192
REMARK INTER:                  -8.663
REMARK INTRA:                  -0.529
REMARK UNBOUND:                -0.460
REMARK  Name = 53833611
REMARK  7 active torsions:
REMARK  status: ('A' for Active; 'I' for Inactive)
REMARK    1  A    between atoms: N_2  and  C_6
REMARK    2  A    between atoms: C_5  and  C_9
REMARK    3  A    between atoms: C_5  and  C_13
REMARK    4  A    between atoms: C_6  and  C_10
REMARK    5  A    between atoms: C_7  and  C_8
REMARK    6  A    between atoms: C_7  and  C_14
REMARK    7  A    between atoms: C_11  and  C_12
REMARK                            x       y       z     vdW  Elec       q    Type
REMARK                         _______ _______ _______ _____ _____    ______ ____
ROOT
ATOM      1  O   UNL     1     -19.685  39.412 -10.010  0.00  0.00    +0.000 OA
ATOM      2  N   UNL     1     -17.958  40.904  -9.588  0.00  0.00    +0.000 N 
ATOM      3  C   UNL     1     -19.226  40.365  -9.387  0.00  0.00    +0.000 C 
ATOM      4  H   UNL     1     -17.669  41.736  -9.084  0.00  0.00    +0.000 HD
ENDROOT
BRANCH   3   7
ATOM      5  N   UNL     1     -22.245  41.363  -7.368  0.00  0.00    +0.000 NA
ATOM      6  N   UNL     1     -22.477  42.838  -5.511  0.00  0.00    +0.000 N 
ATOM      7  C   UNL     1     -20.063  41.029  -8.355  0.00  0.00    +0.000 A 
ATOM      8  C   UNL     1     -19.504  41.909  -7.435  0.00  0.00    +0.000 A 
ATOM      9  C   UNL     1     -21.427  40.792  -8.280  0.00  0.00    +0.000 A 
ATOM     10  C   UNL     1     -20.314  42.515  -6.481  0.00  0.00    +0.000 A 
ATOM     11  C   UNL     1     -21.665  42.212  -6.490  0.00  0.00    +0.000 A 
ATOM     12  H   UNL     1     -22.053  43.104  -4.631  0.00  0.00    +0.000 HD
ATOM     13  H   UNL     1     -23.464  42.608  -5.518  0.00  0.00    +0.000 HD
ENDBRANCH   3   7
BRANCH   2  14
ATOM     14  C   UNL     1     -17.042  40.388 -10.566  0.00  0.00    +0.000 C 
BRANCH  14  16
ATOM     15  C   UNL     1     -16.855  42.797 -11.205  0.00  0.00    +0.000 C 
ATOM     16  C   UNL     1     -16.613  41.502 -11.467  0.00  0.00    +0.000 C 
BRANCH  15  17
ATOM     17  C   UNL     1     -16.477  43.945 -12.030  0.00  0.00    +0.000 C 
ATOM     18  C   UNL     1     -17.229  45.063 -11.968  0.00  0.00    +0.000 C 
ATOM     19  C   UNL     1     -15.270  43.800 -12.921  0.00  0.00    +0.000 C 
BRANCH  18  20
ATOM     20  C   UNL     1     -17.014  46.363 -12.690  0.00  0.00    +0.000 C 
ATOM     21  C   UNL     1     -18.052  46.569 -13.783  0.00  0.00    +0.000 C 
ENDBRANCH  18  20
ENDBRANCH  15  17
ENDBRANCH  14  16
ENDBRANCH   2  14
TORSDOF 5
ENDMDL
MODEL 4
REMARK VINA RESULT:    -6.593      3.095      7.111
REMARK INTER + INTRA:          -8.980
REMARK INTER:                  -8.514
REMARK INTRA:                  -0.466
REMARK UNBOUND:                -0.460
REMARK  Name = 53833611
REMARK  7 active torsions:
REMARK  status: ('A' for Active; 'I' for Inactive)
REMARK    1  A    between atoms: N_2  and  C_6
REMARK    2  A    between atoms: C_5  and  C_9
REMARK    3  A    between atoms: C_5  and  C_13
REMARK    4  A    between atoms: C_6  and  C_10
REMARK    5  A    between atoms: C_7  and  C_8
REMARK    6  A    between atoms: C_7  and  C_14
REMARK    7  A    between atoms: C_11  and  C_12
REMARK                            x       y       z     vdW  Elec       q    Type
REMARK                         _______ _______ _______ _____ _____    ______ ____
ROOT
ATOM      1  O   UNL     1     -18.761  40.845 -13.519  0.00  0.00    +0.000 OA
ATOM      2  N   UNL     1     -17.899  40.926 -11.366  0.00  0.00    +0.000 N 
ATOM      3  C   UNL     1     -18.076  41.398 -12.663  0.00  0.00    +0.000 C 
ATOM      4  H   UNL     1     -17.264  41.398 -10.731  0.00  0.00    +0.000 HD
ENDROOT
BRANCH   3   7
ATOM      5  N   UNL     1     -17.382  44.835 -14.041  0.00  0.00    +0.000 NA
ATOM      6  N   UNL     1     -15.406  46.167 -14.019  0.00  0.00    +0.000 N 
ATOM      7  C   UNL     1     -17.351  42.648 -13.010  0.00  0.00    +0.000 A 
ATOM      8  C   UNL     1     -16.018  42.824 -12.658  0.00  0.00    +0.000 A 
ATOM      9  C   UNL     1     -17.982  43.674 -13.694  0.00  0.00    +0.000 A 
ATOM     10  C   UNL     1     -15.365  44.005 -12.996  0.00  0.00    +0.000 A 
ATOM     11  C   UNL     1     -16.085  44.970 -13.681  0.00  0.00    +0.000 A 
ATOM     12  H   UNL     1     -14.641  46.471 -13.429  0.00  0.00    +0.000 HD
ATOM     13  H   UNL     1     -15.938  46.872 -14.514  0.00  0.00    +0.000 HD
ENDBRANCH   3   7
BRANCH   2  14
ATOM     14  C   UNL     1     -18.514  39.720 -10.889  0.00  0.00    +0.000 C 
BRANCH  14  16
ATOM     15  C   UNL     1     -19.362  40.963  -8.893  0.00  0.00    +0.000 C 
ATOM     16  C   UNL     1     -19.560  40.072  -9.879  0.00  0.00    +0.000 C 
BRANCH  15  17
ATOM     17  C   UNL     1     -20.323  41.362  -7.865  0.00  0.00    +0.000 C 
ATOM     18  C   UNL     1     -21.632  41.098  -8.064  0.00  0.00    +0.000 C 
ATOM     19  C   UNL     1     -19.791  42.065  -6.642  0.00  0.00    +0.000 C 
BRANCH  18  20
ATOM     20  C   UNL     1     -22.783  41.380  -7.140  0.00  0.00    +0.000 C 
ATOM     21  C   UNL     1     -23.863  40.317  -7.260  0.00  0.00    +0.000 C 
ENDBRANCH  18  20
ENDBRANCH  15  17
ENDBRANCH  14  16
ENDBRANCH   2  14
TORSDOF 5
ENDMDL
MODEL 5
REMARK VINA RESULT:    -6.413      3.377      7.780
REMARK INTER + INTRA:          -8.747
REMARK INTER:                  -8.287
REMARK INTRA:                  -0.460
REMARK UNBOUND:                -0.460
REMARK  Name = 53833611
REMARK  7 active torsions:
REMARK  status: ('A' for Active; 'I' for Inactive)
REMARK    1  A    between atoms: N_2  and  C_6
REMARK    2  A    between atoms: C_5  and  C_9
REMARK    3  A    between atoms: C_5  and  C_13
REMARK    4  A    between atoms: C_6  and  C_10
REMARK    5  A    between atoms: C_7  and  C_8
REMARK    6  A    between atoms: C_7  and  C_14
REMARK    7  A    between atoms: C_11  and  C_12
REMARK                            x       y       z     vdW  Elec       q    Type
REMARK                         _______ _______ _______ _____ _____    ______ ____
ROOT
ATOM      1  O   UNL     1     -18.290  44.558 -12.089  0.00  0.00    +0.000 OA
ATOM      2  N   UNL     1     -17.756  42.365 -12.631  0.00  0.00    +0.000 N 
ATOM      3  C   UNL     1     -18.264  43.634 -12.898  0.00  0.00    +0.000 C 
ATOM      4  H   UNL     1     -17.829  41.628 -13.325  0.00  0.00    +0.000 HD
ENDROOT
BRANCH   3   7
ATOM      5  N   UNL     1     -19.105  45.281 -16.180  0.00  0.00    +0.000 NA
ATOM      6  N   UNL     1     -20.364  44.507 -18.049  0.00  0.00    +0.000 N 
ATOM      7  C   UNL     1     -18.828  43.841 -14.256  0.00  0.00    +0.000 A 
ATOM      8  C   UNL     1     -19.581  42.852 -14.879  0.00  0.00    +0.000 A 
ATOM      9  C   UNL     1     -18.621  45.027 -14.943  0.00  0.00    +0.000 A 
ATOM     10  C   UNL     1     -20.096  43.075 -16.151  0.00  0.00    +0.000 A 
ATOM     11  C   UNL     1     -19.832  44.295 -16.753  0.00  0.00    +0.000 A 
ATOM     12  H   UNL     1     -20.516  43.703 -18.645  0.00  0.00    +0.000 HD
ATOM     13  H   UNL     1     -20.163  45.398 -18.487  0.00  0.00    +0.000 HD
ENDBRANCH   3   7
BRANCH   2  14
ATOM     14  C   UNL     1     -17.201  42.004 -11.358  0.00  0.00    +0.000 C 
BRANCH  14  16
ATOM     15  C   UNL     1     -18.473  41.867  -9.211  0.00  0.00    +0.000 C 
ATOM     16  C   UNL     1     -18.292  41.474 -10.483  0.00  0.00    +0.000 C 
BRANCH  15  17
ATOM     17  C   UNL     1     -19.506  41.400  -8.286  0.00  0.00    +0.000 C 
ATOM     18  C   UNL     1     -19.767  42.130  -7.182  0.00  0.00    +0.000 C 
ATOM     19  C   UNL     1     -20.211  40.109  -8.617  0.00  0.00    +0.000 C 
BRANCH  18  20
ATOM     20  C   UNL     1     -20.797  41.867  -6.121  0.00  0.00    +0.000 C 
ATOM     21  C   UNL     1     -22.125  42.524  -6.463  0.00  0.00    +0.000 C 
ENDBRANCH  18  20
ENDBRANCH  15  17
ENDBRANCH  14  16
ENDBRANCH   2  14
TORSDOF 5
ENDMDL
