MODEL 1
REMARK VINA RESULT:    -6.096      0.000      0.000
REMARK INTER + INTRA:          -6.881
REMARK INTER:                  -6.809
REMARK INTRA:                  -0.072
REMARK UNBOUND:                -0.072
REMARK  Name = 54082590
REMARK  3 active torsions:
REMARK  status: ('A' for Active; 'I' for Inactive)
REMARK    1  A    between atoms: N_3  and  C_9
REMARK    2  A    between atoms: C_4  and  C_6
REMARK    3  A    between atoms: C_6  and  C_10
REMARK                            x       y       z     vdW  Elec       q    Type
REMARK                         _______ _______ _______ _____ _____    ______ ____
ROOT
ATOM      1  N   UNL     1     -18.525  41.763  -8.323  0.00  0.00    +0.000 NA
ATOM      2  C   UNL     1     -20.810  41.471  -7.588  0.00  0.00    +0.000 A 
ATOM      3  C   UNL     1     -21.008  40.500  -8.564  0.00  0.00    +0.000 A 
ATOM      4  C   UNL     1     -19.561  42.067  -7.510  0.00  0.00    +0.000 A 
ATOM      5  C   UNL     1     -19.966  40.161  -9.419  0.00  0.00    +0.000 A 
ATOM      6  C   UNL     1     -18.754  40.814  -9.259  0.00  0.00    +0.000 A 
ENDROOT
BRANCH   2   8
ATOM      7  O   UNL     1     -23.078  41.678  -6.975  0.00  0.00    +0.000 OA
ATOM      8  C   UNL     1     -21.878  41.848  -6.678  0.00  0.00    +0.000 C 
ATOM      9  C   UNL     1     -21.552  42.468  -5.323  0.00  0.00    +0.000 C 
ENDBRANCH   2   8
BRANCH   6  10
ATOM     10  N   UNL     1     -17.731  40.459 -10.123  0.00  0.00    +0.000 NA
ATOM     11  C   UNL     1     -16.866  40.158 -10.855  0.00  0.00    +0.000 C 
ENDBRANCH   6  10
TORSDOF 2
ENDMDL
MODEL 2
REMARK VINA RESULT:    -5.573      2.349      4.710
REMARK INTER + INTRA:          -6.297
REMARK INTER:                  -6.224
REMARK INTRA:                  -0.073
REMARK UNBOUND:                -0.072
REMARK  Name = 54082590
REMARK  3 active torsions:
REMARK  status: ('A' for Active; 'I' for Inactive)
REMARK    1  A    between atoms: N_3  and  C_9
REMARK    2  A    between atoms: C_4  and  C_6
REMARK    3  A    between atoms: C_6  and  C_10
REMARK                            x       y       z     vdW  Elec       q    Type
REMARK                         _______ _______ _______ _____ _____    ______ ____
ROOT
ATOM      1  N   UNL     1     -19.173  41.975  -7.657  0.00  0.00    +0.000 NA
ATOM      2  C   UNL     1     -19.069  40.481  -9.556  0.00  0.00    +0.000 A 
ATOM      3  C   UNL     1     -20.390  40.105  -9.341  0.00  0.00    +0.000 A 
ATOM      4  C   UNL     1     -18.512  41.412  -8.693  0.00  0.00    +0.000 A 
ATOM      5  C   UNL     1     -21.103  40.662  -8.286  0.00  0.00    +0.000 A 
ATOM      6  C   UNL     1     -20.455  41.585  -7.480  0.00  0.00    +0.000 A 
ENDROOT
BRANCH   2   8
ATOM      7  O   UNL     1     -18.749  38.998 -11.362  0.00  0.00    +0.000 OA
ATOM      8  C   UNL     1     -18.297  39.919 -10.650  0.00  0.00    +0.000 C 
ATOM      9  C   UNL     1     -16.900  40.447 -10.959  0.00  0.00    +0.000 C 
ENDBRANCH   2   8
BRANCH   6  10
ATOM     10  N   UNL     1     -21.186  42.126  -6.434  0.00  0.00    +0.000 NA
ATOM     11  C   UNL     1     -21.805  42.585  -5.550  0.00  0.00    +0.000 C 
ENDBRANCH   6  10
TORSDOF 2
ENDMDL
MODEL 3
REMARK VINA RESULT:    -4.663      4.219      5.256
REMARK INTER + INTRA:          -5.280
REMARK INTER:                  -5.206
REMARK INTRA:                  -0.074
REMARK UNBOUND:                -0.072
REMARK  Name = 54082590
REMARK  3 active torsions:
REMARK  status: ('A' for Active; 'I' for Inactive)
REMARK    1  A    between atoms: N_3  and  C_9
REMARK    2  A    between atoms: C_4  and  C_6
REMARK    3  A    between atoms: C_6  and  C_10
REMARK                            x       y       z     vdW  Elec       q    Type
REMARK                         _______ _______ _______ _____ _____    ______ ____
ROOT
ATOM      1  N   UNL     1     -19.866  41.269 -13.198  0.00  0.00    +0.000 NA
ATOM      2  C   UNL     1     -18.528  41.629 -11.217  0.00  0.00    +0.000 A 
ATOM      3  C   UNL     1     -17.997  42.786 -11.776  0.00  0.00    +0.000 A 
ATOM      4  C   UNL     1     -19.451  40.913 -11.962  0.00  0.00    +0.000 A 
ATOM      5  C   UNL     1     -18.400  43.184 -13.046  0.00  0.00    +0.000 A 
ATOM      6  C   UNL     1     -19.329  42.399 -13.710  0.00  0.00    +0.000 A 
ENDROOT
BRANCH   2   8
ATOM      7  O   UNL     1     -17.256  40.309  -9.732  0.00  0.00    +0.000 OA
ATOM      8  C   UNL     1     -18.129  41.186  -9.892  0.00  0.00    +0.000 C 
ATOM      9  C   UNL     1     -18.778  41.791  -8.650  0.00  0.00    +0.000 C 
ENDBRANCH   2   8
BRANCH   6  10
ATOM     10  N   UNL     1     -19.713  42.816 -14.973  0.00  0.00    +0.000 NA
ATOM     11  C   UNL     1     -20.040  43.170 -16.043  0.00  0.00    +0.000 C 
ENDBRANCH   6  10
TORSDOF 2
ENDMDL
MODEL 4
REMARK VINA RESULT:    -4.634      3.734      5.097
REMARK INTER + INTRA:          -5.247
REMARK INTER:                  -5.155
REMARK INTRA:                  -0.092
REMARK UNBOUND:                -0.072
REMARK  Name = 54082590
REMARK  3 active torsions:
REMARK  status: ('A' for Active; 'I' for Inactive)
REMARK    1  A    between atoms: N_3  and  C_9
REMARK    2  A    between atoms: C_4  and  C_6
REMARK    3  A    between atoms: C_6  and  C_10
REMARK                            x       y       z     vdW  Elec       q    Type
REMARK                         _______ _______ _______ _____ _____    ______ ____
ROOT
ATOM      1  N   UNL     1     -17.733  42.178 -13.430  0.00  0.00    +0.000 NA
ATOM      2  C   UNL     1     -18.470  41.093 -11.400  0.00  0.00    +0.000 A 
ATOM      3  C   UNL     1     -17.884  42.100 -10.640  0.00  0.00    +0.000 A 
ATOM      4  C   UNL     1     -18.367  41.178 -12.779  0.00  0.00    +0.000 A 
ATOM      5  C   UNL     1     -17.223  43.145 -11.275  0.00  0.00    +0.000 A 
ATOM      6  C   UNL     1     -17.176  43.139 -12.660  0.00  0.00    +0.000 A 
ENDROOT
BRANCH   2   8
ATOM      7  O   UNL     1     -19.231  38.862 -11.304  0.00  0.00    +0.000 OA
ATOM      8  C   UNL     1     -19.169  39.988 -10.767  0.00  0.00    +0.000 C 
ATOM      9  C   UNL     1     -19.852  40.180  -9.417  0.00  0.00    +0.000 C 
ENDBRANCH   2   8
BRANCH   6  10
ATOM     10  N   UNL     1     -16.511  44.191 -13.269  0.00  0.00    +0.000 NA
ATOM     11  C   UNL     1     -15.948  45.081 -13.785  0.00  0.00    +0.000 C 
ENDBRANCH   6  10
TORSDOF 2
ENDMDL
MODEL 5
REMARK VINA RESULT:    -4.128      5.100      6.494
REMARK INTER + INTRA:          -4.682
REMARK INTER:                  -4.613
REMARK INTRA:                  -0.069
REMARK UNBOUND:                -0.072
REMARK  Name = 54082590
REMARK  3 active torsions:
REMARK  status: ('A' for Active; 'I' for Inactive)
REMARK    1  A    between atoms: N_3  and  C_9
REMARK    2  A    between atoms: C_4  and  C_6
REMARK    3  A    between atoms: C_6  and  C_10
REMARK                            x       y       z     vdW  Elec       q    Type
REMARK                         _______ _______ _______ _____ _____    ______ ____
ROOT
ATOM      1  N   UNL     1     -19.593  41.971 -13.603  0.00  0.00    +0.000 NA
ATOM      2  C   UNL     1     -18.629  44.168 -13.312  0.00  0.00    +0.000 A 
ATOM      3  C   UNL     1     -17.967  43.735 -12.169  0.00  0.00    +0.000 A 
ATOM      4  C   UNL     1     -19.422  43.255 -13.988  0.00  0.00    +0.000 A 
ATOM      5  C   UNL     1     -18.118  42.421 -11.742  0.00  0.00    +0.000 A 
ATOM      6  C   UNL     1     -18.934  41.585 -12.487  0.00  0.00    +0.000 A 
ENDROOT
BRANCH   2   8
ATOM      7  O   UNL     1     -18.630  46.509 -13.018  0.00  0.00    +0.000 OA
ATOM      8  C   UNL     1     -18.491  45.535 -13.786  0.00  0.00    +0.000 C 
ATOM      9  C   UNL     1     -18.169  45.813 -15.250  0.00  0.00    +0.000 C 
ENDBRANCH   2   8
BRANCH   6  10
ATOM     10  N   UNL     1     -19.069  40.280 -12.041  0.00  0.00    +0.000 NA
ATOM     11  C   UNL     1     -19.184  39.176 -11.665  0.00  0.00    +0.000 C 
ENDBRANCH   6  10
TORSDOF 2
ENDMDL
