MODEL 1
REMARK VINA RESULT:    -6.003      0.000      0.000
REMARK INTER + INTRA:          -9.304
REMARK INTER:                  -8.284
REMARK INTRA:                  -1.020
REMARK UNBOUND:                -1.020
REMARK  Name = 54122437
REMARK  7 active torsions:
REMARK  status: ('A' for Active; 'I' for Inactive)
REMARK    1  A    between atoms: N_2  and  C_8
REMARK    2  A    between atoms: N_2  and  C_10
REMARK    3  A    between atoms: N_3  and  C_9
REMARK    4  A    between atoms: C_6  and  C_7
REMARK    5  A    between atoms: C_6  and  C_8
REMARK    6  A    between atoms: C_7  and  C_9
REMARK    7  A    between atoms: C_11  and  C_14
REMARK                            x       y       z     vdW  Elec       q    Type
REMARK                         _______ _______ _______ _____ _____    ______ ____
ROOT
ATOM      1  N   UNL     1     -18.590  42.235  -8.228  0.00  0.00    +0.000 NA
ATOM      2  C   UNL     1     -18.426  41.562  -9.389  0.00  0.00    +0.000 A 
ATOM      3  C   UNL     1     -19.314  40.612  -9.867  0.00  0.00    +0.000 A 
ATOM      4  C   UNL     1     -20.443  40.334  -9.104  0.00  0.00    +0.000 A 
ATOM      5  C   UNL     1     -20.646  41.005  -7.904  0.00  0.00    +0.000 A 
ATOM      6  C   UNL     1     -19.698  41.938  -7.514  0.00  0.00    +0.000 A 
ENDROOT
BRANCH   3   9
ATOM      7  O   UNL     1     -18.187  39.080 -11.256  0.00  0.00    +0.000 OA
ATOM      8  N   UNL     1     -19.993  40.162 -12.163  0.00  0.00    +0.000 N 
ATOM      9  C   UNL     1     -19.109  39.901 -11.122  0.00  0.00    +0.000 C 
ATOM     10  H   UNL     1     -20.755  40.825 -12.070  0.00  0.00    +0.000 HD
ATOM     11  H   UNL     1     -19.900  39.690 -13.057  0.00  0.00    +0.000 HD
ENDBRANCH   3   9
BRANCH   2  12
ATOM     12  N   UNL     1     -17.298  41.843 -10.143  0.00  0.00    +0.000 N 
ATOM     13  H   UNL     1     -16.458  41.322  -9.910  0.00  0.00    +0.000 HD
BRANCH  12  14
ATOM     14  C   UNL     1     -17.104  43.077 -10.867  0.00  0.00    +0.000 C 
BRANCH  14  15
ATOM     15  C   UNL     1     -16.350  42.832 -12.172  0.00  0.00    +0.000 C 
BRANCH  15  16
ATOM     16  C   UNL     1     -17.259  42.287 -13.282  0.00  0.00    +0.000 C 
BRANCH  16  17
ATOM     17  C   UNL     1     -18.510  43.140 -13.504  0.00  0.00    +0.000 C 
BRANCH  17  18
ATOM     18  N   UNL     1     -19.531  42.422 -14.256  0.00  0.00    +0.000 NA
ATOM     19  H   UNL     1     -19.156  41.527 -14.569  0.00  0.00    +0.000 HD
ATOM     20  H   UNL     1     -19.766  42.944 -15.100  0.00  0.00    +0.000 HD
ENDBRANCH  17  18
ENDBRANCH  16  17
ENDBRANCH  15  16
ENDBRANCH  14  15
ENDBRANCH  12  14
ENDBRANCH   2  12
TORSDOF 7
ENDMDL
MODEL 2
REMARK VINA RESULT:    -5.954      2.180      5.137
REMARK INTER + INTRA:          -9.237
REMARK INTER:                  -8.697
REMARK INTRA:                  -0.539
REMARK UNBOUND:                -1.020
REMARK  Name = 54122437
REMARK  7 active torsions:
REMARK  status: ('A' for Active; 'I' for Inactive)
REMARK    1  A    between atoms: N_2  and  C_8
REMARK    2  A    between atoms: N_2  and  C_10
REMARK    3  A    between atoms: N_3  and  C_9
REMARK    4  A    between atoms: C_6  and  C_7
REMARK    5  A    between atoms: C_6  and  C_8
REMARK    6  A    between atoms: C_7  and  C_9
REMARK    7  A    between atoms: C_11  and  C_14
REMARK                            x       y       z     vdW  Elec       q    Type
REMARK                         _______ _______ _______ _____ _____    ______ ____
ROOT
ATOM      1  N   UNL     1     -19.219  39.717 -10.450  0.00  0.00    +0.000 NA
ATOM      2  C   UNL     1     -18.413  40.788 -10.271  0.00  0.00    +0.000 A 
ATOM      3  C   UNL     1     -17.694  41.397 -11.287  0.00  0.00    +0.000 A 
ATOM      4  C   UNL     1     -17.808  40.872 -12.569  0.00  0.00    +0.000 A 
ATOM      5  C   UNL     1     -18.626  39.770 -12.793  0.00  0.00    +0.000 A 
ATOM      6  C   UNL     1     -19.304  39.235 -11.710  0.00  0.00    +0.000 A 
ENDROOT
BRANCH   3   9
ATOM      7  O   UNL     1     -17.304  43.687 -10.898  0.00  0.00    +0.000 OA
ATOM      8  N   UNL     1     -15.460  42.330 -11.020  0.00  0.00    +0.000 N 
ATOM      9  C   UNL     1     -16.832  42.549 -11.062  0.00  0.00    +0.000 C 
ATOM     10  H   UNL     1     -15.057  41.407 -11.146  0.00  0.00    +0.000 HD
ATOM     11  H   UNL     1     -14.813  43.096 -10.860  0.00  0.00    +0.000 HD
ENDBRANCH   3   9
BRANCH   2  12
ATOM     12  N   UNL     1     -18.303  41.304  -8.989  0.00  0.00    +0.000 N 
ATOM     13  H   UNL     1     -17.451  41.815  -8.780  0.00  0.00    +0.000 HD
BRANCH  12  14
ATOM     14  C   UNL     1     -19.039  40.798  -7.856  0.00  0.00    +0.000 C 
BRANCH  14  15
ATOM     15  C   UNL     1     -20.017  41.845  -7.326  0.00  0.00    +0.000 C 
BRANCH  15  16
ATOM     16  C   UNL     1     -21.474  41.518  -7.677  0.00  0.00    +0.000 C 
BRANCH  16  17
ATOM     17  C   UNL     1     -22.470  42.036  -6.637  0.00  0.00    +0.000 C 
BRANCH  17  18
ATOM     18  N   UNL     1     -22.324  43.469  -6.410  0.00  0.00    +0.000 NA
ATOM     19  H   UNL     1     -22.027  43.630  -5.448  0.00  0.00    +0.000 HD
ATOM     20  H   UNL     1     -23.229  43.926  -6.511  0.00  0.00    +0.000 HD
ENDBRANCH  17  18
ENDBRANCH  16  17
ENDBRANCH  15  16
ENDBRANCH  14  15
ENDBRANCH  12  14
ENDBRANCH   2  12
TORSDOF 7
ENDMDL
MODEL 3
REMARK VINA RESULT:    -5.785      1.369      2.015
REMARK INTER + INTRA:          -9.003
REMARK INTER:                  -8.365
REMARK INTRA:                  -0.638
REMARK UNBOUND:                -1.020
REMARK  Name = 54122437
REMARK  7 active torsions:
REMARK  status: ('A' for Active; 'I' for Inactive)
REMARK    1  A    between atoms: N_2  and  C_8
REMARK    2  A    between atoms: N_2  and  C_10
REMARK    3  A    between atoms: N_3  and  C_9
REMARK    4  A    between atoms: C_6  and  C_7
REMARK    5  A    between atoms: C_6  and  C_8
REMARK    6  A    between atoms: C_7  and  C_9
REMARK    7  A    between atoms: C_11  and  C_14
REMARK                            x       y       z     vdW  Elec       q    Type
REMARK                         _______ _______ _______ _____ _____    ______ ____
ROOT
ATOM      1  N   UNL     1     -18.538  42.215  -8.255  0.00  0.00    +0.000 NA
ATOM      2  C   UNL     1     -18.436  41.555  -9.431  0.00  0.00    +0.000 A 
ATOM      3  C   UNL     1     -19.388  40.668  -9.907  0.00  0.00    +0.000 A 
ATOM      4  C   UNL     1     -20.517  40.444  -9.126  0.00  0.00    +0.000 A 
ATOM      5  C   UNL     1     -20.657  41.104  -7.911  0.00  0.00    +0.000 A 
ATOM      6  C   UNL     1     -19.648  41.971  -7.524  0.00  0.00    +0.000 A 
ENDROOT
BRANCH   3   9
ATOM      7  O   UNL     1     -18.508  38.978 -11.292  0.00  0.00    +0.000 OA
ATOM      8  N   UNL     1     -19.988  40.439 -12.257  0.00  0.00    +0.000 N 
ATOM      9  C   UNL     1     -19.249  39.969 -11.178  0.00  0.00    +0.000 C 
ATOM     10  H   UNL     1     -20.601  41.244 -12.181  0.00  0.00    +0.000 HD
ATOM     11  H   UNL     1     -19.933  39.987 -13.164  0.00  0.00    +0.000 HD
ENDBRANCH   3   9
BRANCH   2  12
ATOM     12  N   UNL     1     -17.307  41.782 -10.201  0.00  0.00    +0.000 N 
ATOM     13  H   UNL     1     -16.483  41.236  -9.967  0.00  0.00    +0.000 HD
BRANCH  12  14
ATOM     14  C   UNL     1     -17.078  42.994 -10.951  0.00  0.00    +0.000 C 
BRANCH  14  15
ATOM     15  C   UNL     1     -16.817  42.685 -12.424  0.00  0.00    +0.000 C 
BRANCH  15  16
ATOM     16  C   UNL     1     -15.923  43.736 -13.095  0.00  0.00    +0.000 C 
BRANCH  16  17
ATOM     17  C   UNL     1     -14.722  44.135 -12.236  0.00  0.00    +0.000 C 
BRANCH  17  18
ATOM     18  N   UNL     1     -13.574  43.268 -12.470  0.00  0.00    +0.000 NA
ATOM     19  H   UNL     1     -12.955  43.299 -11.661  0.00  0.00    +0.000 HD
ATOM     20  H   UNL     1     -13.032  43.621 -13.259  0.00  0.00    +0.000 HD
ENDBRANCH  17  18
ENDBRANCH  16  17
ENDBRANCH  15  16
ENDBRANCH  14  15
ENDBRANCH  12  14
ENDBRANCH   2  12
TORSDOF 7
ENDMDL
MODEL 4
REMARK VINA RESULT:    -5.496      1.540      4.596
REMARK INTER + INTRA:          -8.604
REMARK INTER:                  -7.984
REMARK INTRA:                  -0.619
REMARK UNBOUND:                -1.020
REMARK  Name = 54122437
REMARK  7 active torsions:
REMARK  status: ('A' for Active; 'I' for Inactive)
REMARK    1  A    between atoms: N_2  and  C_8
REMARK    2  A    between atoms: N_2  and  C_10
REMARK    3  A    between atoms: N_3  and  C_9
REMARK    4  A    between atoms: C_6  and  C_7
REMARK    5  A    between atoms: C_6  and  C_8
REMARK    6  A    between atoms: C_7  and  C_9
REMARK    7  A    between atoms: C_11  and  C_14
REMARK                            x       y       z     vdW  Elec       q    Type
REMARK                         _______ _______ _______ _____ _____    ______ ____
ROOT
ATOM      1  N   UNL     1     -17.542  43.021 -10.463  0.00  0.00    +0.000 NA
ATOM      2  C   UNL     1     -17.746  41.756 -10.895  0.00  0.00    +0.000 A 
ATOM      3  C   UNL     1     -18.041  41.423 -12.208  0.00  0.00    +0.000 A 
ATOM      4  C   UNL     1     -18.132  42.454 -13.136  0.00  0.00    +0.000 A 
ATOM      5  C   UNL     1     -17.929  43.767 -12.730  0.00  0.00    +0.000 A 
ATOM      6  C   UNL     1     -17.639  43.996 -11.395  0.00  0.00    +0.000 A 
ENDROOT
BRANCH   3   9
ATOM      7  O   UNL     1     -17.310  39.319 -12.976  0.00  0.00    +0.000 OA
ATOM      8  N   UNL     1     -19.566  39.577 -12.657  0.00  0.00    +0.000 N 
ATOM      9  C   UNL     1     -18.258  40.050 -12.643  0.00  0.00    +0.000 C 
ATOM     10  H   UNL     1     -20.352  40.157 -12.384  0.00  0.00    +0.000 HD
ATOM     11  H   UNL     1     -19.774  38.626 -12.945  0.00  0.00    +0.000 HD
ENDBRANCH   3   9
BRANCH   2  12
ATOM     12  N   UNL     1     -17.656  40.734  -9.964  0.00  0.00    +0.000 N 
ATOM     13  H   UNL     1     -17.336  39.835 -10.309  0.00  0.00    +0.000 HD
BRANCH  12  14
ATOM     14  C   UNL     1     -18.389  40.716  -8.720  0.00  0.00    +0.000 C 
BRANCH  14  15
ATOM     15  C   UNL     1     -19.868  40.420  -8.961  0.00  0.00    +0.000 C 
BRANCH  15  16
ATOM     16  C   UNL     1     -20.783  41.165  -7.980  0.00  0.00    +0.000 C 
BRANCH  16  17
ATOM     17  C   UNL     1     -20.009  41.958  -6.924  0.00  0.00    +0.000 C 
BRANCH  17  18
ATOM     18  N   UNL     1     -20.842  42.289  -5.774  0.00  0.00    +0.000 NA
ATOM     19  H   UNL     1     -20.675  43.257  -5.503  0.00  0.00    +0.000 HD
ATOM     20  H   UNL     1     -20.568  41.716  -4.977  0.00  0.00    +0.000 HD
ENDBRANCH  17  18
ENDBRANCH  16  17
ENDBRANCH  15  16
ENDBRANCH  14  15
ENDBRANCH  12  14
ENDBRANCH   2  12
TORSDOF 7
ENDMDL
MODEL 5
REMARK VINA RESULT:    -5.286      2.498      3.531
REMARK INTER + INTRA:          -8.314
REMARK INTER:                  -8.702
REMARK INTRA:                   0.388
REMARK UNBOUND:                -1.020
REMARK  Name = 54122437
REMARK  7 active torsions:
REMARK  status: ('A' for Active; 'I' for Inactive)
REMARK    1  A    between atoms: N_2  and  C_8
REMARK    2  A    between atoms: N_2  and  C_10
REMARK    3  A    between atoms: N_3  and  C_9
REMARK    4  A    between atoms: C_6  and  C_7
REMARK    5  A    between atoms: C_6  and  C_8
REMARK    6  A    between atoms: C_7  and  C_9
REMARK    7  A    between atoms: C_11  and  C_14
REMARK                            x       y       z     vdW  Elec       q    Type
REMARK                         _______ _______ _______ _____ _____    ______ ____
ROOT
ATOM      1  N   UNL     1     -22.061  40.427  -8.267  0.00  0.00    +0.000 NA
ATOM      2  C   UNL     1     -20.776  40.570  -8.666  0.00  0.00    +0.000 A 
ATOM      3  C   UNL     1     -19.879  41.453  -8.087  0.00  0.00    +0.000 A 
ATOM      4  C   UNL     1     -20.329  42.240  -7.032  0.00  0.00    +0.000 A 
ATOM      5  C   UNL     1     -21.642  42.121  -6.594  0.00  0.00    +0.000 A 
ATOM      6  C   UNL     1     -22.461  41.208  -7.239  0.00  0.00    +0.000 A 
ENDROOT
BRANCH   3   9
ATOM      7  O   UNL     1     -18.042  42.686  -8.895  0.00  0.00    +0.000 OA
ATOM      8  N   UNL     1     -17.710  40.445  -8.548  0.00  0.00    +0.000 N 
ATOM      9  C   UNL     1     -18.501  41.588  -8.541  0.00  0.00    +0.000 C 
ATOM     10  H   UNL     1     -18.066  39.540  -8.257  0.00  0.00    +0.000 HD
ATOM     11  H   UNL     1     -16.741  40.482  -8.848  0.00  0.00    +0.000 HD
ENDBRANCH   3   9
BRANCH   2  12
ATOM     12  N   UNL     1     -20.337  39.785  -9.719  0.00  0.00    +0.000 N 
ATOM     13  H   UNL     1     -19.978  38.866  -9.478  0.00  0.00    +0.000 HD
BRANCH  12  14
ATOM     14  C   UNL     1     -19.930  40.314 -10.999  0.00  0.00    +0.000 C 
BRANCH  14  15
ATOM     15  C   UNL     1     -18.961  39.366 -11.700  0.00  0.00    +0.000 C 
BRANCH  15  16
ATOM     16  C   UNL     1     -18.059  40.088 -12.710  0.00  0.00    +0.000 C 
BRANCH  16  17
ATOM     17  C   UNL     1     -16.775  40.634 -12.082  0.00  0.00    +0.000 C 
BRANCH  17  18
ATOM     18  N   UNL     1     -15.831  39.570 -11.763  0.00  0.00    +0.000 NA
ATOM     19  H   UNL     1     -15.301  39.326 -12.598  0.00  0.00    +0.000 HD
ATOM     20  H   UNL     1     -16.341  38.730 -11.491  0.00  0.00    +0.000 HD
ENDBRANCH  17  18
ENDBRANCH  16  17
ENDBRANCH  15  16
ENDBRANCH  14  15
ENDBRANCH  12  14
ENDBRANCH   2  12
TORSDOF 7
ENDMDL
