MODEL 1
REMARK VINA RESULT:    -7.081      0.000      0.000
REMARK INTER + INTRA:          -9.414
REMARK INTER:                  -9.151
REMARK INTRA:                  -0.263
REMARK UNBOUND:                -0.263
REMARK  Name = 54139139
REMARK  5 active torsions:
REMARK  status: ('A' for Active; 'I' for Inactive)
REMARK    1  A    between atoms: N_3  and  C_9
REMARK    2  A    between atoms: C_7  and  C_12
REMARK    3  A    between atoms: C_13  and  C_14
REMARK    4  A    between atoms: C_13  and  C_15
REMARK    5  A    between atoms: C_13  and  C_16
REMARK                            x       y       z     vdW  Elec       q    Type
REMARK                         _______ _______ _______ _____ _____    ______ ____
ROOT
ATOM      1  N   UNL     1     -18.861  41.825  -7.902  0.00  0.00    +0.000 NA
ATOM      2  C   UNL     1     -21.211  41.617  -7.377  0.00  0.00    +0.000 A 
ATOM      3  C   UNL     1     -21.341  40.606  -8.322  0.00  0.00    +0.000 A 
ATOM      4  C   UNL     1     -19.025  40.839  -8.811  0.00  0.00    +0.000 A 
ATOM      5  C   UNL     1     -20.231  40.203  -9.057  0.00  0.00    +0.000 A 
ATOM      6  C   UNL     1     -19.961  42.190  -7.206  0.00  0.00    +0.000 A 
ENDROOT
BRANCH   2   9
ATOM      7  O   UNL     1     -23.371  41.356  -6.473  0.00  0.00    +0.000 OA
ATOM      8  N   UNL     1     -22.263  43.297  -5.960  0.00  0.00    +0.000 N 
ATOM      9  C   UNL     1     -22.352  42.060  -6.593  0.00  0.00    +0.000 C 
ATOM     10  H   UNL     1     -21.470  43.925  -6.002  0.00  0.00    +0.000 HD
ATOM     11  H   UNL     1     -23.042  43.628  -5.399  0.00  0.00    +0.000 HD
ENDBRANCH   2   9
BRANCH   4  12
ATOM     12  N   UNL     1     -17.881  40.468  -9.524  0.00  0.00    +0.000 NA
ATOM     13  C   UNL     1     -17.548  41.243 -10.510  0.00  0.00    +0.000 C 
BRANCH  13  14
ATOM     14  C   UNL     1     -16.332  40.944 -11.351  0.00  0.00    +0.000 C 
BRANCH  14  16
ATOM     15  N   UNL     1     -17.072  39.632 -13.507  0.00  0.00    +0.000 NA
ATOM     16  C   UNL     1     -16.747  40.210 -12.556  0.00  0.00    +0.000 C 
ENDBRANCH  14  16
BRANCH  14  18
ATOM     17  N   UNL     1     -15.097  43.198 -11.914  0.00  0.00    +0.000 NA
ATOM     18  C   UNL     1     -15.641  42.204 -11.664  0.00  0.00    +0.000 C 
ENDBRANCH  14  18
ENDBRANCH  13  14
ENDBRANCH   4  12
TORSDOF 5
ENDMDL
MODEL 2
REMARK VINA RESULT:    -5.761      4.764      5.936
REMARK INTER + INTRA:          -7.709
REMARK INTER:                  -7.438
REMARK INTRA:                  -0.271
REMARK UNBOUND:                -0.263
REMARK  Name = 54139139
REMARK  5 active torsions:
REMARK  status: ('A' for Active; 'I' for Inactive)
REMARK    1  A    between atoms: N_3  and  C_9
REMARK    2  A    between atoms: C_7  and  C_12
REMARK    3  A    between atoms: C_13  and  C_14
REMARK    4  A    between atoms: C_13  and  C_15
REMARK    5  A    between atoms: C_13  and  C_16
REMARK                            x       y       z     vdW  Elec       q    Type
REMARK                         _______ _______ _______ _____ _____    ______ ____
ROOT
ATOM      1  N   UNL     1     -19.596  41.237 -12.847  0.00  0.00    +0.000 NA
ATOM      2  C   UNL     1     -18.467  41.960 -10.836  0.00  0.00    +0.000 A 
ATOM      3  C   UNL     1     -17.968  43.071 -11.506  0.00  0.00    +0.000 A 
ATOM      4  C   UNL     1     -19.093  42.328 -13.466  0.00  0.00    +0.000 A 
ATOM      5  C   UNL     1     -18.282  43.266 -12.847  0.00  0.00    +0.000 A 
ATOM      6  C   UNL     1     -19.269  41.080 -11.545  0.00  0.00    +0.000 A 
ENDROOT
BRANCH   2   9
ATOM      7  O   UNL     1     -18.138  42.660  -8.611  0.00  0.00    +0.000 OA
ATOM      8  N   UNL     1     -17.898  40.420  -9.036  0.00  0.00    +0.000 N 
ATOM      9  C   UNL     1     -18.157  41.728  -9.436  0.00  0.00    +0.000 C 
ATOM     10  H   UNL     1     -17.899  39.608  -9.641  0.00  0.00    +0.000 HD
ATOM     11  H   UNL     1     -17.686  40.228  -8.062  0.00  0.00    +0.000 HD
ENDBRANCH   2   9
BRANCH   4  12
ATOM     12  N   UNL     1     -19.438  42.483 -14.812  0.00  0.00    +0.000 NA
ATOM     13  C   UNL     1     -19.288  43.674 -15.305  0.00  0.00    +0.000 C 
BRANCH  13  14
ATOM     14  C   UNL     1     -19.627  43.962 -16.746  0.00  0.00    +0.000 C 
BRANCH  14  16
ATOM     15  N   UNL     1     -21.118  42.011 -17.689  0.00  0.00    +0.000 NA
ATOM     16  C   UNL     1     -20.459  42.871 -17.274  0.00  0.00    +0.000 C 
ENDBRANCH  14  16
BRANCH  14  18
ATOM     17  N   UNL     1     -20.808  46.307 -16.904  0.00  0.00    +0.000 NA
ATOM     18  C   UNL     1     -20.287  45.273 -16.833  0.00  0.00    +0.000 C 
ENDBRANCH  14  18
ENDBRANCH  13  14
ENDBRANCH   4  12
TORSDOF 5
ENDMDL
MODEL 3
REMARK VINA RESULT:    -5.160      5.351      7.494
REMARK INTER + INTRA:          -6.931
REMARK INTER:                  -6.651
REMARK INTRA:                  -0.280
REMARK UNBOUND:                -0.263
REMARK  Name = 54139139
REMARK  5 active torsions:
REMARK  status: ('A' for Active; 'I' for Inactive)
REMARK    1  A    between atoms: N_3  and  C_9
REMARK    2  A    between atoms: C_7  and  C_12
REMARK    3  A    between atoms: C_13  and  C_14
REMARK    4  A    between atoms: C_13  and  C_15
REMARK    5  A    between atoms: C_13  and  C_16
REMARK                            x       y       z     vdW  Elec       q    Type
REMARK                         _______ _______ _______ _____ _____    ______ ____
ROOT
ATOM      1  N   UNL     1     -19.710  42.417 -15.142  0.00  0.00    +0.000 NA
ATOM      2  C   UNL     1     -19.550  44.690 -15.948  0.00  0.00    +0.000 A 
ATOM      3  C   UNL     1     -18.772  45.034 -14.848  0.00  0.00    +0.000 A 
ATOM      4  C   UNL     1     -18.952  42.788 -14.086  0.00  0.00    +0.000 A 
ATOM      5  C   UNL     1     -18.463  44.070 -13.894  0.00  0.00    +0.000 A 
ATOM      6  C   UNL     1     -19.991  43.380 -16.048  0.00  0.00    +0.000 A 
ENDROOT
BRANCH   2   9
ATOM      7  O   UNL     1     -19.837  45.403 -18.175  0.00  0.00    +0.000 OA
ATOM      8  N   UNL     1     -20.300  46.934 -16.532  0.00  0.00    +0.000 N 
ATOM      9  C   UNL     1     -19.891  45.674 -16.961  0.00  0.00    +0.000 C 
ATOM     10  H   UNL     1     -20.376  47.231 -15.567  0.00  0.00    +0.000 HD
ATOM     11  H   UNL     1     -20.551  47.638 -17.219  0.00  0.00    +0.000 HD
ENDBRANCH   2   9
BRANCH   4  12
ATOM     12  N   UNL     1     -18.666  41.784 -13.156  0.00  0.00    +0.000 NA
ATOM     13  C   UNL     1     -18.211  42.185 -12.008  0.00  0.00    +0.000 C 
BRANCH  13  14
ATOM     14  C   UNL     1     -17.867  41.194 -10.924  0.00  0.00    +0.000 C 
BRANCH  14  16
ATOM     15  N   UNL     1     -18.439  42.241  -8.580  0.00  0.00    +0.000 NA
ATOM     16  C   UNL     1     -18.188  41.780  -9.615  0.00  0.00    +0.000 C 
ENDBRANCH  14  16
BRANCH  14  18
ATOM     17  N   UNL     1     -19.150  38.943 -11.376  0.00  0.00    +0.000 NA
ATOM     18  C   UNL     1     -18.586  39.936 -11.176  0.00  0.00    +0.000 C 
ENDBRANCH  14  18
ENDBRANCH  13  14
ENDBRANCH   4  12
TORSDOF 5
ENDMDL
MODEL 4
REMARK VINA RESULT:    -5.049      4.827      5.957
REMARK INTER + INTRA:          -6.788
REMARK INTER:                  -6.490
REMARK INTRA:                  -0.298
REMARK UNBOUND:                -0.263
REMARK  Name = 54139139
REMARK  5 active torsions:
REMARK  status: ('A' for Active; 'I' for Inactive)
REMARK    1  A    between atoms: N_3  and  C_9
REMARK    2  A    between atoms: C_7  and  C_12
REMARK    3  A    between atoms: C_13  and  C_14
REMARK    4  A    between atoms: C_13  and  C_15
REMARK    5  A    between atoms: C_13  and  C_16
REMARK                            x       y       z     vdW  Elec       q    Type
REMARK                         _______ _______ _______ _____ _____    ______ ____
ROOT
ATOM      1  N   UNL     1     -19.609  41.700 -13.483  0.00  0.00    +0.000 NA
ATOM      2  C   UNL     1     -18.871  41.309 -11.215  0.00  0.00    +0.000 A 
ATOM      3  C   UNL     1     -18.119  42.477 -11.250  0.00  0.00    +0.000 A 
ATOM      4  C   UNL     1     -18.867  42.829 -13.480  0.00  0.00    +0.000 A 
ATOM      5  C   UNL     1     -18.112  43.259 -12.401  0.00  0.00    +0.000 A 
ATOM      6  C   UNL     1     -19.592  40.967 -12.348  0.00  0.00    +0.000 A 
ENDROOT
BRANCH   2   9
ATOM      7  O   UNL     1     -17.931  40.416  -9.248  0.00  0.00    +0.000 OA
ATOM      8  N   UNL     1     -20.057  39.740  -9.777  0.00  0.00    +0.000 N 
ATOM      9  C   UNL     1     -18.900  40.471 -10.028  0.00  0.00    +0.000 C 
ATOM     10  H   UNL     1     -20.887  39.734 -10.357  0.00  0.00    +0.000 HD
ATOM     11  H   UNL     1     -20.107  39.152  -8.951  0.00  0.00    +0.000 HD
ENDBRANCH   2   9
BRANCH   4  12
ATOM     12  N   UNL     1     -18.892  43.582 -14.658  0.00  0.00    +0.000 NA
ATOM     13  C   UNL     1     -18.598  44.840 -14.537  0.00  0.00    +0.000 C 
BRANCH  13  14
ATOM     14  C   UNL     1     -18.592  45.752 -15.738  0.00  0.00    +0.000 C 
BRANCH  14  16
ATOM     15  N   UNL     1     -20.351  44.880 -17.488  0.00  0.00    +0.000 NA
ATOM     16  C   UNL     1     -19.574  45.266 -16.718  0.00  0.00    +0.000 C 
ENDBRANCH  14  16
BRANCH  14  18
ATOM     17  N   UNL     1     -19.076  48.215 -14.948  0.00  0.00    +0.000 NA
ATOM     18  C   UNL     1     -18.862  47.129 -15.298  0.00  0.00    +0.000 C 
ENDBRANCH  14  18
ENDBRANCH  13  14
ENDBRANCH   4  12
TORSDOF 5
ENDMDL
MODEL 5
REMARK VINA RESULT:    -4.825      4.228      5.935
REMARK INTER + INTRA:          -6.499
REMARK INTER:                  -6.157
REMARK INTRA:                  -0.342
REMARK UNBOUND:                -0.263
REMARK  Name = 54139139
REMARK  5 active torsions:
REMARK  status: ('A' for Active; 'I' for Inactive)
REMARK    1  A    between atoms: N_3  and  C_9
REMARK    2  A    between atoms: C_7  and  C_12
REMARK    3  A    between atoms: C_13  and  C_14
REMARK    4  A    between atoms: C_13  and  C_15
REMARK    5  A    between atoms: C_13  and  C_16
REMARK                            x       y       z     vdW  Elec       q    Type
REMARK                         _______ _______ _______ _____ _____    ______ ____
ROOT
ATOM      1  N   UNL     1     -18.994  42.847 -13.186  0.00  0.00    +0.000 NA
ATOM      2  C   UNL     1     -18.862  41.249 -11.377  0.00  0.00    +0.000 A 
ATOM      3  C   UNL     1     -17.947  42.060 -10.716  0.00  0.00    +0.000 A 
ATOM      4  C   UNL     1     -18.103  43.609 -12.515  0.00  0.00    +0.000 A 
ATOM      5  C   UNL     1     -17.554  43.266 -11.290  0.00  0.00    +0.000 A 
ATOM      6  C   UNL     1     -19.352  41.683 -12.598  0.00  0.00    +0.000 A 
ENDROOT
BRANCH   2   9
ATOM      7  O   UNL     1     -19.562  39.878  -9.593  0.00  0.00    +0.000 OA
ATOM      8  N   UNL     1     -19.411  38.892 -11.658  0.00  0.00    +0.000 N 
ATOM      9  C   UNL     1     -19.292  39.985 -10.804  0.00  0.00    +0.000 C 
ATOM     10  H   UNL     1     -19.217  38.898 -12.652  0.00  0.00    +0.000 HD
ATOM     11  H   UNL     1     -19.717  37.999 -11.286  0.00  0.00    +0.000 HD
ENDBRANCH   2   9
BRANCH   4  12
ATOM     12  N   UNL     1     -17.741  44.812 -13.130  0.00  0.00    +0.000 NA
ATOM     13  C   UNL     1     -18.358  45.094 -14.236  0.00  0.00    +0.000 C 
BRANCH  13  14
ATOM     14  C   UNL     1     -18.052  46.364 -14.990  0.00  0.00    +0.000 C 
BRANCH  14  16
ATOM     15  N   UNL     1     -18.439  48.422 -13.399  0.00  0.00    +0.000 NA
ATOM     16  C   UNL     1     -18.269  47.516 -14.102  0.00  0.00    +0.000 C 
ENDBRANCH  14  16
BRANCH  14  18
ATOM     17  N   UNL     1     -15.593  46.243 -15.915  0.00  0.00    +0.000 NA
ATOM     18  C   UNL     1     -16.678  46.297 -15.509  0.00  0.00    +0.000 C 
ENDBRANCH  14  18
ENDBRANCH  13  14
ENDBRANCH   4  12
TORSDOF 5
ENDMDL
