MODEL 1
REMARK VINA RESULT:    -7.449      0.000      0.000
REMARK INTER + INTRA:          -7.449
REMARK INTER:                  -7.449
REMARK INTRA:                   0.000
REMARK UNBOUND:                 0.000
REMARK  Name = 54238195
REMARK  1 active torsions:
REMARK  status: ('A' for Active; 'I' for Inactive)
REMARK    1  A    between atoms: N_5  and  C_11
REMARK                            x       y       z     vdW  Elec       q    Type
REMARK                         _______ _______ _______ _____ _____    ______ ____
ROOT
ATOM      1  S   UNL     1     -17.211  42.224 -11.487  0.00  0.00    +0.000 S 
ATOM      2  O   UNL     1     -15.823  42.401 -11.871  0.00  0.00    +0.000 OA
ATOM      3  O   UNL     1     -18.238  43.101 -12.022  0.00  0.00    +0.000 OA
ATOM      4  O   UNL     1     -19.219  38.869 -11.319  0.00  0.00    +0.000 OA
ATOM      5  N   UNL     1     -17.689  40.589 -11.775  0.00  0.00    +0.000 N 
ATOM      6  N   UNL     1     -17.282  42.244  -9.784  0.00  0.00    +0.000 N 
ATOM      7  N   UNL     1     -18.840  42.320  -8.048  0.00  0.00    +0.000 NA
ATOM      8  C   UNL     1     -19.145  40.627  -9.752  0.00  0.00    +0.000 A 
ATOM      9  C   UNL     1     -18.501  41.742  -9.224  0.00  0.00    +0.000 A 
ATOM     10  C   UNL     1     -18.716  39.939 -10.994  0.00  0.00    +0.000 C 
ATOM     11  C   UNL     1     -17.337  40.055 -13.123  0.00  0.00    +0.000 C 
ATOM     12  C   UNL     1     -20.253  40.135  -9.056  0.00  0.00    +0.000 A 
ATOM     13  C   UNL     1     -20.654  40.740  -7.869  0.00  0.00    +0.000 A 
ATOM     14  C   UNL     1     -19.918  41.816  -7.409  0.00  0.00    +0.000 A 
ATOM     15  H   UNL     1     -16.961  43.104  -9.322  0.00  0.00    +0.000 HD
ENDROOT
TORSDOF 0
ENDMDL
MODEL 2
REMARK VINA RESULT:    -6.443      1.823      2.866
REMARK INTER + INTRA:          -6.443
REMARK INTER:                  -6.443
REMARK INTRA:                   0.000
REMARK UNBOUND:                 0.000
REMARK  Name = 54238195
REMARK  1 active torsions:
REMARK  status: ('A' for Active; 'I' for Inactive)
REMARK    1  A    between atoms: N_5  and  C_11
REMARK                            x       y       z     vdW  Elec       q    Type
REMARK                         _______ _______ _______ _____ _____    ______ ____
ROOT
ATOM      1  S   UNL     1     -18.074  40.021 -12.268  0.00  0.00    +0.000 S 
ATOM      2  O   UNL     1     -18.465  39.756 -13.640  0.00  0.00    +0.000 OA
ATOM      3  O   UNL     1     -16.968  39.295 -11.668  0.00  0.00    +0.000 OA
ATOM      4  O   UNL     1     -17.583  43.512 -10.570  0.00  0.00    +0.000 OA
ATOM      5  N   UNL     1     -17.790  41.712 -12.061  0.00  0.00    +0.000 N 
ATOM      6  N   UNL     1     -19.461  39.846 -11.293  0.00  0.00    +0.000 N 
ATOM      7  N   UNL     1     -20.081  39.745  -9.046  0.00  0.00    +0.000 NA
ATOM      8  C   UNL     1     -18.710  41.614  -9.747  0.00  0.00    +0.000 A 
ATOM      9  C   UNL     1     -19.350  40.400  -9.978  0.00  0.00    +0.000 A 
ATOM     10  C   UNL     1     -17.984  42.375 -10.793  0.00  0.00    +0.000 C 
ATOM     11  C   UNL     1     -16.915  42.338 -13.095  0.00  0.00    +0.000 C 
ATOM     12  C   UNL     1     -18.769  42.135  -8.452  0.00  0.00    +0.000 A 
ATOM     13  C   UNL     1     -19.474  41.459  -7.460  0.00  0.00    +0.000 A 
ATOM     14  C   UNL     1     -20.111  40.282  -7.807  0.00  0.00    +0.000 A 
ATOM     15  H   UNL     1     -19.908  38.920 -11.295  0.00  0.00    +0.000 HD
ENDROOT
TORSDOF 0
ENDMDL
MODEL 3
REMARK VINA RESULT:    -5.871      2.500      4.493
REMARK INTER + INTRA:          -5.871
REMARK INTER:                  -5.871
REMARK INTRA:                   0.000
REMARK UNBOUND:                 0.000
REMARK  Name = 54238195
REMARK  1 active torsions:
REMARK  status: ('A' for Active; 'I' for Inactive)
REMARK    1  A    between atoms: N_5  and  C_11
REMARK                            x       y       z     vdW  Elec       q    Type
REMARK                         _______ _______ _______ _____ _____    ______ ____
ROOT
ATOM      1  S   UNL     1     -19.152  40.005 -11.720  0.00  0.00    +0.000 S 
ATOM      2  O   UNL     1     -19.223  38.557 -11.656  0.00  0.00    +0.000 OA
ATOM      3  O   UNL     1     -20.186  40.760 -12.404  0.00  0.00    +0.000 OA
ATOM      4  O   UNL     1     -18.345  42.476  -8.795  0.00  0.00    +0.000 OA
ATOM      5  N   UNL     1     -18.972  40.649 -10.127  0.00  0.00    +0.000 N 
ATOM      6  N   UNL     1     -17.629  40.419 -12.366  0.00  0.00    +0.000 N 
ATOM      7  N   UNL     1     -16.458  42.270 -13.171  0.00  0.00    +0.000 NA
ATOM      8  C   UNL     1     -17.503  42.466 -10.995  0.00  0.00    +0.000 A 
ATOM      9  C   UNL     1     -17.246  41.786 -12.182  0.00  0.00    +0.000 A 
ATOM     10  C   UNL     1     -18.292  41.898  -9.874  0.00  0.00    +0.000 C 
ATOM     11  C   UNL     1     -19.929  40.111  -9.116  0.00  0.00    +0.000 C 
ATOM     12  C   UNL     1     -16.973  43.752 -10.863  0.00  0.00    +0.000 A 
ATOM     13  C   UNL     1     -16.199  44.295 -11.884  0.00  0.00    +0.000 A 
ATOM     14  C   UNL     1     -15.969  43.518 -13.005  0.00  0.00    +0.000 A 
ATOM     15  H   UNL     1     -17.424  40.076 -13.312  0.00  0.00    +0.000 HD
ENDROOT
TORSDOF 0
ENDMDL
MODEL 4
REMARK VINA RESULT:    -5.761      3.165      3.934
REMARK INTER + INTRA:          -5.761
REMARK INTER:                  -5.761
REMARK INTRA:                   0.000
REMARK UNBOUND:                 0.000
REMARK  Name = 54238195
REMARK  1 active torsions:
REMARK  status: ('A' for Active; 'I' for Inactive)
REMARK    1  A    between atoms: N_5  and  C_11
REMARK                            x       y       z     vdW  Elec       q    Type
REMARK                         _______ _______ _______ _____ _____    ______ ____
ROOT
ATOM      1  S   UNL     1     -16.807  44.137 -13.067  0.00  0.00    +0.000 S 
ATOM      2  O   UNL     1     -15.802  44.856 -13.827  0.00  0.00    +0.000 OA
ATOM      3  O   UNL     1     -17.282  44.662 -11.799  0.00  0.00    +0.000 OA
ATOM      4  O   UNL     1     -20.121  42.552 -14.416  0.00  0.00    +0.000 OA
ATOM      5  N   UNL     1     -18.177  43.820 -14.070  0.00  0.00    +0.000 N 
ATOM      6  N   UNL     1     -16.245  42.543 -12.844  0.00  0.00    +0.000 N 
ATOM      7  N   UNL     1     -16.757  40.604 -11.651  0.00  0.00    +0.000 NA
ATOM      8  C   UNL     1     -18.532  41.625 -12.943  0.00  0.00    +0.000 A 
ATOM      9  C   UNL     1     -17.240  41.604 -12.425  0.00  0.00    +0.000 A 
ATOM     10  C   UNL     1     -19.033  42.675 -13.864  0.00  0.00    +0.000 C 
ATOM     11  C   UNL     1     -18.687  44.996 -14.834  0.00  0.00    +0.000 C 
ATOM     12  C   UNL     1     -19.391  40.587 -12.572  0.00  0.00    +0.000 A 
ATOM     13  C   UNL     1     -18.935  39.571 -11.739  0.00  0.00    +0.000 A 
ATOM     14  C   UNL     1     -17.621  39.622 -11.314  0.00  0.00    +0.000 A 
ATOM     15  H   UNL     1     -15.361  42.437 -12.330  0.00  0.00    +0.000 HD
ENDROOT
TORSDOF 0
ENDMDL
MODEL 5
REMARK VINA RESULT:    -5.509      3.200      4.244
REMARK INTER + INTRA:          -5.509
REMARK INTER:                  -5.509
REMARK INTRA:                   0.000
REMARK UNBOUND:                 0.000
REMARK  Name = 54238195
REMARK  1 active torsions:
REMARK  status: ('A' for Active; 'I' for Inactive)
REMARK    1  A    between atoms: N_5  and  C_11
REMARK                            x       y       z     vdW  Elec       q    Type
REMARK                         _______ _______ _______ _____ _____    ______ ____
ROOT
ATOM      1  S   UNL     1     -17.467  41.204 -10.900  0.00  0.00    +0.000 S 
ATOM      2  O   UNL     1     -17.751  40.411  -9.718  0.00  0.00    +0.000 OA
ATOM      3  O   UNL     1     -16.199  41.059 -11.592  0.00  0.00    +0.000 OA
ATOM      4  O   UNL     1     -19.829  41.841 -13.954  0.00  0.00    +0.000 OA
ATOM      5  N   UNL     1     -18.740  41.006 -12.050  0.00  0.00    +0.000 N 
ATOM      6  N   UNL     1     -17.705  42.842 -10.492  0.00  0.00    +0.000 N 
ATOM      7  N   UNL     1     -17.352  44.981 -11.355  0.00  0.00    +0.000 NA
ATOM      8  C   UNL     1     -18.507  43.384 -12.761  0.00  0.00    +0.000 A 
ATOM      9  C   UNL     1     -17.810  43.733 -11.608  0.00  0.00    +0.000 A 
ATOM     10  C   UNL     1     -19.088  42.040 -12.998  0.00  0.00    +0.000 C 
ATOM     11  C   UNL     1     -19.134  39.593 -12.321  0.00  0.00    +0.000 C 
ATOM     12  C   UNL     1     -18.666  44.369 -13.739  0.00  0.00    +0.000 A 
ATOM     13  C   UNL     1     -18.162  45.649 -13.527  0.00  0.00    +0.000 A 
ATOM     14  C   UNL     1     -17.524  45.903 -12.327  0.00  0.00    +0.000 A 
ATOM     15  H   UNL     1     -17.113  43.218  -9.741  0.00  0.00    +0.000 HD
ENDROOT
TORSDOF 0
ENDMDL
