MODEL 1
REMARK VINA RESULT:    -7.584      0.000      0.000
REMARK INTER + INTRA:          -8.742
REMARK INTER:                  -8.914
REMARK INTRA:                   0.173
REMARK UNBOUND:                 0.173
REMARK  Name = 54341013
REMARK  4 active torsions:
REMARK  status: ('A' for Active; 'I' for Inactive)
REMARK    1  A    between atoms: P_1  and  O_2
REMARK    2  A    between atoms: P_1  and  O_3
REMARK    3  A    between atoms: P_1  and  N_6
REMARK    4  A    between atoms: C_11  and  C_14
REMARK                            x       y       z     vdW  Elec       q    Type
REMARK                         _______ _______ _______ _____ _____    ______ ____
ROOT
ATOM      1  N   UNL     1     -17.630  41.341  -9.488  0.00  0.00    +0.000 N 
ATOM      2  N   UNL     1     -18.885  42.277  -7.691  0.00  0.00    +0.000 NA
ATOM      3  C   UNL     1     -18.849  41.471  -8.776  0.00  0.00    +0.000 A 
ATOM      4  C   UNL     1     -19.937  40.753  -9.245  0.00  0.00    +0.000 A 
ATOM      5  C   UNL     1     -21.216  41.690  -7.436  0.00  0.00    +0.000 A 
ATOM      6  C   UNL     1     -21.140  40.870  -8.557  0.00  0.00    +0.000 A 
ATOM      7  C   UNL     1     -20.070  42.366  -7.047  0.00  0.00    +0.000 A 
ATOM      8  H   UNL     1     -16.895  41.904  -9.066  0.00  0.00    +0.000 HD
ENDROOT
BRANCH   5  11
ATOM      9  O   UNL     1     -23.367  40.989  -6.783  0.00  0.00    +0.000 OA
ATOM     10  N   UNL     1     -22.594  42.944  -5.867  0.00  0.00    +0.000 N 
ATOM     11  C   UNL     1     -22.457  41.834  -6.696  0.00  0.00    +0.000 C 
ATOM     12  H   UNL     1     -21.902  43.671  -5.737  0.00  0.00    +0.000 HD
ATOM     13  H   UNL     1     -23.450  43.065  -5.332  0.00  0.00    +0.000 HD
ENDBRANCH   5  11
BRANCH   1  14
ATOM     14  P   UNL     1     -17.395  40.433 -10.840  0.00  0.00    +0.000 P 
ATOM     15  O   UNL     1     -18.203  39.181 -11.078  0.00  0.00    +0.000 OA
BRANCH  14  16
ATOM     16  O   UNL     1     -17.494  41.445 -12.110  0.00  0.00    +0.000 OA
ATOM     17  H   UNL     1     -17.407  41.073 -13.014  0.00  0.00    +0.000 HD
ENDBRANCH  14  16
BRANCH  14  18
ATOM     18  O   UNL     1     -15.802  40.099 -10.875  0.00  0.00    +0.000 OA
ATOM     19  H   UNL     1     -15.327  40.167 -11.730  0.00  0.00    +0.000 HD
ENDBRANCH  14  18
ENDBRANCH   1  14
TORSDOF 4
ENDMDL
MODEL 2
REMARK VINA RESULT:    -6.791      1.563      2.259
REMARK INTER + INTRA:          -7.809
REMARK INTER:                  -7.779
REMARK INTRA:                  -0.031
REMARK UNBOUND:                 0.173
REMARK  Name = 54341013
REMARK  4 active torsions:
REMARK  status: ('A' for Active; 'I' for Inactive)
REMARK    1  A    between atoms: P_1  and  O_2
REMARK    2  A    between atoms: P_1  and  O_3
REMARK    3  A    between atoms: P_1  and  N_6
REMARK    4  A    between atoms: C_11  and  C_14
REMARK                            x       y       z     vdW  Elec       q    Type
REMARK                         _______ _______ _______ _____ _____    ______ ____
ROOT
ATOM      1  N   UNL     1     -18.216  39.940 -11.234  0.00  0.00    +0.000 N 
ATOM      2  N   UNL     1     -20.050  39.745  -9.726  0.00  0.00    +0.000 NA
ATOM      3  C   UNL     1     -18.934  40.407 -10.105  0.00  0.00    +0.000 A 
ATOM      4  C   UNL     1     -18.439  41.527  -9.457  0.00  0.00    +0.000 A 
ATOM      5  C   UNL     1     -20.286  41.343  -7.928  0.00  0.00    +0.000 A 
ATOM      6  C   UNL     1     -19.134  41.998  -8.348  0.00  0.00    +0.000 A 
ATOM      7  C   UNL     1     -20.699  40.231  -8.645  0.00  0.00    +0.000 A 
ATOM      8  H   UNL     1     -18.658  39.118 -11.638  0.00  0.00    +0.000 HD
ENDROOT
BRANCH   5  11
ATOM      9  O   UNL     1     -22.257  41.609  -6.667  0.00  0.00    +0.000 OA
ATOM     10  N   UNL     1     -20.334  42.478  -5.773  0.00  0.00    +0.000 N 
ATOM     11  C   UNL     1     -21.034  41.809  -6.773  0.00  0.00    +0.000 C 
ATOM     12  H   UNL     1     -19.341  42.676  -5.780  0.00  0.00    +0.000 HD
ATOM     13  H   UNL     1     -20.831  42.809  -4.951  0.00  0.00    +0.000 HD
ENDBRANCH   5  11
BRANCH   1  14
ATOM     14  P   UNL     1     -16.828  40.592 -11.832  0.00  0.00    +0.000 P 
ATOM     15  O   UNL     1     -16.755  42.057 -12.185  0.00  0.00    +0.000 OA
BRANCH  14  16
ATOM     16  O   UNL     1     -15.633  40.175 -10.809  0.00  0.00    +0.000 OA
ATOM     17  H   UNL     1     -14.708  40.398 -11.053  0.00  0.00    +0.000 HD
ENDBRANCH  14  16
BRANCH  14  18
ATOM     18  O   UNL     1     -16.427  39.675 -13.115  0.00  0.00    +0.000 OA
ATOM     19  H   UNL     1     -17.048  39.630 -13.873  0.00  0.00    +0.000 HD
ENDBRANCH  14  18
ENDBRANCH   1  14
TORSDOF 4
ENDMDL
MODEL 3
REMARK VINA RESULT:    -6.249      4.747      6.545
REMARK INTER + INTRA:          -7.172
REMARK INTER:                  -7.176
REMARK INTRA:                   0.004
REMARK UNBOUND:                 0.173
REMARK  Name = 54341013
REMARK  4 active torsions:
REMARK  status: ('A' for Active; 'I' for Inactive)
REMARK    1  A    between atoms: P_1  and  O_2
REMARK    2  A    between atoms: P_1  and  O_3
REMARK    3  A    between atoms: P_1  and  N_6
REMARK    4  A    between atoms: C_11  and  C_14
REMARK                            x       y       z     vdW  Elec       q    Type
REMARK                         _______ _______ _______ _____ _____    ______ ____
ROOT
ATOM      1  N   UNL     1     -19.679  40.485 -12.771  0.00  0.00    +0.000 N 
ATOM      2  N   UNL     1     -19.814  42.305 -14.304  0.00  0.00    +0.000 NA
ATOM      3  C   UNL     1     -19.306  41.796 -13.159  0.00  0.00    +0.000 A 
ATOM      4  C   UNL     1     -18.432  42.478 -12.327  0.00  0.00    +0.000 A 
ATOM      5  C   UNL     1     -18.558  44.323 -13.866  0.00  0.00    +0.000 A 
ATOM      6  C   UNL     1     -18.056  43.766 -12.695  0.00  0.00    +0.000 A 
ATOM      7  C   UNL     1     -19.426  43.558 -14.629  0.00  0.00    +0.000 A 
ATOM      8  H   UNL     1     -20.320  40.070 -13.444  0.00  0.00    +0.000 HD
ENDROOT
BRANCH   5  11
ATOM      9  O   UNL     1     -18.549  46.667 -13.635  0.00  0.00    +0.000 OA
ATOM     10  N   UNL     1     -17.386  45.799 -15.410  0.00  0.00    +0.000 N 
ATOM     11  C   UNL     1     -18.184  45.665 -14.277  0.00  0.00    +0.000 C 
ATOM     12  H   UNL     1     -17.044  45.038 -15.982  0.00  0.00    +0.000 HD
ATOM     13  H   UNL     1     -17.104  46.726 -15.715  0.00  0.00    +0.000 HD
ENDBRANCH   5  11
BRANCH   1  14
ATOM     14  P   UNL     1     -19.190  39.706 -11.407  0.00  0.00    +0.000 P 
ATOM     15  O   UNL     1     -17.732  39.675 -11.019  0.00  0.00    +0.000 OA
BRANCH  14  16
ATOM     16  O   UNL     1     -20.110  40.267 -10.188  0.00  0.00    +0.000 OA
ATOM     17  H   UNL     1     -20.656  41.068 -10.342  0.00  0.00    +0.000 HD
ENDBRANCH  14  16
BRANCH  14  18
ATOM     18  O   UNL     1     -19.781  38.194 -11.527  0.00  0.00    +0.000 OA
ATOM     19  H   UNL     1     -19.451  37.616 -12.248  0.00  0.00    +0.000 HD
ENDBRANCH  14  18
ENDBRANCH   1  14
TORSDOF 4
ENDMDL
MODEL 4
REMARK VINA RESULT:    -5.721      3.386      4.395
REMARK INTER + INTRA:          -6.552
REMARK INTER:                  -6.821
REMARK INTRA:                   0.269
REMARK UNBOUND:                 0.173
REMARK  Name = 54341013
REMARK  4 active torsions:
REMARK  status: ('A' for Active; 'I' for Inactive)
REMARK    1  A    between atoms: P_1  and  O_2
REMARK    2  A    between atoms: P_1  and  O_3
REMARK    3  A    between atoms: P_1  and  N_6
REMARK    4  A    between atoms: C_11  and  C_14
REMARK                            x       y       z     vdW  Elec       q    Type
REMARK                         _______ _______ _______ _____ _____    ______ ____
ROOT
ATOM      1  N   UNL     1     -16.442  42.556 -12.855  0.00  0.00    +0.000 N 
ATOM      2  N   UNL     1     -17.905  40.861 -12.036  0.00  0.00    +0.000 NA
ATOM      3  C   UNL     1     -17.236  42.016 -11.812  0.00  0.00    +0.000 A 
ATOM      4  C   UNL     1     -17.276  42.716 -10.618  0.00  0.00    +0.000 A 
ATOM      5  C   UNL     1     -18.754  41.014  -9.777  0.00  0.00    +0.000 A 
ATOM      6  C   UNL     1     -18.052  42.199  -9.585  0.00  0.00    +0.000 A 
ATOM      7  C   UNL     1     -18.648  40.389 -11.010  0.00  0.00    +0.000 A 
ATOM      8  H   UNL     1     -16.479  41.971 -13.686  0.00  0.00    +0.000 HD
ENDROOT
BRANCH   5  11
ATOM      9  O   UNL     1     -19.291  40.617  -7.519  0.00  0.00    +0.000 OA
ATOM     10  N   UNL     1     -20.700  39.720  -9.089  0.00  0.00    +0.000 N 
ATOM     11  C   UNL     1     -19.572  40.448  -8.719  0.00  0.00    +0.000 C 
ATOM     12  H   UNL     1     -21.000  39.541 -10.039  0.00  0.00    +0.000 HD
ATOM     13  H   UNL     1     -21.293  39.319  -8.369  0.00  0.00    +0.000 HD
ENDBRANCH   5  11
BRANCH   1  14
ATOM     14  P   UNL     1     -15.540  43.929 -12.767  0.00  0.00    +0.000 P 
ATOM     15  O   UNL     1     -15.806  44.959 -11.698  0.00  0.00    +0.000 OA
BRANCH  14  16
ATOM     16  O   UNL     1     -13.979  43.468 -12.762  0.00  0.00    +0.000 OA
ATOM     17  H   UNL     1     -13.322  44.043 -12.315  0.00  0.00    +0.000 HD
ENDBRANCH  14  16
BRANCH  14  18
ATOM     18  O   UNL     1     -15.624  44.606 -14.245  0.00  0.00    +0.000 OA
ATOM     19  H   UNL     1     -15.320  44.084 -15.018  0.00  0.00    +0.000 HD
ENDBRANCH  14  18
ENDBRANCH   1  14
TORSDOF 4
ENDMDL
MODEL 5
REMARK VINA RESULT:    -5.671      4.747      6.150
REMARK INTER + INTRA:          -6.493
REMARK INTER:                  -6.519
REMARK INTRA:                   0.027
REMARK UNBOUND:                 0.173
REMARK  Name = 54341013
REMARK  4 active torsions:
REMARK  status: ('A' for Active; 'I' for Inactive)
REMARK    1  A    between atoms: P_1  and  O_2
REMARK    2  A    between atoms: P_1  and  O_3
REMARK    3  A    between atoms: P_1  and  N_6
REMARK    4  A    between atoms: C_11  and  C_14
REMARK                            x       y       z     vdW  Elec       q    Type
REMARK                         _______ _______ _______ _____ _____    ______ ____
ROOT
ATOM      1  N   UNL     1     -19.201  44.141 -15.054  0.00  0.00    +0.000 N 
ATOM      2  N   UNL     1     -17.957  44.228 -13.022  0.00  0.00    +0.000 NA
ATOM      3  C   UNL     1     -18.843  43.572 -13.806  0.00  0.00    +0.000 A 
ATOM      4  C   UNL     1     -19.432  42.365 -13.468  0.00  0.00    +0.000 A 
ATOM      5  C   UNL     1     -18.183  42.438 -11.413  0.00  0.00    +0.000 A 
ATOM      6  C   UNL     1     -19.090  41.793 -12.246  0.00  0.00    +0.000 A 
ATOM      7  C   UNL     1     -17.649  43.643 -11.844  0.00  0.00    +0.000 A 
ATOM      8  H   UNL     1     -18.717  45.022 -15.209  0.00  0.00    +0.000 HD
ENDROOT
BRANCH   5  11
ATOM      9  O   UNL     1     -17.989  42.484  -9.066  0.00  0.00    +0.000 OA
ATOM     10  N   UNL     1     -17.243  40.594 -10.129  0.00  0.00    +0.000 N 
ATOM     11  C   UNL     1     -17.805  41.868 -10.132  0.00  0.00    +0.000 C 
ATOM     12  H   UNL     1     -17.066  40.026 -10.948  0.00  0.00    +0.000 HD
ATOM     13  H   UNL     1     -16.976  40.168  -9.246  0.00  0.00    +0.000 HD
ENDBRANCH   5  11
BRANCH   1  14
ATOM     14  P   UNL     1     -20.275  43.510 -16.129  0.00  0.00    +0.000 P 
ATOM     15  O   UNL     1     -19.979  42.215 -16.843  0.00  0.00    +0.000 OA
BRANCH  14  16
ATOM     16  O   UNL     1     -21.716  43.449 -15.375  0.00  0.00    +0.000 OA
ATOM     17  H   UNL     1     -22.089  42.570 -15.148  0.00  0.00    +0.000 HD
ENDBRANCH  14  16
BRANCH  14  18
ATOM     18  O   UNL     1     -20.574  44.698 -17.201  0.00  0.00    +0.000 OA
ATOM     19  H   UNL     1     -21.427  44.690 -17.685  0.00  0.00    +0.000 HD
ENDBRANCH  14  18
ENDBRANCH   1  14
TORSDOF 4
ENDMDL
