MODEL 1
REMARK VINA RESULT:    -5.398      0.000      0.000
REMARK INTER + INTRA:          -8.380
REMARK INTER:                  -7.449
REMARK INTRA:                  -0.931
REMARK UNBOUND:                -0.931
REMARK  Name = 54413526
REMARK  9 active torsions:
REMARK  status: ('A' for Active; 'I' for Inactive)
REMARK    1  A    between atoms: N_2  and  C_6
REMARK    2  A    between atoms: N_2  and  C_8
REMARK    3  A    between atoms: N_2  and  C_9
REMARK    4  A    between atoms: N_4  and  C_16
REMARK    5  A    between atoms: C_6  and  C_7
REMARK    6  A    between atoms: C_7  and  C_10
REMARK    7  A    between atoms: C_8  and  C_11
REMARK    8  A    between atoms: C_9  and  C_12
REMARK    9  A    between atoms: C_15  and  C_17
REMARK                            x       y       z     vdW  Elec       q    Type
REMARK                         _______ _______ _______ _____ _____    ______ ____
ROOT
ATOM      1  N   UNL     1     -18.045  39.873 -12.791  0.00  0.00    +0.000 NA
ATOM      2  C   UNL     1     -17.039  41.858 -11.847  0.00  0.00    +0.000 A 
ATOM      3  C   UNL     1     -17.741  41.659 -10.663  0.00  0.00    +0.000 A 
ATOM      4  C   UNL     1     -17.224  40.944 -12.871  0.00  0.00    +0.000 A 
ATOM      5  C   UNL     1     -18.595  40.569 -10.543  0.00  0.00    +0.000 A 
ATOM      6  C   UNL     1     -18.711  39.713 -11.626  0.00  0.00    +0.000 A 
ENDROOT
BRANCH   5   9
ATOM      7  O   UNL     1     -20.548  40.142  -9.297  0.00  0.00    +0.000 OA
ATOM      8  N   UNL     1     -18.606  40.423  -8.110  0.00  0.00    +0.000 N 
ATOM      9  C   UNL     1     -19.326  40.369  -9.299  0.00  0.00    +0.000 C 
ATOM     10  H   UNL     1     -19.063  40.285  -7.216  0.00  0.00    +0.000 HD
ATOM     11  H   UNL     1     -17.606  40.599  -8.094  0.00  0.00    +0.000 HD
ENDBRANCH   5   9
BRANCH   6  12
ATOM     12  N   UNL     1     -19.580  38.598 -11.510  0.00  0.00    +0.000 N 
ATOM     13  H   UNL     1     -19.224  37.680 -11.746  0.00  0.00    +0.000 HD
ATOM     14  H   UNL     1     -20.564  38.775 -11.669  0.00  0.00    +0.000 HD
ENDBRANCH   6  12
BRANCH   2  15
ATOM     15  C   UNL     1     -16.104  43.031 -12.010  0.00  0.00    +0.000 C 
BRANCH  15  16
ATOM     16  C   UNL     1     -16.487  43.889 -13.216  0.00  0.00    +0.000 C 
BRANCH  16  17
ATOM     17  N   UNL     1     -17.794  44.514 -13.021  0.00  0.00    +0.000 NA
BRANCH  17  18
ATOM     18  C   UNL     1     -17.641  45.945 -12.757  0.00  0.00    +0.000 C 
ATOM     19  C   UNL     1     -17.630  46.230 -11.265  0.00  0.00    +0.000 C 
ENDBRANCH  17  18
BRANCH  17  20
ATOM     20  C   UNL     1     -18.645  44.298 -14.190  0.00  0.00    +0.000 C 
ATOM     21  C   UNL     1     -19.677  43.215 -13.926  0.00  0.00    +0.000 C 
ENDBRANCH  17  20
ENDBRANCH  16  17
ENDBRANCH  15  16
ENDBRANCH   2  15
TORSDOF 7
ENDMDL
MODEL 2
REMARK VINA RESULT:    -5.396      1.630      2.644
REMARK INTER + INTRA:          -8.378
REMARK INTER:                  -7.565
REMARK INTRA:                  -0.813
REMARK UNBOUND:                -0.931
REMARK  Name = 54413526
REMARK  9 active torsions:
REMARK  status: ('A' for Active; 'I' for Inactive)
REMARK    1  A    between atoms: N_2  and  C_6
REMARK    2  A    between atoms: N_2  and  C_8
REMARK    3  A    between atoms: N_2  and  C_9
REMARK    4  A    between atoms: N_4  and  C_16
REMARK    5  A    between atoms: C_6  and  C_7
REMARK    6  A    between atoms: C_7  and  C_10
REMARK    7  A    between atoms: C_8  and  C_11
REMARK    8  A    between atoms: C_9  and  C_12
REMARK    9  A    between atoms: C_15  and  C_17
REMARK                            x       y       z     vdW  Elec       q    Type
REMARK                         _______ _______ _______ _____ _____    ______ ____
ROOT
ATOM      1  N   UNL     1     -19.093  39.616 -10.478  0.00  0.00    +0.000 NA
ATOM      2  C   UNL     1     -17.741  41.613 -10.315  0.00  0.00    +0.000 A 
ATOM      3  C   UNL     1     -18.512  42.057  -9.247  0.00  0.00    +0.000 A 
ATOM      4  C   UNL     1     -18.069  40.396 -10.890  0.00  0.00    +0.000 A 
ATOM      5  C   UNL     1     -19.574  41.282  -8.794  0.00  0.00    +0.000 A 
ATOM      6  C   UNL     1     -19.820  40.080  -9.438  0.00  0.00    +0.000 A 
ENDROOT
BRANCH   5   9
ATOM      7  O   UNL     1     -21.616  41.658  -7.681  0.00  0.00    +0.000 OA
ATOM      8  N   UNL     1     -19.707  42.304  -6.586  0.00  0.00    +0.000 N 
ATOM      9  C   UNL     1     -20.376  41.755  -7.674  0.00  0.00    +0.000 C 
ATOM     10  H   UNL     1     -20.215  42.643  -5.777  0.00  0.00    +0.000 HD
ATOM     11  H   UNL     1     -18.695  42.384  -6.561  0.00  0.00    +0.000 HD
ENDBRANCH   5   9
BRANCH   6  12
ATOM     12  N   UNL     1     -20.901  39.284  -8.981  0.00  0.00    +0.000 N 
ATOM     13  H   UNL     1     -21.195  39.375  -8.017  0.00  0.00    +0.000 HD
ATOM     14  H   UNL     1     -21.015  38.380  -9.424  0.00  0.00    +0.000 HD
ENDBRANCH   6  12
BRANCH   2  15
ATOM     15  C   UNL     1     -16.582  42.430 -10.831  0.00  0.00    +0.000 C 
BRANCH  15  16
ATOM     16  C   UNL     1     -17.056  43.743 -11.456  0.00  0.00    +0.000 C 
BRANCH  16  17
ATOM     17  N   UNL     1     -17.070  43.653 -12.915  0.00  0.00    +0.000 NA
BRANCH  17  18
ATOM     18  C   UNL     1     -18.406  43.953 -13.432  0.00  0.00    +0.000 C 
ATOM     19  C   UNL     1     -19.204  42.682 -13.660  0.00  0.00    +0.000 C 
ENDBRANCH  17  18
BRANCH  17  20
ATOM     20  C   UNL     1     -16.082  44.563 -13.493  0.00  0.00    +0.000 C 
ATOM     21  C   UNL     1     -15.653  45.619 -12.488  0.00  0.00    +0.000 C 
ENDBRANCH  17  20
ENDBRANCH  16  17
ENDBRANCH  15  16
ENDBRANCH   2  15
TORSDOF 7
ENDMDL
MODEL 3
REMARK VINA RESULT:    -5.308      2.583      3.790
REMARK INTER + INTRA:          -8.257
REMARK INTER:                  -7.546
REMARK INTRA:                  -0.711
REMARK UNBOUND:                -0.931
REMARK  Name = 54413526
REMARK  9 active torsions:
REMARK  status: ('A' for Active; 'I' for Inactive)
REMARK    1  A    between atoms: N_2  and  C_6
REMARK    2  A    between atoms: N_2  and  C_8
REMARK    3  A    between atoms: N_2  and  C_9
REMARK    4  A    between atoms: N_4  and  C_16
REMARK    5  A    between atoms: C_6  and  C_7
REMARK    6  A    between atoms: C_7  and  C_10
REMARK    7  A    between atoms: C_8  and  C_11
REMARK    8  A    between atoms: C_9  and  C_12
REMARK    9  A    between atoms: C_15  and  C_17
REMARK                            x       y       z     vdW  Elec       q    Type
REMARK                         _______ _______ _______ _____ _____    ______ ____
ROOT
ATOM      1  N   UNL     1     -16.422  42.315 -12.190  0.00  0.00    +0.000 NA
ATOM      2  C   UNL     1     -18.444  42.914 -13.373  0.00  0.00    +0.000 A 
ATOM      3  C   UNL     1     -19.143  41.921 -12.695  0.00  0.00    +0.000 A 
ATOM      4  C   UNL     1     -17.097  43.069 -13.086  0.00  0.00    +0.000 A 
ATOM      5  C   UNL     1     -18.483  41.125 -11.767  0.00  0.00    +0.000 A 
ATOM      6  C   UNL     1     -17.134  41.360 -11.552  0.00  0.00    +0.000 A 
ENDROOT
BRANCH   5   9
ATOM      7  O   UNL     1     -19.042  38.882 -11.310  0.00  0.00    +0.000 OA
ATOM      8  N   UNL     1     -20.129  40.489 -10.087  0.00  0.00    +0.000 N 
ATOM      9  C   UNL     1     -19.223  40.087 -11.062  0.00  0.00    +0.000 C 
ATOM     10  H   UNL     1     -20.667  39.808  -9.561  0.00  0.00    +0.000 HD
ATOM     11  H   UNL     1     -20.284  41.468  -9.866  0.00  0.00    +0.000 HD
ENDBRANCH   5   9
BRANCH   6  12
ATOM     12  N   UNL     1     -16.454  40.552 -10.606  0.00  0.00    +0.000 N 
ATOM     13  H   UNL     1     -16.561  39.547 -10.663  0.00  0.00    +0.000 HD
ATOM     14  H   UNL     1     -16.306  40.957  -9.690  0.00  0.00    +0.000 HD
ENDBRANCH   6  12
BRANCH   2  15
ATOM     15  C   UNL     1     -19.130  43.795 -14.387  0.00  0.00    +0.000 C 
BRANCH  15  16
ATOM     16  C   UNL     1     -20.076  42.991 -15.280  0.00  0.00    +0.000 C 
BRANCH  16  17
ATOM     17  N   UNL     1     -19.993  43.441 -16.669  0.00  0.00    +0.000 NA
BRANCH  17  18
ATOM     18  C   UNL     1     -21.265  43.214 -17.356  0.00  0.00    +0.000 C 
ATOM     19  C   UNL     1     -22.334  44.174 -16.864  0.00  0.00    +0.000 C 
ENDBRANCH  17  18
BRANCH  17  20
ATOM     20  C   UNL     1     -19.627  44.856 -16.727  0.00  0.00    +0.000 C 
ATOM     21  C   UNL     1     -18.726  45.142 -17.916  0.00  0.00    +0.000 C 
ENDBRANCH  17  20
ENDBRANCH  16  17
ENDBRANCH  15  16
ENDBRANCH   2  15
TORSDOF 7
ENDMDL
MODEL 4
REMARK VINA RESULT:    -5.206      1.883      2.991
REMARK INTER + INTRA:          -8.116
REMARK INTER:                  -7.439
REMARK INTRA:                  -0.676
REMARK UNBOUND:                -0.931
REMARK  Name = 54413526
REMARK  9 active torsions:
REMARK  status: ('A' for Active; 'I' for Inactive)
REMARK    1  A    between atoms: N_2  and  C_6
REMARK    2  A    between atoms: N_2  and  C_8
REMARK    3  A    between atoms: N_2  and  C_9
REMARK    4  A    between atoms: N_4  and  C_16
REMARK    5  A    between atoms: C_6  and  C_7
REMARK    6  A    between atoms: C_7  and  C_10
REMARK    7  A    between atoms: C_8  and  C_11
REMARK    8  A    between atoms: C_9  and  C_12
REMARK    9  A    between atoms: C_15  and  C_17
REMARK                            x       y       z     vdW  Elec       q    Type
REMARK                         _______ _______ _______ _____ _____    ______ ____
ROOT
ATOM      1  N   UNL     1     -18.668  40.587 -13.264  0.00  0.00    +0.000 NA
ATOM      2  C   UNL     1     -17.726  42.590 -12.293  0.00  0.00    +0.000 A 
ATOM      3  C   UNL     1     -18.064  42.142 -11.022  0.00  0.00    +0.000 A 
ATOM      4  C   UNL     1     -18.046  41.782 -13.372  0.00  0.00    +0.000 A 
ATOM      5  C   UNL     1     -18.705  40.918 -10.870  0.00  0.00    +0.000 A 
ATOM      6  C   UNL     1     -18.982  40.185 -12.012  0.00  0.00    +0.000 A 
ENDROOT
BRANCH   5   9
ATOM      7  O   UNL     1     -20.194  40.027  -9.276  0.00  0.00    +0.000 OA
ATOM      8  N   UNL     1     -18.067  40.495  -8.557  0.00  0.00    +0.000 N 
ATOM      9  C   UNL     1     -19.056  40.457  -9.533  0.00  0.00    +0.000 C 
ATOM     10  H   UNL     1     -18.254  40.180  -7.611  0.00  0.00    +0.000 HD
ATOM     11  H   UNL     1     -17.130  40.834  -8.751  0.00  0.00    +0.000 HD
ENDBRANCH   5   9
BRANCH   6  12
ATOM     12  N   UNL     1     -19.635  38.935 -11.866  0.00  0.00    +0.000 N 
ATOM     13  H   UNL     1     -20.530  38.800 -12.320  0.00  0.00    +0.000 HD
ATOM     14  H   UNL     1     -19.469  38.437 -10.999  0.00  0.00    +0.000 HD
ENDBRANCH   6  12
BRANCH   2  15
ATOM     15  C   UNL     1     -17.030  43.914 -12.493  0.00  0.00    +0.000 C 
BRANCH  15  16
ATOM     16  C   UNL     1     -15.539  43.727 -12.776  0.00  0.00    +0.000 C 
BRANCH  16  17
ATOM     17  N   UNL     1     -14.726  44.468 -11.812  0.00  0.00    +0.000 NA
BRANCH  17  18
ATOM     18  C   UNL     1     -13.388  43.885 -11.719  0.00  0.00    +0.000 C 
ATOM     19  C   UNL     1     -13.416  42.562 -10.973  0.00  0.00    +0.000 C 
ENDBRANCH  17  18
BRANCH  17  20
ATOM     20  C   UNL     1     -14.644  45.878 -12.189  0.00  0.00    +0.000 C 
ATOM     21  C   UNL     1     -13.625  46.616 -11.337  0.00  0.00    +0.000 C 
ENDBRANCH  17  20
ENDBRANCH  16  17
ENDBRANCH  15  16
ENDBRANCH   2  15
TORSDOF 7
ENDMDL
MODEL 5
REMARK VINA RESULT:    -5.191      1.113      2.094
REMARK INTER + INTRA:          -8.094
REMARK INTER:                  -7.408
REMARK INTRA:                  -0.687
REMARK UNBOUND:                -0.931
REMARK  Name = 54413526
REMARK  9 active torsions:
REMARK  status: ('A' for Active; 'I' for Inactive)
REMARK    1  A    between atoms: N_2  and  C_6
REMARK    2  A    between atoms: N_2  and  C_8
REMARK    3  A    between atoms: N_2  and  C_9
REMARK    4  A    between atoms: N_4  and  C_16
REMARK    5  A    between atoms: C_6  and  C_7
REMARK    6  A    between atoms: C_7  and  C_10
REMARK    7  A    between atoms: C_8  and  C_11
REMARK    8  A    between atoms: C_9  and  C_12
REMARK    9  A    between atoms: C_15  and  C_17
REMARK                            x       y       z     vdW  Elec       q    Type
REMARK                         _______ _______ _______ _____ _____    ______ ____
ROOT
ATOM      1  N   UNL     1     -18.638  40.375 -13.176  0.00  0.00    +0.000 NA
ATOM      2  C   UNL     1     -17.737  42.441 -12.301  0.00  0.00    +0.000 A 
ATOM      3  C   UNL     1     -18.105  42.065 -11.014  0.00  0.00    +0.000 A 
ATOM      4  C   UNL     1     -18.022  41.568 -13.338  0.00  0.00    +0.000 A 
ATOM      5  C   UNL     1     -18.740  40.846 -10.807  0.00  0.00    +0.000 A 
ATOM      6  C   UNL     1     -18.981  40.044 -11.911  0.00  0.00    +0.000 A 
ENDROOT
BRANCH   5   9
ATOM      7  O   UNL     1     -20.286  40.119  -9.186  0.00  0.00    +0.000 OA
ATOM      8  N   UNL     1     -18.133  40.470  -8.477  0.00  0.00    +0.000 N 
ATOM      9  C   UNL     1     -19.121  40.461  -9.455  0.00  0.00    +0.000 C 
ATOM     10  H   UNL     1     -18.342  40.205  -7.521  0.00  0.00    +0.000 HD
ATOM     11  H   UNL     1     -17.175  40.738  -8.682  0.00  0.00    +0.000 HD
ENDBRANCH   5   9
BRANCH   6  12
ATOM     12  N   UNL     1     -19.628  38.799 -11.708  0.00  0.00    +0.000 N 
ATOM     13  H   UNL     1     -19.106  37.949 -11.881  0.00  0.00    +0.000 HD
ATOM     14  H   UNL     1     -20.627  38.778 -11.870  0.00  0.00    +0.000 HD
ENDBRANCH   6  12
BRANCH   2  15
ATOM     15  C   UNL     1     -17.046  43.758 -12.560  0.00  0.00    +0.000 C 
BRANCH  15  16
ATOM     16  C   UNL     1     -18.045  44.914 -12.609  0.00  0.00    +0.000 C 
BRANCH  16  17
ATOM     17  N   UNL     1     -17.503  46.042 -13.365  0.00  0.00    +0.000 NA
BRANCH  17  18
ATOM     18  C   UNL     1     -18.479  46.515 -14.348  0.00  0.00    +0.000 C 
ATOM     19  C   UNL     1     -18.608  45.540 -15.506  0.00  0.00    +0.000 C 
ENDBRANCH  17  18
BRANCH  17  20
ATOM     20  C   UNL     1     -17.121  47.127 -12.462  0.00  0.00    +0.000 C 
ATOM     21  C   UNL     1     -18.108  47.261 -11.316  0.00  0.00    +0.000 C 
ENDBRANCH  17  20
ENDBRANCH  16  17
ENDBRANCH  15  16
ENDBRANCH   2  15
TORSDOF 7
ENDMDL
