MODEL 1
REMARK VINA RESULT:    -6.822      0.000      0.000
REMARK INTER + INTRA:          -9.976
REMARK INTER:                  -9.215
REMARK INTRA:                  -0.761
REMARK UNBOUND:                -0.761
REMARK  Name = 54420120
REMARK  7 active torsions:
REMARK  status: ('A' for Active; 'I' for Inactive)
REMARK    1  A    between atoms: C_6  and  C_7
REMARK    2  A    between atoms: C_6  and  C_8
REMARK    3  A    between atoms: C_7  and  C_10
REMARK    4  A    between atoms: C_8  and  C_9
REMARK    5  A    between atoms: C_9  and  C_11
REMARK    6  A    between atoms: C_10  and  C_12
REMARK    7  A    between atoms: C_13  and  C_14
REMARK                            x       y       z     vdW  Elec       q    Type
REMARK                         _______ _______ _______ _____ _____    ______ ____
ROOT
ATOM      1  O   UNL     1     -18.440  39.907 -13.471  0.00  0.00    +0.000 OA
ATOM      2  O   UNL     1     -18.973  39.182 -10.827  0.00  0.00    +0.000 OA
ATOM      3  N   UNL     1     -19.119  41.319 -11.741  0.00  0.00    +0.000 N 
ATOM      4  C   UNL     1     -18.740  41.022 -13.054  0.00  0.00    +0.000 C 
ATOM      5  C   UNL     1     -19.211  40.382 -10.715  0.00  0.00    +0.000 C 
ATOM      6  H   UNL     1     -19.372  42.284 -11.551  0.00  0.00    +0.000 HD
ENDROOT
BRANCH   5   9
ATOM      7  N   UNL     1     -19.049  42.285  -7.469  0.00  0.00    +0.000 NA
ATOM      8  N   UNL     1     -20.605  42.469  -5.674  0.00  0.00    +0.000 N 
ATOM      9  C   UNL     1     -19.601  40.920  -9.386  0.00  0.00    +0.000 A 
ATOM     10  C   UNL     1     -20.825  40.595  -8.812  0.00  0.00    +0.000 A 
ATOM     11  C   UNL     1     -18.756  41.762  -8.681  0.00  0.00    +0.000 A 
ATOM     12  C   UNL     1     -21.162  41.115  -7.566  0.00  0.00    +0.000 A 
ATOM     13  C   UNL     1     -20.247  41.947  -6.942  0.00  0.00    +0.000 A 
ATOM     14  H   UNL     1     -21.588  42.595  -5.465  0.00  0.00    +0.000 HD
ATOM     15  H   UNL     1     -19.936  43.081  -5.225  0.00  0.00    +0.000 HD
ENDBRANCH   5   9
BRANCH   4  16
ATOM     16  C   UNL     1     -18.711  42.273 -13.918  0.00  0.00    +0.000 C 
BRANCH  16  17
ATOM     17  C   UNL     1     -19.247  43.519 -13.212  0.00  0.00    +0.000 C 
BRANCH  17  18
ATOM     18  C   UNL     1     -18.160  44.580 -13.006  0.00  0.00    +0.000 C 
BRANCH  18  19
ATOM     19  C   UNL     1     -17.510  44.521 -11.620  0.00  0.00    +0.000 C 
BRANCH  19  20
ATOM     20  C   UNL     1     -16.280  43.613 -11.566  0.00  0.00    +0.000 C 
ATOM     21  C   UNL     1     -15.445  43.735 -12.832  0.00  0.00    +0.000 C 
ENDBRANCH  19  20
ENDBRANCH  18  19
ENDBRANCH  17  18
ENDBRANCH  16  17
ENDBRANCH   4  16
TORSDOF 6
ENDMDL
MODEL 2
REMARK VINA RESULT:    -6.092      2.231      5.875
REMARK INTER + INTRA:          -8.990
REMARK INTER:                  -8.517
REMARK INTRA:                  -0.473
REMARK UNBOUND:                -0.761
REMARK  Name = 54420120
REMARK  7 active torsions:
REMARK  status: ('A' for Active; 'I' for Inactive)
REMARK    1  A    between atoms: C_6  and  C_7
REMARK    2  A    between atoms: C_6  and  C_8
REMARK    3  A    between atoms: C_7  and  C_10
REMARK    4  A    between atoms: C_8  and  C_9
REMARK    5  A    between atoms: C_9  and  C_11
REMARK    6  A    between atoms: C_10  and  C_12
REMARK    7  A    between atoms: C_13  and  C_14
REMARK                            x       y       z     vdW  Elec       q    Type
REMARK                         _______ _______ _______ _____ _____    ______ ____
ROOT
ATOM      1  O   UNL     1     -19.611  39.616 -12.731  0.00  0.00    +0.000 OA
ATOM      2  O   UNL     1     -19.125  41.965 -14.161  0.00  0.00    +0.000 OA
ATOM      3  N   UNL     1     -18.863  41.651 -11.868  0.00  0.00    +0.000 N 
ATOM      4  C   UNL     1     -19.254  40.311 -11.784  0.00  0.00    +0.000 C 
ATOM      5  C   UNL     1     -18.824  42.390 -13.048  0.00  0.00    +0.000 C 
ATOM      6  H   UNL     1     -18.561  42.089 -11.003  0.00  0.00    +0.000 HD
ENDROOT
BRANCH   5   9
ATOM      7  N   UNL     1     -17.401  45.539 -11.550  0.00  0.00    +0.000 NA
ATOM      8  N   UNL     1     -17.225  47.752 -12.416  0.00  0.00    +0.000 N 
ATOM      9  C   UNL     1     -18.411  43.810 -12.904  0.00  0.00    +0.000 A 
ATOM     10  C   UNL     1     -18.625  44.726 -13.929  0.00  0.00    +0.000 A 
ATOM     11  C   UNL     1     -17.800  44.262 -11.746  0.00  0.00    +0.000 A 
ATOM     12  C   UNL     1     -18.227  46.049 -13.765  0.00  0.00    +0.000 A 
ATOM     13  C   UNL     1     -17.625  46.401 -12.567  0.00  0.00    +0.000 A 
ATOM     14  H   UNL     1     -16.984  48.279 -13.246  0.00  0.00    +0.000 HD
ATOM     15  H   UNL     1     -16.780  48.003 -11.542  0.00  0.00    +0.000 HD
ENDBRANCH   5   9
BRANCH   4  16
ATOM     16  C   UNL     1     -19.214  39.812 -10.349  0.00  0.00    +0.000 C 
BRANCH  16  17
ATOM     17  C   UNL     1     -19.056  40.928  -9.315  0.00  0.00    +0.000 C 
BRANCH  17  18
ATOM     18  C   UNL     1     -20.333  41.141  -8.494  0.00  0.00    +0.000 C 
BRANCH  18  19
ATOM     19  C   UNL     1     -20.068  41.732  -7.105  0.00  0.00    +0.000 C 
BRANCH  19  20
ATOM     20  C   UNL     1     -21.342  42.145  -6.369  0.00  0.00    +0.000 C 
ATOM     21  C   UNL     1     -22.579  41.545  -7.023  0.00  0.00    +0.000 C 
ENDBRANCH  19  20
ENDBRANCH  18  19
ENDBRANCH  17  18
ENDBRANCH  16  17
ENDBRANCH   4  16
TORSDOF 6
ENDMDL
MODEL 3
REMARK VINA RESULT:    -5.928      2.377      6.350
REMARK INTER + INTRA:          -8.768
REMARK INTER:                  -8.360
REMARK INTRA:                  -0.408
REMARK UNBOUND:                -0.761
REMARK  Name = 54420120
REMARK  7 active torsions:
REMARK  status: ('A' for Active; 'I' for Inactive)
REMARK    1  A    between atoms: C_6  and  C_7
REMARK    2  A    between atoms: C_6  and  C_8
REMARK    3  A    between atoms: C_7  and  C_10
REMARK    4  A    between atoms: C_8  and  C_9
REMARK    5  A    between atoms: C_9  and  C_11
REMARK    6  A    between atoms: C_10  and  C_12
REMARK    7  A    between atoms: C_13  and  C_14
REMARK                            x       y       z     vdW  Elec       q    Type
REMARK                         _______ _______ _______ _____ _____    ______ ____
ROOT
ATOM      1  O   UNL     1     -17.271  40.114  -9.872  0.00  0.00    +0.000 OA
ATOM      2  O   UNL     1     -16.236  42.202 -11.411  0.00  0.00    +0.000 OA
ATOM      3  N   UNL     1     -18.482  41.788 -10.958  0.00  0.00    +0.000 N 
ATOM      4  C   UNL     1     -18.339  40.644 -10.167  0.00  0.00    +0.000 C 
ATOM      5  C   UNL     1     -17.424  42.491 -11.528  0.00  0.00    +0.000 C 
ATOM      6  H   UNL     1     -19.429  42.131 -11.088  0.00  0.00    +0.000 HD
ENDROOT
BRANCH   5   9
ATOM      7  N   UNL     1     -18.576  44.516 -14.489  0.00  0.00    +0.000 NA
ATOM      8  N   UNL     1     -18.885  46.862 -14.764  0.00  0.00    +0.000 N 
ATOM      9  C   UNL     1     -17.805  43.660 -12.363  0.00  0.00    +0.000 A 
ATOM     10  C   UNL     1     -17.759  44.952 -11.850  0.00  0.00    +0.000 A 
ATOM     11  C   UNL     1     -18.217  43.497 -13.676  0.00  0.00    +0.000 A 
ATOM     12  C   UNL     1     -18.122  46.026 -12.656  0.00  0.00    +0.000 A 
ATOM     13  C   UNL     1     -18.519  45.757 -13.956  0.00  0.00    +0.000 A 
ATOM     14  H   UNL     1     -19.257  47.688 -14.311  0.00  0.00    +0.000 HD
ATOM     15  H   UNL     1     -19.180  46.660 -15.711  0.00  0.00    +0.000 HD
ENDBRANCH   5   9
BRANCH   4  16
ATOM     16  C   UNL     1     -19.690  40.102  -9.726  0.00  0.00    +0.000 C 
BRANCH  16  17
ATOM     17  C   UNL     1     -19.869  40.062  -8.209  0.00  0.00    +0.000 C 
BRANCH  17  18
ATOM     18  C   UNL     1     -20.309  41.417  -7.642  0.00  0.00    +0.000 C 
BRANCH  18  19
ATOM     19  C   UNL     1     -21.831  41.582  -7.580  0.00  0.00    +0.000 C 
BRANCH  19  20
ATOM     20  C   UNL     1     -22.306  42.379  -6.364  0.00  0.00    +0.000 C 
ATOM     21  C   UNL     1     -21.256  42.387  -5.262  0.00  0.00    +0.000 C 
ENDBRANCH  19  20
ENDBRANCH  18  19
ENDBRANCH  17  18
ENDBRANCH  16  17
ENDBRANCH   4  16
TORSDOF 6
ENDMDL
MODEL 4
REMARK VINA RESULT:    -5.438      3.978      6.166
REMARK INTER + INTRA:          -8.106
REMARK INTER:                  -7.592
REMARK INTRA:                  -0.514
REMARK UNBOUND:                -0.761
REMARK  Name = 54420120
REMARK  7 active torsions:
REMARK  status: ('A' for Active; 'I' for Inactive)
REMARK    1  A    between atoms: C_6  and  C_7
REMARK    2  A    between atoms: C_6  and  C_8
REMARK    3  A    between atoms: C_7  and  C_10
REMARK    4  A    between atoms: C_8  and  C_9
REMARK    5  A    between atoms: C_9  and  C_11
REMARK    6  A    between atoms: C_10  and  C_12
REMARK    7  A    between atoms: C_13  and  C_14
REMARK                            x       y       z     vdW  Elec       q    Type
REMARK                         _______ _______ _______ _____ _____    ______ ____
ROOT
ATOM      1  O   UNL     1     -20.913  42.714 -15.818  0.00  0.00    +0.000 OA
ATOM      2  O   UNL     1     -19.653  41.605 -13.586  0.00  0.00    +0.000 OA
ATOM      3  N   UNL     1     -18.854  43.341 -14.916  0.00  0.00    +0.000 N 
ATOM      4  C   UNL     1     -19.909  43.421 -15.830  0.00  0.00    +0.000 C 
ATOM      5  C   UNL     1     -18.794  42.440 -13.855  0.00  0.00    +0.000 C 
ATOM      6  H   UNL     1     -18.103  44.016 -15.032  0.00  0.00    +0.000 HD
ENDROOT
BRANCH   5   9
ATOM      7  N   UNL     1     -16.166  41.509 -11.323  0.00  0.00    +0.000 NA
ATOM      8  N   UNL     1     -14.152  42.604 -10.671  0.00  0.00    +0.000 N 
ATOM      9  C   UNL     1     -17.563  42.505 -13.026  0.00  0.00    +0.000 A 
ATOM     10  C   UNL     1     -16.672  43.566 -13.148  0.00  0.00    +0.000 A 
ATOM     11  C   UNL     1     -17.266  41.511 -12.108  0.00  0.00    +0.000 A 
ATOM     12  C   UNL     1     -15.527  43.598 -12.358  0.00  0.00    +0.000 A 
ATOM     13  C   UNL     1     -15.322  42.555 -11.469  0.00  0.00    +0.000 A 
ATOM     14  H   UNL     1     -13.341  43.089 -11.034  0.00  0.00    +0.000 HD
ATOM     15  H   UNL     1     -14.004  41.836 -10.028  0.00  0.00    +0.000 HD
ENDBRANCH   5   9
BRANCH   4  16
ATOM     16  C   UNL     1     -19.651  44.488 -16.882  0.00  0.00    +0.000 C 
BRANCH  16  17
ATOM     17  C   UNL     1     -20.488  44.314 -18.149  0.00  0.00    +0.000 C 
BRANCH  17  18
ATOM     18  C   UNL     1     -21.299  45.571 -18.485  0.00  0.00    +0.000 C 
BRANCH  18  19
ATOM     19  C   UNL     1     -22.237  46.007 -17.355  0.00  0.00    +0.000 C 
BRANCH  19  20
ATOM     20  C   UNL     1     -23.348  44.997 -17.066  0.00  0.00    +0.000 C 
ATOM     21  C   UNL     1     -24.706  45.525 -17.507  0.00  0.00    +0.000 C 
ENDBRANCH  19  20
ENDBRANCH  18  19
ENDBRANCH  17  18
ENDBRANCH  16  17
ENDBRANCH   4  16
TORSDOF 6
ENDMDL
MODEL 5
REMARK VINA RESULT:    -5.306      3.844      5.866
REMARK INTER + INTRA:          -7.928
REMARK INTER:                  -7.177
REMARK INTRA:                  -0.750
REMARK UNBOUND:                -0.761
REMARK  Name = 54420120
REMARK  7 active torsions:
REMARK  status: ('A' for Active; 'I' for Inactive)
REMARK    1  A    between atoms: C_6  and  C_7
REMARK    2  A    between atoms: C_6  and  C_8
REMARK    3  A    between atoms: C_7  and  C_10
REMARK    4  A    between atoms: C_8  and  C_9
REMARK    5  A    between atoms: C_9  and  C_11
REMARK    6  A    between atoms: C_10  and  C_12
REMARK    7  A    between atoms: C_13  and  C_14
REMARK                            x       y       z     vdW  Elec       q    Type
REMARK                         _______ _______ _______ _____ _____    ______ ____
ROOT
ATOM      1  O   UNL     1     -18.980  47.219 -14.745  0.00  0.00    +0.000 OA
ATOM      2  O   UNL     1     -18.876  45.607 -12.467  0.00  0.00    +0.000 OA
ATOM      3  N   UNL     1     -18.777  44.895 -14.682  0.00  0.00    +0.000 N 
ATOM      4  C   UNL     1     -18.876  46.138 -15.316  0.00  0.00    +0.000 C 
ATOM      5  C   UNL     1     -18.784  44.710 -13.301  0.00  0.00    +0.000 C 
ATOM      6  H   UNL     1     -18.662  44.087 -15.287  0.00  0.00    +0.000 HD
ENDROOT
BRANCH   5   9
ATOM      7  N   UNL     1     -19.443  41.009 -13.065  0.00  0.00    +0.000 NA
ATOM      8  N   UNL     1     -18.541  39.340 -11.624  0.00  0.00    +0.000 N 
ATOM      9  C   UNL     1     -18.703  43.300 -12.842  0.00  0.00    +0.000 A 
ATOM     10  C   UNL     1     -17.855  42.933 -11.802  0.00  0.00    +0.000 A 
ATOM     11  C   UNL     1     -19.468  42.309 -13.435  0.00  0.00    +0.000 A 
ATOM     12  C   UNL     1     -17.801  41.604 -11.394  0.00  0.00    +0.000 A 
ATOM     13  C   UNL     1     -18.608  40.689 -12.052  0.00  0.00    +0.000 A 
ATOM     14  H   UNL     1     -17.678  39.008 -11.212  0.00  0.00    +0.000 HD
ATOM     15  H   UNL     1     -19.127  38.675 -12.112  0.00  0.00    +0.000 HD
ENDBRANCH   5   9
BRANCH   4  16
ATOM     16  C   UNL     1     -18.869  45.989 -16.829  0.00  0.00    +0.000 C 
BRANCH  16  17
ATOM     17  C   UNL     1     -20.154  46.477 -17.499  0.00  0.00    +0.000 C 
BRANCH  17  18
ATOM     18  C   UNL     1     -21.006  45.318 -18.029  0.00  0.00    +0.000 C 
BRANCH  18  19
ATOM     19  C   UNL     1     -22.093  44.867 -17.048  0.00  0.00    +0.000 C 
BRANCH  19  20
ATOM     20  C   UNL     1     -21.873  43.454 -16.507  0.00  0.00    +0.000 C 
ATOM     21  C   UNL     1     -20.667  42.793 -17.158  0.00  0.00    +0.000 C 
ENDBRANCH  19  20
ENDBRANCH  18  19
ENDBRANCH  17  18
ENDBRANCH  16  17
ENDBRANCH   4  16
TORSDOF 6
ENDMDL
