MODEL 1
REMARK VINA RESULT:    -5.971      0.000      0.000
REMARK INTER + INTRA:          -5.971
REMARK INTER:                  -5.971
REMARK INTRA:                   0.000
REMARK UNBOUND:                 0.000
REMARK  Name = 54671771
REMARK  0 active torsions:
REMARK  status: ('A' for Active; 'I' for Inactive)
REMARK                            x       y       z     vdW  Elec       q    Type
REMARK                         _______ _______ _______ _____ _____    ______ ____
ROOT
ATOM      1 CL   UNL     1     -19.184  39.385 -11.263  0.00  0.00    +0.000 Cl
ATOM      2  O   UNL     1     -17.758  46.584 -14.172  0.00  0.00    +0.000 OA
ATOM      3  N   UNL     1     -18.839  42.798 -13.296  0.00  0.00    +0.000 N 
ATOM      4  N   UNL     1     -17.709  44.841 -12.695  0.00  0.00    +0.000 NA
ATOM      5  N   UNL     1     -19.998  42.610 -15.425  0.00  0.00    +0.000 NA
ATOM      6  C   UNL     1     -19.258  43.340 -14.548  0.00  0.00    +0.000 A 
ATOM      7  C   UNL     1     -18.078  43.613 -12.446  0.00  0.00    +0.000 A 
ATOM      8  C   UNL     1     -18.882  44.652 -14.851  0.00  0.00    +0.000 A 
ATOM      9  C   UNL     1     -19.161  41.504 -12.901  0.00  0.00    +0.000 A 
ATOM     10  C   UNL     1     -18.074  45.433 -13.883  0.00  0.00    +0.000 A 
ATOM     11  C   UNL     1     -17.628  43.057 -11.120  0.00  0.00    +0.000 A 
ATOM     12  C   UNL     1     -19.271  45.221 -16.066  0.00  0.00    +0.000 A 
ATOM     13  C   UNL     1     -18.770  40.989 -11.725  0.00  0.00    +0.000 A 
ATOM     14  C   UNL     1     -17.982  41.798 -10.817  0.00  0.00    +0.000 A 
ATOM     15  C   UNL     1     -20.026  44.474 -16.958  0.00  0.00    +0.000 A 
ATOM     16  C   UNL     1     -20.361  43.186 -16.594  0.00  0.00    +0.000 A 
ENDROOT
TORSDOF 0
ENDMDL
MODEL 2
REMARK VINA RESULT:    -5.945      2.507      4.709
REMARK INTER + INTRA:          -5.945
REMARK INTER:                  -5.945
REMARK INTRA:                   0.000
REMARK UNBOUND:                 0.000
REMARK  Name = 54671771
REMARK  0 active torsions:
REMARK  status: ('A' for Active; 'I' for Inactive)
REMARK                            x       y       z     vdW  Elec       q    Type
REMARK                         _______ _______ _______ _____ _____    ______ ____
ROOT
ATOM      1 CL   UNL     1     -21.327  43.628 -16.806  0.00  0.00    +0.000 Cl
ATOM      2  O   UNL     1     -15.865  43.052 -11.136  0.00  0.00    +0.000 OA
ATOM      3  N   UNL     1     -18.862  42.701 -13.811  0.00  0.00    +0.000 N 
ATOM      4  N   UNL     1     -17.040  43.966 -12.869  0.00  0.00    +0.000 NA
ATOM      5  N   UNL     1     -19.427  40.507 -12.928  0.00  0.00    +0.000 NA
ATOM      6  C   UNL     1     -18.649  41.622 -12.901  0.00  0.00    +0.000 A 
ATOM      7  C   UNL     1     -18.019  43.817 -13.721  0.00  0.00    +0.000 A 
ATOM      8  C   UNL     1     -17.610  41.745 -11.974  0.00  0.00    +0.000 A 
ATOM      9  C   UNL     1     -19.869  42.676 -14.770  0.00  0.00    +0.000 A 
ATOM     10  C   UNL     1     -16.771  42.969 -11.959  0.00  0.00    +0.000 A 
ATOM     11  C   UNL     1     -18.229  44.965 -14.673  0.00  0.00    +0.000 A 
ATOM     12  C   UNL     1     -17.367  40.713 -11.065  0.00  0.00    +0.000 A 
ATOM     13  C   UNL     1     -20.074  43.687 -15.628  0.00  0.00    +0.000 A 
ATOM     14  C   UNL     1     -19.224  44.859 -15.568  0.00  0.00    +0.000 A 
ATOM     15  C   UNL     1     -18.162  39.576 -11.094  0.00  0.00    +0.000 A 
ATOM     16  C   UNL     1     -19.169  39.523 -12.037  0.00  0.00    +0.000 A 
ENDROOT
TORSDOF 0
ENDMDL
MODEL 3
REMARK VINA RESULT:    -5.485      2.894      3.979
REMARK INTER + INTRA:          -5.485
REMARK INTER:                  -5.485
REMARK INTRA:                   0.000
REMARK UNBOUND:                 0.000
REMARK  Name = 54671771
REMARK  0 active torsions:
REMARK  status: ('A' for Active; 'I' for Inactive)
REMARK                            x       y       z     vdW  Elec       q    Type
REMARK                         _______ _______ _______ _____ _____    ______ ____
ROOT
ATOM      1 CL   UNL     1     -17.200  46.384 -11.806  0.00  0.00    +0.000 Cl
ATOM      2  O   UNL     1     -20.703  42.032 -17.383  0.00  0.00    +0.000 OA
ATOM      3  N   UNL     1     -18.919  44.773 -15.024  0.00  0.00    +0.000 N 
ATOM      4  N   UNL     1     -19.788  42.549 -15.354  0.00  0.00    +0.000 NA
ATOM      5  N   UNL     1     -19.021  46.416 -16.814  0.00  0.00    +0.000 NA
ATOM      6  C   UNL     1     -19.274  45.163 -16.350  0.00  0.00    +0.000 A 
ATOM      7  C   UNL     1     -19.212  43.463 -14.620  0.00  0.00    +0.000 A 
ATOM      8  C   UNL     1     -19.892  44.212 -17.167  0.00  0.00    +0.000 A 
ATOM      9  C   UNL     1     -18.301  45.645 -14.134  0.00  0.00    +0.000 A 
ATOM     10  C   UNL     1     -20.160  42.849 -16.646  0.00  0.00    +0.000 A 
ATOM     11  C   UNL     1     -18.845  43.035 -13.223  0.00  0.00    +0.000 A 
ATOM     12  C   UNL     1     -20.255  44.551 -18.473  0.00  0.00    +0.000 A 
ATOM     13  C   UNL     1     -17.966  45.284 -12.885  0.00  0.00    +0.000 A 
ATOM     14  C   UNL     1     -18.251  43.939 -12.429  0.00  0.00    +0.000 A 
ATOM     15  C   UNL     1     -19.997  45.830 -18.942  0.00  0.00    +0.000 A 
ATOM     16  C   UNL     1     -19.383  46.718 -18.081  0.00  0.00    +0.000 A 
ENDROOT
TORSDOF 0
ENDMDL
MODEL 4
REMARK VINA RESULT:    -5.460      3.168      5.453
REMARK INTER + INTRA:          -5.460
REMARK INTER:                  -5.460
REMARK INTRA:                   0.000
REMARK UNBOUND:                 0.000
REMARK  Name = 54671771
REMARK  0 active torsions:
REMARK  status: ('A' for Active; 'I' for Inactive)
REMARK                            x       y       z     vdW  Elec       q    Type
REMARK                         _______ _______ _______ _____ _____    ______ ____
ROOT
ATOM      1 CL   UNL     1     -20.058  46.488 -18.708  0.00  0.00    +0.000 Cl
ATOM      2  O   UNL     1     -19.023  41.602 -12.595  0.00  0.00    +0.000 OA
ATOM      3  N   UNL     1     -19.201  44.572 -15.317  0.00  0.00    +0.000 N 
ATOM      4  N   UNL     1     -19.705  42.309 -14.658  0.00  0.00    +0.000 NA
ATOM      5  N   UNL     1     -17.995  46.055 -13.814  0.00  0.00    +0.000 NA
ATOM      6  C   UNL     1     -18.545  44.840 -14.078  0.00  0.00    +0.000 A 
ATOM      7  C   UNL     1     -19.743  43.294 -15.514  0.00  0.00    +0.000 A 
ATOM      8  C   UNL     1     -18.484  43.809 -13.135  0.00  0.00    +0.000 A 
ATOM      9  C   UNL     1     -19.315  45.529 -16.319  0.00  0.00    +0.000 A 
ATOM     10  C   UNL     1     -19.089  42.490 -13.439  0.00  0.00    +0.000 A 
ATOM     11  C   UNL     1     -20.439  42.994 -16.816  0.00  0.00    +0.000 A 
ATOM     12  C   UNL     1     -17.851  44.029 -11.909  0.00  0.00    +0.000 A 
ATOM     13  C   UNL     1     -19.931  45.283 -17.486  0.00  0.00    +0.000 A 
ATOM     14  C   UNL     1     -20.505  43.976 -17.730  0.00  0.00    +0.000 A 
ATOM     15  C   UNL     1     -17.290  45.269 -11.643  0.00  0.00    +0.000 A 
ATOM     16  C   UNL     1     -17.388  46.240 -12.620  0.00  0.00    +0.000 A 
ENDROOT
TORSDOF 0
ENDMDL
MODEL 5
REMARK VINA RESULT:    -5.331      2.969      5.025
REMARK INTER + INTRA:          -5.331
REMARK INTER:                  -5.331
REMARK INTRA:                   0.000
REMARK UNBOUND:                 0.000
REMARK  Name = 54671771
REMARK  0 active torsions:
REMARK  status: ('A' for Active; 'I' for Inactive)
REMARK                            x       y       z     vdW  Elec       q    Type
REMARK                         _______ _______ _______ _____ _____    ______ ____
ROOT
ATOM      1 CL   UNL     1     -15.940  47.843 -11.057  0.00  0.00    +0.000 Cl
ATOM      2  O   UNL     1     -20.034  42.387 -15.030  0.00  0.00    +0.000 OA
ATOM      3  N   UNL     1     -17.885  44.674 -12.496  0.00  0.00    +0.000 N 
ATOM      4  N   UNL     1     -19.037  44.396 -14.595  0.00  0.00    +0.000 NA
ATOM      5  N   UNL     1     -17.794  42.851 -10.889  0.00  0.00    +0.000 NA
ATOM      6  C   UNL     1     -18.201  43.342 -12.090  0.00  0.00    +0.000 A 
ATOM      7  C   UNL     1     -18.340  45.107 -13.749  0.00  0.00    +0.000 A 
ATOM      8  C   UNL     1     -18.945  42.551 -12.969  0.00  0.00    +0.000 A 
ATOM      9  C   UNL     1     -17.150  45.540 -11.695  0.00  0.00    +0.000 A 
ATOM     10  C   UNL     1     -19.381  43.102 -14.276  0.00  0.00    +0.000 A 
ATOM     11  C   UNL     1     -18.016  46.510 -14.194  0.00  0.00    +0.000 A 
ATOM     12  C   UNL     1     -19.276  41.241 -12.612  0.00  0.00    +0.000 A 
ATOM     13  C   UNL     1     -16.851  46.793 -12.071  0.00  0.00    +0.000 A 
ATOM     14  C   UNL     1     -17.302  47.280 -13.358  0.00  0.00    +0.000 A 
ATOM     15  C   UNL     1     -18.860  40.743 -11.386  0.00  0.00    +0.000 A 
ATOM     16  C   UNL     1     -18.128  41.581 -10.568  0.00  0.00    +0.000 A 
ENDROOT
TORSDOF 0
ENDMDL
