MODEL 1
REMARK VINA RESULT:    -7.674      0.000      0.000
REMARK INTER + INTRA:         -10.506
REMARK INTER:                  -9.917
REMARK INTRA:                  -0.589
REMARK UNBOUND:                -0.589
REMARK  Name = 54943559
REMARK  5 active torsions:
REMARK  status: ('A' for Active; 'I' for Inactive)
REMARK    1  A    between atoms: N_2  and  C_7
REMARK    2  A    between atoms: N_2  and  C_9
REMARK    3  A    between atoms: C_6  and  C_7
REMARK    4  A    between atoms: C_6  and  C_8
REMARK    5  A    between atoms: C_10  and  C_17
REMARK                            x       y       z     vdW  Elec       q    Type
REMARK                         _______ _______ _______ _____ _____    ______ ____
ROOT
ATOM      1  N   UNL     1     -17.181  43.167 -11.102  0.00  0.00    +0.000 NA
ATOM      2  C   UNL     1     -17.736  41.941 -10.982  0.00  0.00    +0.000 A 
ATOM      3  C   UNL     1     -18.341  41.258 -12.024  0.00  0.00    +0.000 A 
ATOM      4  C   UNL     1     -18.381  41.874 -13.270  0.00  0.00    +0.000 A 
ATOM      5  C   UNL     1     -17.821  43.137 -13.433  0.00  0.00    +0.000 A 
ATOM      6  C   UNL     1     -17.239  43.735 -12.327  0.00  0.00    +0.000 A 
ENDROOT
BRANCH   3   9
ATOM      7  O   UNL     1     -18.455  39.106 -11.073  0.00  0.00    +0.000 OA
ATOM      8  N   UNL     1     -20.068  39.643 -12.612  0.00  0.00    +0.000 N 
ATOM      9  C   UNL     1     -18.934  39.937 -11.864  0.00  0.00    +0.000 C 
ATOM     10  H   UNL     1     -20.478  40.312 -13.256  0.00  0.00    +0.000 HD
ATOM     11  H   UNL     1     -20.526  38.740 -12.534  0.00  0.00    +0.000 HD
ENDBRANCH   3   9
BRANCH   2  12
ATOM     12  N   UNL     1     -17.694  41.319  -9.708  0.00  0.00    +0.000 N 
ATOM     13  H   UNL     1     -16.857  40.784  -9.504  0.00  0.00    +0.000 HD
BRANCH  12  14
ATOM     14  C   UNL     1     -18.449  41.795  -8.595  0.00  0.00    +0.000 C 
BRANCH  14  15
ATOM     15  C   UNL     1     -19.373  40.704  -8.055  0.00  0.00    +0.000 C 
BRANCH  15  17
ATOM     16  N   UNL     1     -23.012  42.262  -6.361  0.00  0.00    +0.000 NA
ATOM     17  C   UNL     1     -20.650  41.250  -7.461  0.00  0.00    +0.000 A 
ATOM     18  C   UNL     1     -21.882  40.814  -7.934  0.00  0.00    +0.000 A 
ATOM     19  C   UNL     1     -20.596  42.191  -6.439  0.00  0.00    +0.000 A 
ATOM     20  C   UNL     1     -23.023  41.346  -7.356  0.00  0.00    +0.000 A 
ATOM     21  C   UNL     1     -21.795  42.662  -5.928  0.00  0.00    +0.000 A 
ENDBRANCH  15  17
ENDBRANCH  14  15
ENDBRANCH  12  14
ENDBRANCH   2  12
TORSDOF 5
ENDMDL
MODEL 2
REMARK VINA RESULT:    -6.980      1.706      5.808
REMARK INTER + INTRA:          -9.608
REMARK INTER:                  -8.868
REMARK INTRA:                  -0.740
REMARK UNBOUND:                -0.589
REMARK  Name = 54943559
REMARK  5 active torsions:
REMARK  status: ('A' for Active; 'I' for Inactive)
REMARK    1  A    between atoms: N_2  and  C_7
REMARK    2  A    between atoms: N_2  and  C_9
REMARK    3  A    between atoms: C_6  and  C_7
REMARK    4  A    between atoms: C_6  and  C_8
REMARK    5  A    between atoms: C_10  and  C_17
REMARK                            x       y       z     vdW  Elec       q    Type
REMARK                         _______ _______ _______ _____ _____    ______ ____
ROOT
ATOM      1  N   UNL     1     -18.798  42.279  -7.936  0.00  0.00    +0.000 NA
ATOM      2  C   UNL     1     -18.541  41.638  -9.098  0.00  0.00    +0.000 A 
ATOM      3  C   UNL     1     -19.367  40.672  -9.650  0.00  0.00    +0.000 A 
ATOM      4  C   UNL     1     -20.530  40.341  -8.964  0.00  0.00    +0.000 A 
ATOM      5  C   UNL     1     -20.828  40.978  -7.765  0.00  0.00    +0.000 A 
ATOM      6  C   UNL     1     -19.937  41.931  -7.298  0.00  0.00    +0.000 A 
ENDROOT
BRANCH   3   9
ATOM      7  O   UNL     1     -18.035  39.308 -11.033  0.00  0.00    +0.000 OA
ATOM      8  N   UNL     1     -19.971  40.129 -11.947  0.00  0.00    +0.000 N 
ATOM      9  C   UNL     1     -19.062  39.996 -10.903  0.00  0.00    +0.000 C 
ATOM     10  H   UNL     1     -20.820  40.678 -11.856  0.00  0.00    +0.000 HD
ATOM     11  H   UNL     1     -19.812  39.673 -12.839  0.00  0.00    +0.000 HD
ENDBRANCH   3   9
BRANCH   2  12
ATOM     12  N   UNL     1     -17.352  41.979  -9.790  0.00  0.00    +0.000 N 
ATOM     13  H   UNL     1     -16.688  41.224  -9.927  0.00  0.00    +0.000 HD
BRANCH  12  14
ATOM     14  C   UNL     1     -17.274  43.082 -10.689  0.00  0.00    +0.000 C 
BRANCH  14  15
ATOM     15  C   UNL     1     -16.857  42.623 -12.086  0.00  0.00    +0.000 C 
BRANCH  15  17
ATOM     16  N   UNL     1     -19.246  44.360 -15.218  0.00  0.00    +0.000 NA
ATOM     17  C   UNL     1     -17.695  43.232 -13.185  0.00  0.00    +0.000 A 
ATOM     18  C   UNL     1     -17.562  44.580 -13.497  0.00  0.00    +0.000 A 
ATOM     19  C   UNL     1     -18.600  42.447 -13.887  0.00  0.00    +0.000 A 
ATOM     20  C   UNL     1     -18.354  45.091 -14.513  0.00  0.00    +0.000 A 
ATOM     21  C   UNL     1     -19.346  43.053 -14.886  0.00  0.00    +0.000 A 
ENDBRANCH  15  17
ENDBRANCH  14  15
ENDBRANCH  12  14
ENDBRANCH   2  12
TORSDOF 5
ENDMDL
MODEL 3
REMARK VINA RESULT:    -6.783      2.071      5.704
REMARK INTER + INTRA:          -9.354
REMARK INTER:                  -8.617
REMARK INTRA:                  -0.737
REMARK UNBOUND:                -0.589
REMARK  Name = 54943559
REMARK  5 active torsions:
REMARK  status: ('A' for Active; 'I' for Inactive)
REMARK    1  A    between atoms: N_2  and  C_7
REMARK    2  A    between atoms: N_2  and  C_9
REMARK    3  A    between atoms: C_6  and  C_7
REMARK    4  A    between atoms: C_6  and  C_8
REMARK    5  A    between atoms: C_10  and  C_17
REMARK                            x       y       z     vdW  Elec       q    Type
REMARK                         _______ _______ _______ _____ _____    ______ ____
ROOT
ATOM      1  N   UNL     1     -18.457  42.135  -8.530  0.00  0.00    +0.000 NA
ATOM      2  C   UNL     1     -18.197  41.468  -9.676  0.00  0.00    +0.000 A 
ATOM      3  C   UNL     1     -18.987  40.446 -10.176  0.00  0.00    +0.000 A 
ATOM      4  C   UNL     1     -20.117  40.084  -9.452  0.00  0.00    +0.000 A 
ATOM      5  C   UNL     1     -20.418  40.746  -8.267  0.00  0.00    +0.000 A 
ATOM      6  C   UNL     1     -19.563  41.756  -7.853  0.00  0.00    +0.000 A 
ENDROOT
BRANCH   3   9
ATOM      7  O   UNL     1     -17.525  39.357 -11.667  0.00  0.00    +0.000 OA
ATOM      8  N   UNL     1     -19.725  39.500 -12.297  0.00  0.00    +0.000 N 
ATOM      9  C   UNL     1     -18.678  39.743 -11.414  0.00  0.00    +0.000 C 
ATOM     10  H   UNL     1     -20.675  39.799 -12.102  0.00  0.00    +0.000 HD
ATOM     11  H   UNL     1     -19.568  39.008 -13.170  0.00  0.00    +0.000 HD
ENDBRANCH   3   9
BRANCH   2  12
ATOM     12  N   UNL     1     -17.041  41.841 -10.409  0.00  0.00    +0.000 N 
ATOM     13  H   UNL     1     -16.490  41.077 -10.785  0.00  0.00    +0.000 HD
BRANCH  12  14
ATOM     14  C   UNL     1     -16.909  43.111 -11.043  0.00  0.00    +0.000 C 
BRANCH  14  15
ATOM     15  C   UNL     1     -18.022  43.330 -12.067  0.00  0.00    +0.000 C 
BRANCH  15  17
ATOM     16  N   UNL     1     -18.274  47.401 -13.447  0.00  0.00    +0.000 NA
ATOM     17  C   UNL     1     -18.110  44.758 -12.551  0.00  0.00    +0.000 A 
ATOM     18  C   UNL     1     -17.931  45.809 -11.659  0.00  0.00    +0.000 A 
ATOM     19  C   UNL     1     -18.370  45.025 -13.890  0.00  0.00    +0.000 A 
ATOM     20  C   UNL     1     -18.023  47.100 -12.153  0.00  0.00    +0.000 A 
ATOM     21  C   UNL     1     -18.441  46.351 -14.284  0.00  0.00    +0.000 A 
ENDBRANCH  15  17
ENDBRANCH  14  15
ENDBRANCH  12  14
ENDBRANCH   2  12
TORSDOF 5
ENDMDL
MODEL 4
REMARK VINA RESULT:    -6.522      2.398      6.469
REMARK INTER + INTRA:          -9.016
REMARK INTER:                  -8.393
REMARK INTRA:                  -0.623
REMARK UNBOUND:                -0.589
REMARK  Name = 54943559
REMARK  5 active torsions:
REMARK  status: ('A' for Active; 'I' for Inactive)
REMARK    1  A    between atoms: N_2  and  C_7
REMARK    2  A    between atoms: N_2  and  C_9
REMARK    3  A    between atoms: C_6  and  C_7
REMARK    4  A    between atoms: C_6  and  C_8
REMARK    5  A    between atoms: C_10  and  C_17
REMARK                            x       y       z     vdW  Elec       q    Type
REMARK                         _______ _______ _______ _____ _____    ______ ____
ROOT
ATOM      1  N   UNL     1     -18.560  42.280  -8.256  0.00  0.00    +0.000 NA
ATOM      2  C   UNL     1     -18.409  41.626  -9.429  0.00  0.00    +0.000 A 
ATOM      3  C   UNL     1     -19.276  40.650  -9.891  0.00  0.00    +0.000 A 
ATOM      4  C   UNL     1     -20.370  40.323  -9.097  0.00  0.00    +0.000 A 
ATOM      5  C   UNL     1     -20.559  40.973  -7.882  0.00  0.00    +0.000 A 
ATOM      6  C   UNL     1     -19.634  41.936  -7.511  0.00  0.00    +0.000 A 
ENDROOT
BRANCH   3   9
ATOM      7  O   UNL     1     -18.145  39.164 -11.326  0.00  0.00    +0.000 OA
ATOM      8  N   UNL     1     -20.004  40.206 -12.173  0.00  0.00    +0.000 N 
ATOM      9  C   UNL     1     -19.085  39.960 -11.159  0.00  0.00    +0.000 C 
ATOM     10  H   UNL     1     -20.783  40.845 -12.052  0.00  0.00    +0.000 HD
ATOM     11  H   UNL     1     -19.922  39.746 -13.074  0.00  0.00    +0.000 HD
ENDBRANCH   3   9
BRANCH   2  12
ATOM     12  N   UNL     1     -17.289  41.962 -10.232  0.00  0.00    +0.000 N 
ATOM     13  H   UNL     1     -16.652  41.202 -10.444  0.00  0.00    +0.000 HD
BRANCH  12  14
ATOM     14  C   UNL     1     -17.288  43.077 -11.121  0.00  0.00    +0.000 C 
BRANCH  14  15
ATOM     15  C   UNL     1     -16.196  42.932 -12.180  0.00  0.00    +0.000 C 
BRANCH  15  17
ATOM     16  N   UNL     1     -12.813  45.502 -11.482  0.00  0.00    +0.000 NA
ATOM     17  C   UNL     1     -15.009  43.833 -11.936  0.00  0.00    +0.000 A 
ATOM     18  C   UNL     1     -13.788  43.290 -11.555  0.00  0.00    +0.000 A 
ATOM     19  C   UNL     1     -15.136  45.209 -12.090  0.00  0.00    +0.000 A 
ATOM     20  C   UNL     1     -12.730  44.160 -11.342  0.00  0.00    +0.000 A 
ATOM     21  C   UNL     1     -14.018  45.993 -11.853  0.00  0.00    +0.000 A 
ENDBRANCH  15  17
ENDBRANCH  14  15
ENDBRANCH  12  14
ENDBRANCH   2  12
TORSDOF 5
ENDMDL
MODEL 5
REMARK VINA RESULT:    -6.493      1.561      2.622
REMARK INTER + INTRA:          -8.980
REMARK INTER:                  -8.482
REMARK INTRA:                  -0.497
REMARK UNBOUND:                -0.589
REMARK  Name = 54943559
REMARK  5 active torsions:
REMARK  status: ('A' for Active; 'I' for Inactive)
REMARK    1  A    between atoms: N_2  and  C_7
REMARK    2  A    between atoms: N_2  and  C_9
REMARK    3  A    between atoms: C_6  and  C_7
REMARK    4  A    between atoms: C_6  and  C_8
REMARK    5  A    between atoms: C_10  and  C_17
REMARK                            x       y       z     vdW  Elec       q    Type
REMARK                         _______ _______ _______ _____ _____    ______ ____
ROOT
ATOM      1  N   UNL     1     -18.560  39.387 -11.094  0.00  0.00    +0.000 NA
ATOM      2  C   UNL     1     -17.889  40.491 -10.698  0.00  0.00    +0.000 A 
ATOM      3  C   UNL     1     -17.540  41.532 -11.543  0.00  0.00    +0.000 A 
ATOM      4  C   UNL     1     -17.902  41.432 -12.882  0.00  0.00    +0.000 A 
ATOM      5  C   UNL     1     -18.594  40.311 -13.327  0.00  0.00    +0.000 A 
ATOM      6  C   UNL     1     -18.896  39.325 -12.402  0.00  0.00    +0.000 A 
ENDROOT
BRANCH   3   9
ATOM      7  O   UNL     1     -17.407  43.692 -10.614  0.00  0.00    +0.000 OA
ATOM      8  N   UNL     1     -15.425  42.687 -11.181  0.00  0.00    +0.000 N 
ATOM      9  C   UNL     1     -16.813  42.708 -11.087  0.00  0.00    +0.000 C 
ATOM     10  H   UNL     1     -14.922  41.889 -11.556  0.00  0.00    +0.000 HD
ATOM     11  H   UNL     1     -14.869  43.477 -10.871  0.00  0.00    +0.000 HD
ENDBRANCH   3   9
BRANCH   2  12
ATOM     12  N   UNL     1     -17.520  40.584  -9.332  0.00  0.00    +0.000 N 
ATOM     13  H   UNL     1     -16.593  40.954  -9.148  0.00  0.00    +0.000 HD
BRANCH  12  14
ATOM     14  C   UNL     1     -18.478  40.681  -8.281  0.00  0.00    +0.000 C 
BRANCH  14  15
ATOM     15  C   UNL     1     -19.781  41.302  -8.784  0.00  0.00    +0.000 C 
BRANCH  15  17
ATOM     16  N   UNL     1     -22.608  42.085  -5.632  0.00  0.00    +0.000 NA
ATOM     17  C   UNL     1     -20.772  41.576  -7.678  0.00  0.00    +0.000 A 
ATOM     18  C   UNL     1     -22.103  41.202  -7.826  0.00  0.00    +0.000 A 
ATOM     19  C   UNL     1     -20.357  42.204  -6.510  0.00  0.00    +0.000 A 
ATOM     20  C   UNL     1     -22.973  41.476  -6.783  0.00  0.00    +0.000 A 
ATOM     21  C   UNL     1     -21.305  42.434  -5.526  0.00  0.00    +0.000 A 
ENDBRANCH  15  17
ENDBRANCH  14  15
ENDBRANCH  12  14
ENDBRANCH   2  12
TORSDOF 5
ENDMDL
