MODEL 1
REMARK VINA RESULT:    -5.866      0.000      0.000
REMARK INTER + INTRA:          -9.272
REMARK INTER:                  -8.266
REMARK INTRA:                  -1.006
REMARK UNBOUND:                -1.006
REMARK  Name = 54950730
REMARK  9 active torsions:
REMARK  status: ('A' for Active; 'I' for Inactive)
REMARK    1  A    between atoms: N_2  and  C_6
REMARK    2  A    between atoms: N_2  and  C_11
REMARK    3  A    between atoms: C_5  and  C_6
REMARK    4  A    between atoms: C_5  and  C_7
REMARK    5  A    between atoms: C_6  and  C_9
REMARK    6  A    between atoms: C_7  and  C_8
REMARK    7  A    between atoms: C_8  and  C_10
REMARK    8  A    between atoms: C_10  and  C_12
REMARK    9  A    between atoms: C_13  and  C_15
REMARK                            x       y       z     vdW  Elec       q    Type
REMARK                         _______ _______ _______ _____ _____    ______ ____
ROOT
ATOM      1  N   UNL     1     -18.504  42.226  -8.339  0.00  0.00    +0.000 NA
ATOM      2  C   UNL     1     -18.408  41.535  -9.497  0.00  0.00    +0.000 A 
ATOM      3  C   UNL     1     -19.329  40.589  -9.916  0.00  0.00    +0.000 A 
ATOM      4  C   UNL     1     -20.422  40.337  -9.093  0.00  0.00    +0.000 A 
ATOM      5  C   UNL     1     -19.580  41.954  -7.566  0.00  0.00    +0.000 A 
ATOM      6  C   UNL     1     -20.556  41.028  -7.894  0.00  0.00    +0.000 A 
ENDROOT
BRANCH   3   9
ATOM      7  O   UNL     1     -18.376  38.935 -11.295  0.00  0.00    +0.000 OA
ATOM      8  N   UNL     1     -20.036  40.219 -12.218  0.00  0.00    +0.000 N 
ATOM      9  C   UNL     1     -19.196  39.859 -11.168  0.00  0.00    +0.000 C 
ATOM     10  H   UNL     1     -19.990  39.739 -13.111  0.00  0.00    +0.000 HD
ATOM     11  H   UNL     1     -20.718  40.966 -12.130  0.00  0.00    +0.000 HD
ENDBRANCH   3   9
BRANCH   2  12
ATOM     12  N   UNL     1     -17.317  41.789 -10.309  0.00  0.00    +0.000 N 
ATOM     13  H   UNL     1     -16.862  40.986 -10.735  0.00  0.00    +0.000 HD
BRANCH  12  14
ATOM     14  C   UNL     1     -17.071  43.068 -10.943  0.00  0.00    +0.000 C 
ATOM     15  C   UNL     1     -18.023  43.215 -12.126  0.00  0.00    +0.000 C 
BRANCH  14  16
ATOM     16  C   UNL     1     -15.610  43.163 -11.401  0.00  0.00    +0.000 C 
BRANCH  16  17
ATOM     17  C   UNL     1     -15.447  43.999 -12.676  0.00  0.00    +0.000 C 
BRANCH  17  18
ATOM     18  C   UNL     1     -14.715  45.313 -12.385  0.00  0.00    +0.000 C 
BRANCH  18  19
ATOM     19  C   UNL     1     -15.611  46.377 -11.746  0.00  0.00    +0.000 C 
ATOM     20  C   UNL     1     -16.848  46.704 -12.568  0.00  0.00    +0.000 C 
ENDBRANCH  18  19
ENDBRANCH  17  18
ENDBRANCH  16  17
ENDBRANCH  14  16
ENDBRANCH  12  14
ENDBRANCH   2  12
TORSDOF 7
ENDMDL
MODEL 2
REMARK VINA RESULT:    -5.265      4.058      5.629
REMARK INTER + INTRA:          -8.425
REMARK INTER:                  -7.502
REMARK INTRA:                  -0.923
REMARK UNBOUND:                -1.006
REMARK  Name = 54950730
REMARK  9 active torsions:
REMARK  status: ('A' for Active; 'I' for Inactive)
REMARK    1  A    between atoms: N_2  and  C_6
REMARK    2  A    between atoms: N_2  and  C_11
REMARK    3  A    between atoms: C_5  and  C_6
REMARK    4  A    between atoms: C_5  and  C_7
REMARK    5  A    between atoms: C_6  and  C_9
REMARK    6  A    between atoms: C_7  and  C_8
REMARK    7  A    between atoms: C_8  and  C_10
REMARK    8  A    between atoms: C_10  and  C_12
REMARK    9  A    between atoms: C_13  and  C_15
REMARK                            x       y       z     vdW  Elec       q    Type
REMARK                         _______ _______ _______ _____ _____    ______ ____
ROOT
ATOM      1  N   UNL     1     -19.703  40.785 -12.838  0.00  0.00    +0.000 NA
ATOM      2  C   UNL     1     -18.922  41.887 -12.806  0.00  0.00    +0.000 A 
ATOM      3  C   UNL     1     -17.665  41.931 -12.224  0.00  0.00    +0.000 A 
ATOM      4  C   UNL     1     -17.178  40.767 -11.638  0.00  0.00    +0.000 A 
ATOM      5  C   UNL     1     -19.196  39.673 -12.259  0.00  0.00    +0.000 A 
ATOM      6  C   UNL     1     -17.952  39.613 -11.652  0.00  0.00    +0.000 A 
ENDROOT
BRANCH   3   9
ATOM      7  O   UNL     1     -17.241  44.175 -11.646  0.00  0.00    +0.000 OA
ATOM      8  N   UNL     1     -15.599  43.079 -12.812  0.00  0.00    +0.000 N 
ATOM      9  C   UNL     1     -16.848  43.136 -12.202  0.00  0.00    +0.000 C 
ATOM     10  H   UNL     1     -14.985  43.888 -12.821  0.00  0.00    +0.000 HD
ATOM     11  H   UNL     1     -15.257  42.237 -13.264  0.00  0.00    +0.000 HD
ENDBRANCH   3   9
BRANCH   2  12
ATOM     12  N   UNL     1     -19.414  43.042 -13.388  0.00  0.00    +0.000 N 
ATOM     13  H   UNL     1     -19.574  43.835 -12.774  0.00  0.00    +0.000 HD
BRANCH  12  14
ATOM     14  C   UNL     1     -19.283  43.347 -14.797  0.00  0.00    +0.000 C 
ATOM     15  C   UNL     1     -18.822  44.794 -14.941  0.00  0.00    +0.000 C 
BRANCH  14  16
ATOM     16  C   UNL     1     -20.619  43.123 -15.516  0.00  0.00    +0.000 C 
BRANCH  16  17
ATOM     17  C   UNL     1     -20.444  42.885 -17.022  0.00  0.00    +0.000 C 
BRANCH  17  18
ATOM     18  C   UNL     1     -21.493  43.655 -17.828  0.00  0.00    +0.000 C 
BRANCH  18  19
ATOM     19  C   UNL     1     -22.003  44.912 -17.117  0.00  0.00    +0.000 C 
ATOM     20  C   UNL     1     -23.516  45.062 -17.160  0.00  0.00    +0.000 C 
ENDBRANCH  18  19
ENDBRANCH  17  18
ENDBRANCH  16  17
ENDBRANCH  14  16
ENDBRANCH  12  14
ENDBRANCH   2  12
TORSDOF 7
ENDMDL
MODEL 3
REMARK VINA RESULT:    -5.259      1.876      3.248
REMARK INTER + INTRA:          -8.417
REMARK INTER:                  -7.581
REMARK INTRA:                  -0.837
REMARK UNBOUND:                -1.006
REMARK  Name = 54950730
REMARK  9 active torsions:
REMARK  status: ('A' for Active; 'I' for Inactive)
REMARK    1  A    between atoms: N_2  and  C_6
REMARK    2  A    between atoms: N_2  and  C_11
REMARK    3  A    between atoms: C_5  and  C_6
REMARK    4  A    between atoms: C_5  and  C_7
REMARK    5  A    between atoms: C_6  and  C_9
REMARK    6  A    between atoms: C_7  and  C_8
REMARK    7  A    between atoms: C_8  and  C_10
REMARK    8  A    between atoms: C_10  and  C_12
REMARK    9  A    between atoms: C_13  and  C_15
REMARK                            x       y       z     vdW  Elec       q    Type
REMARK                         _______ _______ _______ _____ _____    ______ ____
ROOT
ATOM      1  N   UNL     1     -17.119  40.572 -12.618  0.00  0.00    +0.000 NA
ATOM      2  C   UNL     1     -17.217  41.049 -11.357  0.00  0.00    +0.000 A 
ATOM      3  C   UNL     1     -18.267  40.764 -10.499  0.00  0.00    +0.000 A 
ATOM      4  C   UNL     1     -19.283  39.937 -10.966  0.00  0.00    +0.000 A 
ATOM      5  C   UNL     1     -18.125  39.772 -13.036  0.00  0.00    +0.000 A 
ATOM      6  C   UNL     1     -19.218  39.428 -12.258  0.00  0.00    +0.000 A 
ENDROOT
BRANCH   3   9
ATOM      7  O   UNL     1     -18.120  42.493  -8.905  0.00  0.00    +0.000 OA
ATOM      8  N   UNL     1     -18.699  40.415  -8.127  0.00  0.00    +0.000 N 
ATOM      9  C   UNL     1     -18.345  41.295  -9.145  0.00  0.00    +0.000 C 
ATOM     10  H   UNL     1     -18.775  40.733  -7.166  0.00  0.00    +0.000 HD
ATOM     11  H   UNL     1     -18.894  39.435  -8.305  0.00  0.00    +0.000 HD
ENDBRANCH   3   9
BRANCH   2  12
ATOM     12  N   UNL     1     -16.204  41.873 -10.900  0.00  0.00    +0.000 N 
ATOM     13  H   UNL     1     -15.680  41.554 -10.090  0.00  0.00    +0.000 HD
BRANCH  12  14
ATOM     14  C   UNL     1     -15.556  42.875 -11.721  0.00  0.00    +0.000 C 
ATOM     15  C   UNL     1     -14.184  43.178 -11.126  0.00  0.00    +0.000 C 
BRANCH  14  16
ATOM     16  C   UNL     1     -16.415  44.144 -11.789  0.00  0.00    +0.000 C 
BRANCH  16  17
ATOM     17  C   UNL     1     -15.578  45.410 -12.010  0.00  0.00    +0.000 C 
BRANCH  17  18
ATOM     18  C   UNL     1     -16.470  46.650 -12.113  0.00  0.00    +0.000 C 
BRANCH  18  19
ATOM     19  C   UNL     1     -17.849  46.461 -11.476  0.00  0.00    +0.000 C 
ATOM     20  C   UNL     1     -18.479  47.759 -10.993  0.00  0.00    +0.000 C 
ENDBRANCH  18  19
ENDBRANCH  17  18
ENDBRANCH  16  17
ENDBRANCH  14  16
ENDBRANCH  12  14
ENDBRANCH   2  12
TORSDOF 7
ENDMDL
MODEL 4
REMARK VINA RESULT:    -4.656      7.136      8.633
REMARK INTER + INTRA:          -7.567
REMARK INTER:                  -6.842
REMARK INTRA:                  -0.726
REMARK UNBOUND:                -1.006
REMARK  Name = 54950730
REMARK  9 active torsions:
REMARK  status: ('A' for Active; 'I' for Inactive)
REMARK    1  A    between atoms: N_2  and  C_6
REMARK    2  A    between atoms: N_2  and  C_11
REMARK    3  A    between atoms: C_5  and  C_6
REMARK    4  A    between atoms: C_5  and  C_7
REMARK    5  A    between atoms: C_6  and  C_9
REMARK    6  A    between atoms: C_7  and  C_8
REMARK    7  A    between atoms: C_8  and  C_10
REMARK    8  A    between atoms: C_10  and  C_12
REMARK    9  A    between atoms: C_13  and  C_15
REMARK                            x       y       z     vdW  Elec       q    Type
REMARK                         _______ _______ _______ _____ _____    ______ ____
ROOT
ATOM      1  N   UNL     1     -21.498  46.245 -18.354  0.00  0.00    +0.000 NA
ATOM      2  C   UNL     1     -20.887  45.165 -17.818  0.00  0.00    +0.000 A 
ATOM      3  C   UNL     1     -21.532  44.213 -17.046  0.00  0.00    +0.000 A 
ATOM      4  C   UNL     1     -22.893  44.379 -16.809  0.00  0.00    +0.000 A 
ATOM      5  C   UNL     1     -22.821  46.373 -18.103  0.00  0.00    +0.000 A 
ATOM      6  C   UNL     1     -23.556  45.477 -17.345  0.00  0.00    +0.000 A 
ENDROOT
BRANCH   3   9
ATOM      7  O   UNL     1     -20.360  42.176 -17.202  0.00  0.00    +0.000 OA
ATOM      8  N   UNL     1     -20.736  42.992 -15.093  0.00  0.00    +0.000 N 
ATOM      9  C   UNL     1     -20.846  43.060 -16.479  0.00  0.00    +0.000 C 
ATOM     10  H   UNL     1     -20.262  42.215 -14.645  0.00  0.00    +0.000 HD
ATOM     11  H   UNL     1     -21.120  43.710 -14.486  0.00  0.00    +0.000 HD
ENDBRANCH   3   9
BRANCH   2  12
ATOM     12  N   UNL     1     -19.534  45.008 -18.055  0.00  0.00    +0.000 N 
ATOM     13  H   UNL     1     -19.049  44.303 -17.507  0.00  0.00    +0.000 HD
BRANCH  12  14
ATOM     14  C   UNL     1     -18.883  45.416 -19.282  0.00  0.00    +0.000 C 
ATOM     15  C   UNL     1     -18.627  44.176 -20.133  0.00  0.00    +0.000 C 
BRANCH  14  16
ATOM     16  C   UNL     1     -17.570  46.146 -18.971  0.00  0.00    +0.000 C 
BRANCH  16  17
ATOM     17  C   UNL     1     -16.336  45.268 -19.215  0.00  0.00    +0.000 C 
BRANCH  17  18
ATOM     18  C   UNL     1     -15.432  45.873 -20.292  0.00  0.00    +0.000 C 
BRANCH  18  19
ATOM     19  C   UNL     1     -13.972  45.424 -20.181  0.00  0.00    +0.000 C 
ATOM     20  C   UNL     1     -13.054  46.484 -19.592  0.00  0.00    +0.000 C 
ENDBRANCH  18  19
ENDBRANCH  17  18
ENDBRANCH  16  17
ENDBRANCH  14  16
ENDBRANCH  12  14
ENDBRANCH   2  12
TORSDOF 7
ENDMDL
MODEL 5
REMARK VINA RESULT:    -4.327     21.339     23.355
REMARK INTER + INTRA:          -7.104
REMARK INTER:                  -5.415
REMARK INTRA:                  -1.689
REMARK UNBOUND:                -1.006
REMARK  Name = 54950730
REMARK  9 active torsions:
REMARK  status: ('A' for Active; 'I' for Inactive)
REMARK    1  A    between atoms: N_2  and  C_6
REMARK    2  A    between atoms: N_2  and  C_11
REMARK    3  A    between atoms: C_5  and  C_6
REMARK    4  A    between atoms: C_5  and  C_7
REMARK    5  A    between atoms: C_6  and  C_9
REMARK    6  A    between atoms: C_7  and  C_8
REMARK    7  A    between atoms: C_8  and  C_10
REMARK    8  A    between atoms: C_10  and  C_12
REMARK    9  A    between atoms: C_13  and  C_15
REMARK                            x       y       z     vdW  Elec       q    Type
REMARK                         _______ _______ _______ _____ _____    ______ ____
ROOT
ATOM      1  N   UNL     1     -34.673  44.053   4.095  0.00  0.00    +0.000 NA
ATOM      2  C   UNL     1     -34.687  43.796   5.422  0.00  0.00    +0.000 A 
ATOM      3  C   UNL     1     -35.283  44.618   6.365  0.00  0.00    +0.000 A 
ATOM      4  C   UNL     1     -35.904  45.779   5.917  0.00  0.00    +0.000 A 
ATOM      5  C   UNL     1     -35.287  45.190   3.697  0.00  0.00    +0.000 A 
ATOM      6  C   UNL     1     -35.910  46.077   4.559  0.00  0.00    +0.000 A 
ENDROOT
BRANCH   3   9
ATOM      7  O   UNL     1     -35.799  43.278   8.232  0.00  0.00    +0.000 OA
ATOM      8  N   UNL     1     -34.657  45.224   8.640  0.00  0.00    +0.000 N 
ATOM      9  C   UNL     1     -35.280  44.316   7.790  0.00  0.00    +0.000 C 
ATOM     10  H   UNL     1     -34.620  45.060   9.641  0.00  0.00    +0.000 HD
ATOM     11  H   UNL     1     -34.220  46.073   8.296  0.00  0.00    +0.000 HD
ENDBRANCH   3   9
BRANCH   2  12
ATOM     12  N   UNL     1     -34.065  42.642   5.861  0.00  0.00    +0.000 N 
ATOM     13  H   UNL     1     -34.646  41.815   5.963  0.00  0.00    +0.000 HD
BRANCH  12  14
ATOM     14  C   UNL     1     -32.641  42.405   5.744  0.00  0.00    +0.000 C 
ATOM     15  C   UNL     1     -32.387  40.904   5.841  0.00  0.00    +0.000 C 
BRANCH  14  16
ATOM     16  C   UNL     1     -31.884  43.161   6.844  0.00  0.00    +0.000 C 
BRANCH  16  17
ATOM     17  C   UNL     1     -31.048  44.323   6.291  0.00  0.00    +0.000 C 
BRANCH  17  18
ATOM     18  C   UNL     1     -31.682  45.673   6.638  0.00  0.00    +0.000 C 
BRANCH  18  19
ATOM     19  C   UNL     1     -32.178  46.444   5.412  0.00  0.00    +0.000 C 
ATOM     20  C   UNL     1     -31.614  45.926   4.099  0.00  0.00    +0.000 C 
ENDBRANCH  18  19
ENDBRANCH  17  18
ENDBRANCH  16  17
ENDBRANCH  14  16
ENDBRANCH  12  14
ENDBRANCH   2  12
TORSDOF 7
ENDMDL
