MODEL 1
REMARK VINA RESULT:    -5.996      0.000      0.000
REMARK INTER + INTRA:          -8.936
REMARK INTER:                  -8.100
REMARK INTRA:                  -0.836
REMARK UNBOUND:                -0.836
REMARK  Name = 54968725
REMARK  9 active torsions:
REMARK  status: ('A' for Active; 'I' for Inactive)
REMARK    1  A    between atoms: N_2  and  C_6
REMARK    2  A    between atoms: N_2  and  C_10
REMARK    3  A    between atoms: N_3  and  C_8
REMARK    4  A    between atoms: N_3  and  C_11
REMARK    5  A    between atoms: N_3  and  C_12
REMARK    6  A    between atoms: C_6  and  C_7
REMARK    7  A    between atoms: C_6  and  C_9
REMARK    8  A    between atoms: C_7  and  C_8
REMARK    9  A    between atoms: C_13  and  C_15
REMARK                            x       y       z     vdW  Elec       q    Type
REMARK                         _______ _______ _______ _____ _____    ______ ____
ROOT
ATOM      1  N   UNL     1     -18.477  42.168  -8.321  0.00  0.00    +0.000 NA
ATOM      2  C   UNL     1     -18.418  41.483  -9.485  0.00  0.00    +0.000 A 
ATOM      3  C   UNL     1     -19.404  40.614  -9.924  0.00  0.00    +0.000 A 
ATOM      4  C   UNL     1     -20.521  40.436  -9.116  0.00  0.00    +0.000 A 
ATOM      5  C   UNL     1     -19.578  41.969  -7.562  0.00  0.00    +0.000 A 
ATOM      6  C   UNL     1     -20.617  41.122  -7.910  0.00  0.00    +0.000 A 
ENDROOT
BRANCH   3   9
ATOM      7  O   UNL     1     -18.591  38.880 -11.296  0.00  0.00    +0.000 OA
ATOM      8  N   UNL     1     -20.068  40.350 -12.253  0.00  0.00    +0.000 N 
ATOM      9  C   UNL     1     -19.310  39.887 -11.183  0.00  0.00    +0.000 C 
ATOM     10  H   UNL     1     -20.047  39.877 -13.151  0.00  0.00    +0.000 HD
ATOM     11  H   UNL     1     -20.668  41.165 -12.176  0.00  0.00    +0.000 HD
ENDBRANCH   3   9
BRANCH   2  12
ATOM     12  N   UNL     1     -17.303  41.664 -10.282  0.00  0.00    +0.000 N 
ATOM     13  H   UNL     1     -16.935  40.843 -10.753  0.00  0.00    +0.000 HD
BRANCH  12  14
ATOM     14  C   UNL     1     -16.916  42.943 -10.840  0.00  0.00    +0.000 C 
ATOM     15  C   UNL     1     -17.902  43.310 -11.945  0.00  0.00    +0.000 C 
BRANCH  14  16
ATOM     16  C   UNL     1     -15.482  42.875 -11.386  0.00  0.00    +0.000 C 
BRANCH  16  17
ATOM     17  C   UNL     1     -15.298  43.719 -12.649  0.00  0.00    +0.000 C 
BRANCH  17  18
ATOM     18  N   UNL     1     -14.389  44.829 -12.387  0.00  0.00    +0.000 NA
ATOM     19  C   UNL     1     -13.428  44.471 -11.342  0.00  0.00    +0.000 C 
ATOM     20  C   UNL     1     -15.137  46.027 -12.001  0.00  0.00    +0.000 C 
ENDBRANCH  17  18
ENDBRANCH  16  17
ENDBRANCH  14  16
ENDBRANCH  12  14
ENDBRANCH   2  12
TORSDOF 6
ENDMDL
MODEL 2
REMARK VINA RESULT:    -5.941      1.554      2.004
REMARK INTER + INTRA:          -8.861
REMARK INTER:                  -8.161
REMARK INTRA:                  -0.700
REMARK UNBOUND:                -0.836
REMARK  Name = 54968725
REMARK  9 active torsions:
REMARK  status: ('A' for Active; 'I' for Inactive)
REMARK    1  A    between atoms: N_2  and  C_6
REMARK    2  A    between atoms: N_2  and  C_10
REMARK    3  A    between atoms: N_3  and  C_8
REMARK    4  A    between atoms: N_3  and  C_11
REMARK    5  A    between atoms: N_3  and  C_12
REMARK    6  A    between atoms: C_6  and  C_7
REMARK    7  A    between atoms: C_6  and  C_9
REMARK    8  A    between atoms: C_7  and  C_8
REMARK    9  A    between atoms: C_13  and  C_15
REMARK                            x       y       z     vdW  Elec       q    Type
REMARK                         _______ _______ _______ _____ _____    ______ ____
ROOT
ATOM      1  N   UNL     1     -18.539  42.315  -8.381  0.00  0.00    +0.000 NA
ATOM      2  C   UNL     1     -18.434  41.648  -9.553  0.00  0.00    +0.000 A 
ATOM      3  C   UNL     1     -19.278  40.620  -9.939  0.00  0.00    +0.000 A 
ATOM      4  C   UNL     1     -20.296  40.252  -9.067  0.00  0.00    +0.000 A 
ATOM      5  C   UNL     1     -19.541  41.928  -7.559  0.00  0.00    +0.000 A 
ATOM      6  C   UNL     1     -20.437  40.913  -7.852  0.00  0.00    +0.000 A 
ENDROOT
BRANCH   3   9
ATOM      7  O   UNL     1     -18.261  39.050 -11.372  0.00  0.00    +0.000 OA
ATOM      8  N   UNL     1     -20.026  40.239 -12.226  0.00  0.00    +0.000 N 
ATOM      9  C   UNL     1     -19.136  39.918 -11.208  0.00  0.00    +0.000 C 
ATOM     10  H   UNL     1     -19.977  39.776 -13.128  0.00  0.00    +0.000 HD
ATOM     11  H   UNL     1     -20.752  40.938 -12.107  0.00  0.00    +0.000 HD
ENDBRANCH   3   9
BRANCH   2  12
ATOM     12  N   UNL     1     -17.417  42.019 -10.414  0.00  0.00    +0.000 N 
ATOM     13  H   UNL     1     -16.593  41.425 -10.435  0.00  0.00    +0.000 HD
BRANCH  12  14
ATOM     14  C   UNL     1     -17.614  42.874 -11.566  0.00  0.00    +0.000 C 
ATOM     15  C   UNL     1     -16.634  42.454 -12.657  0.00  0.00    +0.000 C 
BRANCH  14  16
ATOM     16  C   UNL     1     -17.407  44.345 -11.179  0.00  0.00    +0.000 C 
BRANCH  16  17
ATOM     17  C   UNL     1     -16.657  45.132 -12.256  0.00  0.00    +0.000 C 
BRANCH  17  18
ATOM     18  N   UNL     1     -17.462  46.260 -12.710  0.00  0.00    +0.000 NA
ATOM     19  C   UNL     1     -18.240  46.816 -11.601  0.00  0.00    +0.000 C 
ATOM     20  C   UNL     1     -18.349  45.855 -13.801  0.00  0.00    +0.000 C 
ENDBRANCH  17  18
ENDBRANCH  16  17
ENDBRANCH  14  16
ENDBRANCH  12  14
ENDBRANCH   2  12
TORSDOF 6
ENDMDL
MODEL 3
REMARK VINA RESULT:    -5.319      2.390      5.861
REMARK INTER + INTRA:          -8.021
REMARK INTER:                  -7.185
REMARK INTRA:                  -0.836
REMARK UNBOUND:                -0.836
REMARK  Name = 54968725
REMARK  9 active torsions:
REMARK  status: ('A' for Active; 'I' for Inactive)
REMARK    1  A    between atoms: N_2  and  C_6
REMARK    2  A    between atoms: N_2  and  C_10
REMARK    3  A    between atoms: N_3  and  C_8
REMARK    4  A    between atoms: N_3  and  C_11
REMARK    5  A    between atoms: N_3  and  C_12
REMARK    6  A    between atoms: C_6  and  C_7
REMARK    7  A    between atoms: C_6  and  C_9
REMARK    8  A    between atoms: C_7  and  C_8
REMARK    9  A    between atoms: C_13  and  C_15
REMARK                            x       y       z     vdW  Elec       q    Type
REMARK                         _______ _______ _______ _____ _____    ______ ____
ROOT
ATOM      1  N   UNL     1     -20.054  42.300 -14.100  0.00  0.00    +0.000 NA
ATOM      2  C   UNL     1     -19.167  42.577 -13.117  0.00  0.00    +0.000 A 
ATOM      3  C   UNL     1     -18.264  43.626 -13.160  0.00  0.00    +0.000 A 
ATOM      4  C   UNL     1     -18.269  44.444 -14.283  0.00  0.00    +0.000 A 
ATOM      5  C   UNL     1     -20.029  43.118 -15.177  0.00  0.00    +0.000 A 
ATOM      6  C   UNL     1     -19.166  44.192 -15.317  0.00  0.00    +0.000 A 
ENDROOT
BRANCH   3   9
ATOM      7  O   UNL     1     -17.671  44.478 -11.045  0.00  0.00    +0.000 OA
ATOM      8  N   UNL     1     -16.007  43.465 -12.255  0.00  0.00    +0.000 N 
ATOM      9  C   UNL     1     -17.318  43.896 -12.085  0.00  0.00    +0.000 C 
ATOM     10  H   UNL     1     -15.309  43.621 -11.535  0.00  0.00    +0.000 HD
ATOM     11  H   UNL     1     -15.703  42.981 -13.093  0.00  0.00    +0.000 HD
ENDBRANCH   3   9
BRANCH   2  12
ATOM     12  N   UNL     1     -19.166  41.757 -12.003  0.00  0.00    +0.000 N 
ATOM     13  H   UNL     1     -19.982  41.800 -11.399  0.00  0.00    +0.000 HD
BRANCH  12  14
ATOM     14  C   UNL     1     -18.351  40.566 -11.886  0.00  0.00    +0.000 C 
ATOM     15  C   UNL     1     -19.168  39.368 -12.361  0.00  0.00    +0.000 C 
BRANCH  14  16
ATOM     16  C   UNL     1     -17.892  40.376 -10.433  0.00  0.00    +0.000 C 
BRANCH  16  17
ATOM     17  C   UNL     1     -18.486  41.426  -9.491  0.00  0.00    +0.000 C 
BRANCH  17  18
ATOM     18  N   UNL     1     -19.184  40.777  -8.387  0.00  0.00    +0.000 NA
ATOM     19  C   UNL     1     -20.338  40.023  -8.880  0.00  0.00    +0.000 C 
ATOM     20  C   UNL     1     -19.609  41.765  -7.394  0.00  0.00    +0.000 C 
ENDBRANCH  17  18
ENDBRANCH  16  17
ENDBRANCH  14  16
ENDBRANCH  12  14
ENDBRANCH   2  12
TORSDOF 6
ENDMDL
MODEL 4
REMARK VINA RESULT:    -5.183      2.109      3.489
REMARK INTER + INTRA:          -7.837
REMARK INTER:                  -7.173
REMARK INTRA:                  -0.664
REMARK UNBOUND:                -0.836
REMARK  Name = 54968725
REMARK  9 active torsions:
REMARK  status: ('A' for Active; 'I' for Inactive)
REMARK    1  A    between atoms: N_2  and  C_6
REMARK    2  A    between atoms: N_2  and  C_10
REMARK    3  A    between atoms: N_3  and  C_8
REMARK    4  A    between atoms: N_3  and  C_11
REMARK    5  A    between atoms: N_3  and  C_12
REMARK    6  A    between atoms: C_6  and  C_7
REMARK    7  A    between atoms: C_6  and  C_9
REMARK    8  A    between atoms: C_7  and  C_8
REMARK    9  A    between atoms: C_13  and  C_15
REMARK                            x       y       z     vdW  Elec       q    Type
REMARK                         _______ _______ _______ _____ _____    ______ ____
ROOT
ATOM      1  N   UNL     1     -17.324  40.730 -12.462  0.00  0.00    +0.000 NA
ATOM      2  C   UNL     1     -17.417  41.201 -11.199  0.00  0.00    +0.000 A 
ATOM      3  C   UNL     1     -18.369  40.784 -10.283  0.00  0.00    +0.000 A 
ATOM      4  C   UNL     1     -19.284  39.820 -10.689  0.00  0.00    +0.000 A 
ATOM      5  C   UNL     1     -18.232  39.793 -12.822  0.00  0.00    +0.000 A 
ATOM      6  C   UNL     1     -19.222  39.310 -11.982  0.00  0.00    +0.000 A 
ENDROOT
BRANCH   3   9
ATOM      7  O   UNL     1     -18.186  42.505  -8.685  0.00  0.00    +0.000 OA
ATOM      8  N   UNL     1     -18.836  40.445  -7.915  0.00  0.00    +0.000 N 
ATOM      9  C   UNL     1     -18.445  41.314  -8.928  0.00  0.00    +0.000 C 
ATOM     10  H   UNL     1     -18.913  40.763  -6.955  0.00  0.00    +0.000 HD
ATOM     11  H   UNL     1     -19.060  39.472  -8.097  0.00  0.00    +0.000 HD
ENDBRANCH   3   9
BRANCH   2  12
ATOM     12  N   UNL     1     -16.505  42.162 -10.803  0.00  0.00    +0.000 N 
ATOM     13  H   UNL     1     -16.008  41.994  -9.933  0.00  0.00    +0.000 HD
BRANCH  12  14
ATOM     14  C   UNL     1     -15.892  43.108 -11.712  0.00  0.00    +0.000 C 
ATOM     15  C   UNL     1     -14.444  43.327 -11.283  0.00  0.00    +0.000 C 
BRANCH  14  16
ATOM     16  C   UNL     1     -16.671  44.431 -11.709  0.00  0.00    +0.000 C 
BRANCH  16  17
ATOM     17  C   UNL     1     -17.749  44.476 -12.794  0.00  0.00    +0.000 C 
BRANCH  17  18
ATOM     18  N   UNL     1     -17.289  45.264 -13.931  0.00  0.00    +0.000 NA
ATOM     19  C   UNL     1     -16.451  46.376 -13.481  0.00  0.00    +0.000 C 
ATOM     20  C   UNL     1     -18.426  45.765 -14.705  0.00  0.00    +0.000 C 
ENDBRANCH  17  18
ENDBRANCH  16  17
ENDBRANCH  14  16
ENDBRANCH  12  14
ENDBRANCH   2  12
TORSDOF 6
ENDMDL
MODEL 5
REMARK VINA RESULT:    -5.170      4.042      5.937
REMARK INTER + INTRA:          -7.820
REMARK INTER:                  -7.051
REMARK INTRA:                  -0.769
REMARK UNBOUND:                -0.836
REMARK  Name = 54968725
REMARK  9 active torsions:
REMARK  status: ('A' for Active; 'I' for Inactive)
REMARK    1  A    between atoms: N_2  and  C_6
REMARK    2  A    between atoms: N_2  and  C_10
REMARK    3  A    between atoms: N_3  and  C_8
REMARK    4  A    between atoms: N_3  and  C_11
REMARK    5  A    between atoms: N_3  and  C_12
REMARK    6  A    between atoms: C_6  and  C_7
REMARK    7  A    between atoms: C_6  and  C_9
REMARK    8  A    between atoms: C_7  and  C_8
REMARK    9  A    between atoms: C_13  and  C_15
REMARK                            x       y       z     vdW  Elec       q    Type
REMARK                         _______ _______ _______ _____ _____    ______ ____
ROOT
ATOM      1  N   UNL     1     -19.659  40.746 -12.785  0.00  0.00    +0.000 NA
ATOM      2  C   UNL     1     -18.895  41.862 -12.765  0.00  0.00    +0.000 A 
ATOM      3  C   UNL     1     -17.640  41.933 -12.184  0.00  0.00    +0.000 A 
ATOM      4  C   UNL     1     -17.134  40.785 -11.585  0.00  0.00    +0.000 A 
ATOM      5  C   UNL     1     -19.134  39.650 -12.191  0.00  0.00    +0.000 A 
ATOM      6  C   UNL     1     -17.890  39.617 -11.584  0.00  0.00    +0.000 A 
ENDROOT
BRANCH   3   9
ATOM      7  O   UNL     1     -17.223  44.170 -11.572  0.00  0.00    +0.000 OA
ATOM      8  N   UNL     1     -15.628  43.133 -12.855  0.00  0.00    +0.000 N 
ATOM      9  C   UNL     1     -16.842  43.152 -12.176  0.00  0.00    +0.000 C 
ATOM     10  H   UNL     1     -15.030  43.953 -12.876  0.00  0.00    +0.000 HD
ATOM     11  H   UNL     1     -15.297  42.309 -13.345  0.00  0.00    +0.000 HD
ENDBRANCH   3   9
BRANCH   2  12
ATOM     12  N   UNL     1     -19.405  43.001 -13.362  0.00  0.00    +0.000 N 
ATOM     13  H   UNL     1     -19.604  43.789 -12.754  0.00  0.00    +0.000 HD
BRANCH  12  14
ATOM     14  C   UNL     1     -19.250  43.307 -14.768  0.00  0.00    +0.000 C 
ATOM     15  C   UNL     1     -18.803  44.759 -14.904  0.00  0.00    +0.000 C 
BRANCH  14  16
ATOM     16  C   UNL     1     -20.570  43.067 -15.515  0.00  0.00    +0.000 C 
BRANCH  16  17
ATOM     17  C   UNL     1     -20.363  42.880 -17.020  0.00  0.00    +0.000 C 
BRANCH  17  18
ATOM     18  N   UNL     1     -21.492  43.436 -17.758  0.00  0.00    +0.000 NA
ATOM     19  C   UNL     1     -21.023  44.332 -18.816  0.00  0.00    +0.000 C 
ATOM     20  C   UNL     1     -22.399  44.146 -16.855  0.00  0.00    +0.000 C 
ENDBRANCH  17  18
ENDBRANCH  16  17
ENDBRANCH  14  16
ENDBRANCH  12  14
ENDBRANCH   2  12
TORSDOF 6
ENDMDL
