MODEL 1
REMARK VINA RESULT:    -4.891      0.000      0.000
REMARK INTER + INTRA:          -7.034
REMARK INTER:                  -6.749
REMARK INTRA:                  -0.285
REMARK UNBOUND:                -0.285
REMARK  Name = 54987852
REMARK  9 active torsions:
REMARK  status: ('A' for Active; 'I' for Inactive)
REMARK    1  A    between atoms: N_2  and  C_7
REMARK    2  A    between atoms: N_2  and  C_10
REMARK    3  A    between atoms: N_2  and  C_11
REMARK    4  A    between atoms: N_3  and  C_8
REMARK    5  A    between atoms: C_6  and  C_7
REMARK    6  A    between atoms: C_6  and  C_8
REMARK    7  A    between atoms: C_6  and  C_9
REMARK    8  A    between atoms: C_10  and  C_12
REMARK    9  A    between atoms: C_13  and  C_15
REMARK                            x       y       z     vdW  Elec       q    Type
REMARK                         _______ _______ _______ _____ _____    ______ ____
ROOT
ATOM      1  N   UNL     1     -19.504  41.787 -12.950  0.00  0.00    +0.000 NA
ATOM      2  C   UNL     1     -18.359  42.282 -12.427  0.00  0.00    +0.000 A 
ATOM      3  C   UNL     1     -17.672  43.365 -12.949  0.00  0.00    +0.000 A 
ATOM      4  C   UNL     1     -18.194  43.983 -14.081  0.00  0.00    +0.000 A 
ATOM      5  C   UNL     1     -19.980  42.414 -14.050  0.00  0.00    +0.000 A 
ATOM      6  C   UNL     1     -19.370  43.504 -14.648  0.00  0.00    +0.000 A 
ENDROOT
BRANCH   3   9
ATOM      7  O   UNL     1     -15.332  43.409 -12.687  0.00  0.00    +0.000 OA
ATOM      8  N   UNL     1     -16.539  44.910 -11.443  0.00  0.00    +0.000 N 
ATOM      9  C   UNL     1     -16.438  43.873 -12.365  0.00  0.00    +0.000 C 
ATOM     10  H   UNL     1     -17.433  45.311 -11.179  0.00  0.00    +0.000 HD
ATOM     11  H   UNL     1     -15.711  45.304 -11.010  0.00  0.00    +0.000 HD
ENDBRANCH   3   9
BRANCH   2  12
ATOM     12  N   UNL     1     -17.838  41.653 -11.288  0.00  0.00    +0.000 N 
BRANCH  12  13
ATOM     13  C   UNL     1     -16.805  40.625 -11.426  0.00  0.00    +0.000 C 
ATOM     14  C   UNL     1     -17.011  39.849 -12.713  0.00  0.00    +0.000 C 
ENDBRANCH  12  13
BRANCH  12  15
ATOM     15  C   UNL     1     -18.291  42.002  -9.962  0.00  0.00    +0.000 C 
BRANCH  15  16
ATOM     16  C   UNL     1     -18.746  40.766  -9.166  0.00  0.00    +0.000 C 
ATOM     17  C   UNL     1     -19.897  40.042  -9.874  0.00  0.00    +0.000 C 
BRANCH  16  18
ATOM     18  C   UNL     1     -19.141  41.079  -7.710  0.00  0.00    +0.000 C 
BRANCH  18  19
ATOM     19  N   UNL     1     -19.163  42.514  -7.447  0.00  0.00    +0.000 NA
ATOM     20  H   UNL     1     -19.488  43.010  -8.275  0.00  0.00    +0.000 HD
ATOM     21  H   UNL     1     -19.839  42.712  -6.710  0.00  0.00    +0.000 HD
ENDBRANCH  18  19
ENDBRANCH  16  18
ENDBRANCH  15  16
ENDBRANCH  12  15
ENDBRANCH   2  12
TORSDOF 7
ENDMDL
MODEL 2
REMARK VINA RESULT:    -4.531      1.928      3.368
REMARK INTER + INTRA:          -6.539
REMARK INTER:                  -5.987
REMARK INTRA:                  -0.552
REMARK UNBOUND:                -0.285
REMARK  Name = 54987852
REMARK  9 active torsions:
REMARK  status: ('A' for Active; 'I' for Inactive)
REMARK    1  A    between atoms: N_2  and  C_7
REMARK    2  A    between atoms: N_2  and  C_10
REMARK    3  A    between atoms: N_2  and  C_11
REMARK    4  A    between atoms: N_3  and  C_8
REMARK    5  A    between atoms: C_6  and  C_7
REMARK    6  A    between atoms: C_6  and  C_8
REMARK    7  A    between atoms: C_6  and  C_9
REMARK    8  A    between atoms: C_10  and  C_12
REMARK    9  A    between atoms: C_13  and  C_15
REMARK                            x       y       z     vdW  Elec       q    Type
REMARK                         _______ _______ _______ _____ _____    ______ ____
ROOT
ATOM      1  N   UNL     1     -18.454  45.336 -11.940  0.00  0.00    +0.000 NA
ATOM      2  C   UNL     1     -17.454  44.430 -12.019  0.00  0.00    +0.000 A 
ATOM      3  C   UNL     1     -16.109  44.749 -11.927  0.00  0.00    +0.000 A 
ATOM      4  C   UNL     1     -15.768  46.084 -11.740  0.00  0.00    +0.000 A 
ATOM      5  C   UNL     1     -18.084  46.624 -11.759  0.00  0.00    +0.000 A 
ATOM      6  C   UNL     1     -16.769  47.046 -11.654  0.00  0.00    +0.000 A 
ENDROOT
BRANCH   3   9
ATOM      7  O   UNL     1     -14.573  43.416 -13.115  0.00  0.00    +0.000 OA
ATOM      8  N   UNL     1     -14.587  43.191 -10.834  0.00  0.00    +0.000 N 
ATOM      9  C   UNL     1     -15.053  43.750 -12.019  0.00  0.00    +0.000 C 
ATOM     10  H   UNL     1     -14.958  43.461  -9.929  0.00  0.00    +0.000 HD
ATOM     11  H   UNL     1     -13.851  42.494 -10.840  0.00  0.00    +0.000 HD
ENDBRANCH   3   9
BRANCH   2  12
ATOM     12  N   UNL     1     -17.806  43.086 -12.209  0.00  0.00    +0.000 N 
BRANCH  12  13
ATOM     13  C   UNL     1     -18.073  42.583 -13.557  0.00  0.00    +0.000 C 
ATOM     14  C   UNL     1     -19.490  42.930 -13.971  0.00  0.00    +0.000 C 
ENDBRANCH  12  13
BRANCH  12  15
ATOM     15  C   UNL     1     -17.903  42.170 -11.097  0.00  0.00    +0.000 C 
BRANCH  15  16
ATOM     16  C   UNL     1     -18.136  40.722 -11.565  0.00  0.00    +0.000 C 
ATOM     17  C   UNL     1     -19.245  40.046 -10.750  0.00  0.00    +0.000 C 
BRANCH  16  18
ATOM     18  C   UNL     1     -16.864  39.854 -11.540  0.00  0.00    +0.000 C 
BRANCH  18  19
ATOM     19  N   UNL     1     -15.804  40.458 -10.740  0.00  0.00    +0.000 NA
ATOM     20  H   UNL     1     -15.031  40.730 -11.345  0.00  0.00    +0.000 HD
ATOM     21  H   UNL     1     -16.150  41.317 -10.314  0.00  0.00    +0.000 HD
ENDBRANCH  18  19
ENDBRANCH  16  18
ENDBRANCH  15  16
ENDBRANCH  12  15
ENDBRANCH   2  12
TORSDOF 7
ENDMDL
MODEL 3
REMARK VINA RESULT:    -4.387      4.805      8.168
REMARK INTER + INTRA:          -6.339
REMARK INTER:                  -5.403
REMARK INTRA:                  -0.936
REMARK UNBOUND:                -0.285
REMARK  Name = 54987852
REMARK  9 active torsions:
REMARK  status: ('A' for Active; 'I' for Inactive)
REMARK    1  A    between atoms: N_2  and  C_7
REMARK    2  A    between atoms: N_2  and  C_10
REMARK    3  A    between atoms: N_2  and  C_11
REMARK    4  A    between atoms: N_3  and  C_8
REMARK    5  A    between atoms: C_6  and  C_7
REMARK    6  A    between atoms: C_6  and  C_8
REMARK    7  A    between atoms: C_6  and  C_9
REMARK    8  A    between atoms: C_10  and  C_12
REMARK    9  A    between atoms: C_13  and  C_15
REMARK                            x       y       z     vdW  Elec       q    Type
REMARK                         _______ _______ _______ _____ _____    ______ ____
ROOT
ATOM      1  N   UNL     1     -18.564  45.514 -15.457  0.00  0.00    +0.000 NA
ATOM      2  C   UNL     1     -19.550  44.944 -16.185  0.00  0.00    +0.000 A 
ATOM      3  C   UNL     1     -20.171  43.751 -15.852  0.00  0.00    +0.000 A 
ATOM      4  C   UNL     1     -19.753  43.101 -14.695  0.00  0.00    +0.000 A 
ATOM      5  C   UNL     1     -18.185  44.853 -14.339  0.00  0.00    +0.000 A 
ATOM      6  C   UNL     1     -18.742  43.656 -13.919  0.00  0.00    +0.000 A 
ENDROOT
BRANCH   3   9
ATOM      7  O   UNL     1     -22.415  43.501 -16.519  0.00  0.00    +0.000 OA
ATOM      8  N   UNL     1     -20.864  42.208 -17.606  0.00  0.00    +0.000 N 
ATOM      9  C   UNL     1     -21.229  43.160 -16.659  0.00  0.00    +0.000 C 
ATOM     10  H   UNL     1     -19.899  41.928 -17.742  0.00  0.00    +0.000 HD
ATOM     11  H   UNL     1     -21.560  41.768 -18.197  0.00  0.00    +0.000 HD
ENDBRANCH   3   9
BRANCH   2  12
ATOM     12  N   UNL     1     -19.964  45.604 -17.350  0.00  0.00    +0.000 N 
BRANCH  12  13
ATOM     13  C   UNL     1     -21.013  46.622 -17.282  0.00  0.00    +0.000 C 
ATOM     14  C   UNL     1     -21.954  46.481 -18.463  0.00  0.00    +0.000 C 
ENDBRANCH  12  13
BRANCH  12  15
ATOM     15  C   UNL     1     -19.370  45.310 -18.633  0.00  0.00    +0.000 C 
BRANCH  15  16
ATOM     16  C   UNL     1     -18.220  46.276 -18.968  0.00  0.00    +0.000 C 
ATOM     17  C   UNL     1     -18.402  46.896 -20.358  0.00  0.00    +0.000 C 
BRANCH  16  18
ATOM     18  C   UNL     1     -16.823  45.633 -18.860  0.00  0.00    +0.000 C 
BRANCH  18  19
ATOM     19  N   UNL     1     -16.235  45.820 -17.538  0.00  0.00    +0.000 NA
ATOM     20  H   UNL     1     -16.788  46.493 -17.009  0.00  0.00    +0.000 HD
ATOM     21  H   UNL     1     -16.280  44.943 -17.021  0.00  0.00    +0.000 HD
ENDBRANCH  18  19
ENDBRANCH  16  18
ENDBRANCH  15  16
ENDBRANCH  12  15
ENDBRANCH   2  12
TORSDOF 7
ENDMDL
MODEL 4
REMARK VINA RESULT:    -4.346      5.838      7.968
REMARK INTER + INTRA:          -6.282
REMARK INTER:                  -5.543
REMARK INTRA:                  -0.739
REMARK UNBOUND:                -0.285
REMARK  Name = 54987852
REMARK  9 active torsions:
REMARK  status: ('A' for Active; 'I' for Inactive)
REMARK    1  A    between atoms: N_2  and  C_7
REMARK    2  A    between atoms: N_2  and  C_10
REMARK    3  A    between atoms: N_2  and  C_11
REMARK    4  A    between atoms: N_3  and  C_8
REMARK    5  A    between atoms: C_6  and  C_7
REMARK    6  A    between atoms: C_6  and  C_8
REMARK    7  A    between atoms: C_6  and  C_9
REMARK    8  A    between atoms: C_10  and  C_12
REMARK    9  A    between atoms: C_13  and  C_15
REMARK                            x       y       z     vdW  Elec       q    Type
REMARK                         _______ _______ _______ _____ _____    ______ ____
ROOT
ATOM      1  N   UNL     1     -21.776  46.351 -18.537  0.00  0.00    +0.000 NA
ATOM      2  C   UNL     1     -21.183  45.213 -18.113  0.00  0.00    +0.000 A 
ATOM      3  C   UNL     1     -21.794  44.276 -17.298  0.00  0.00    +0.000 A 
ATOM      4  C   UNL     1     -23.101  44.522 -16.891  0.00  0.00    +0.000 A 
ATOM      5  C   UNL     1     -23.046  46.556 -18.120  0.00  0.00    +0.000 A 
ATOM      6  C   UNL     1     -23.746  45.682 -17.305  0.00  0.00    +0.000 A 
ENDROOT
BRANCH   3   9
ATOM      7  O   UNL     1     -20.606  42.980 -15.731  0.00  0.00    +0.000 OA
ATOM      8  N   UNL     1     -21.108  41.978 -17.731  0.00  0.00    +0.000 N 
ATOM      9  C   UNL     1     -21.127  43.059 -16.856  0.00  0.00    +0.000 C 
ATOM     10  H   UNL     1     -21.541  42.019 -18.648  0.00  0.00    +0.000 HD
ATOM     11  H   UNL     1     -20.661  41.105 -17.472  0.00  0.00    +0.000 HD
ENDBRANCH   3   9
BRANCH   2  12
ATOM     12  N   UNL     1     -19.864  44.972 -18.527  0.00  0.00    +0.000 N 
BRANCH  12  13
ATOM     13  C   UNL     1     -19.590  44.588 -19.912  0.00  0.00    +0.000 C 
ATOM     14  C   UNL     1     -18.978  45.753 -20.665  0.00  0.00    +0.000 C 
ENDBRANCH  12  13
BRANCH  12  15
ATOM     15  C   UNL     1     -18.754  45.104 -17.613  0.00  0.00    +0.000 C 
BRANCH  15  16
ATOM     16  C   UNL     1     -18.853  46.388 -16.771  0.00  0.00    +0.000 C 
ATOM     17  C   UNL     1     -17.835  47.437 -17.234  0.00  0.00    +0.000 C 
BRANCH  16  18
ATOM     18  C   UNL     1     -18.702  46.146 -15.257  0.00  0.00    +0.000 C 
BRANCH  18  19
ATOM     19  N   UNL     1     -18.263  44.787 -14.961  0.00  0.00    +0.000 NA
ATOM     20  H   UNL     1     -18.751  44.441 -14.136  0.00  0.00    +0.000 HD
ATOM     21  H   UNL     1     -18.528  44.171 -15.729  0.00  0.00    +0.000 HD
ENDBRANCH  18  19
ENDBRANCH  16  18
ENDBRANCH  15  16
ENDBRANCH  12  15
ENDBRANCH   2  12
TORSDOF 7
ENDMDL
MODEL 5
REMARK VINA RESULT:    -4.259     21.622     23.884
REMARK INTER + INTRA:          -6.163
REMARK INTER:                  -5.365
REMARK INTRA:                  -0.799
REMARK UNBOUND:                -0.285
REMARK  Name = 54987852
REMARK  9 active torsions:
REMARK  status: ('A' for Active; 'I' for Inactive)
REMARK    1  A    between atoms: N_2  and  C_7
REMARK    2  A    between atoms: N_2  and  C_10
REMARK    3  A    between atoms: N_2  and  C_11
REMARK    4  A    between atoms: N_3  and  C_8
REMARK    5  A    between atoms: C_6  and  C_7
REMARK    6  A    between atoms: C_6  and  C_8
REMARK    7  A    between atoms: C_6  and  C_9
REMARK    8  A    between atoms: C_10  and  C_12
REMARK    9  A    between atoms: C_13  and  C_15
REMARK                            x       y       z     vdW  Elec       q    Type
REMARK                         _______ _______ _______ _____ _____    ______ ____
ROOT
ATOM      1  N   UNL     1     -34.146  44.185   4.179  0.00  0.00    +0.000 NA
ATOM      2  C   UNL     1     -34.042  44.207   5.527  0.00  0.00    +0.000 A 
ATOM      3  C   UNL     1     -35.122  44.322   6.386  0.00  0.00    +0.000 A 
ATOM      4  C   UNL     1     -36.392  44.419   5.827  0.00  0.00    +0.000 A 
ATOM      5  C   UNL     1     -35.396  44.282   3.672  0.00  0.00    +0.000 A 
ATOM      6  C   UNL     1     -36.540  44.400   4.445  0.00  0.00    +0.000 A 
ENDROOT
BRANCH   3   9
ATOM      7  O   UNL     1     -34.616  45.375   8.431  0.00  0.00    +0.000 OA
ATOM      8  N   UNL     1     -35.276  43.182   8.535  0.00  0.00    +0.000 N 
ATOM      9  C   UNL     1     -34.978  44.347   7.836  0.00  0.00    +0.000 C 
ATOM     10  H   UNL     1     -35.587  42.337   8.066  0.00  0.00    +0.000 HD
ATOM     11  H   UNL     1     -35.197  43.145   9.545  0.00  0.00    +0.000 HD
ENDBRANCH   3   9
BRANCH   2  12
ATOM     12  N   UNL     1     -32.759  44.110   6.083  0.00  0.00    +0.000 N 
BRANCH  12  13
ATOM     13  C   UNL     1     -31.905  45.295   6.164  0.00  0.00    +0.000 C 
ATOM     14  C   UNL     1     -31.116  45.281   7.460  0.00  0.00    +0.000 C 
ENDBRANCH  12  13
BRANCH  12  15
ATOM     15  C   UNL     1     -32.253  42.858   6.594  0.00  0.00    +0.000 C 
BRANCH  15  16
ATOM     16  C   UNL     1     -32.774  41.656   5.785  0.00  0.00    +0.000 C 
ATOM     17  C   UNL     1     -33.124  40.479   6.703  0.00  0.00    +0.000 C 
BRANCH  16  18
ATOM     18  C   UNL     1     -31.806  41.189   4.681  0.00  0.00    +0.000 C 
BRANCH  18  19
ATOM     19  N   UNL     1     -31.981  41.944   3.445  0.00  0.00    +0.000 NA
ATOM     20  H   UNL     1     -32.641  41.459   2.839  0.00  0.00    +0.000 HD
ATOM     21  H   UNL     1     -32.397  42.849   3.658  0.00  0.00    +0.000 HD
ENDBRANCH  18  19
ENDBRANCH  16  18
ENDBRANCH  15  16
ENDBRANCH  12  15
ENDBRANCH   2  12
TORSDOF 7
ENDMDL
