MODEL 1
REMARK VINA RESULT:    -4.122      0.000      0.000
REMARK INTER + INTRA:          -6.413
REMARK INTER:                  -5.689
REMARK INTRA:                  -0.724
REMARK UNBOUND:                -0.724
REMARK  Name = 54992502
REMARK  8 active torsions:
REMARK  status: ('A' for Active; 'I' for Inactive)
REMARK    1  A    between atoms: N_3  and  C_7
REMARK    2  A    between atoms: N_3  and  C_8
REMARK    3  A    between atoms: N_3  and  C_9
REMARK    4  A    between atoms: N_5  and  C_13
REMARK    5  A    between atoms: C_7  and  C_10
REMARK    6  A    between atoms: C_8  and  C_12
REMARK    7  A    between atoms: C_10  and  C_13
REMARK    8  A    between atoms: C_11  and  C_15
REMARK                            x       y       z     vdW  Elec       q    Type
REMARK                         _______ _______ _______ _____ _____    ______ ____
ROOT
ATOM      1  N   UNL     1     -14.570  45.181 -12.037  0.00  0.00    +0.000 NA
ATOM      2  C   UNL     1     -15.596  44.310 -11.907  0.00  0.00    +0.000 A 
ATOM      3  C   UNL     1     -15.457  43.012 -11.444  0.00  0.00    +0.000 A 
ATOM      4  C   UNL     1     -14.183  42.579 -11.092  0.00  0.00    +0.000 A 
ATOM      5  C   UNL     1     -13.347  44.725 -11.685  0.00  0.00    +0.000 A 
ATOM      6  C   UNL     1     -13.103  43.446 -11.212  0.00  0.00    +0.000 A 
ENDROOT
BRANCH   3   9
ATOM      7  O   UNL     1     -16.872  41.299 -12.227  0.00  0.00    +0.000 OA
ATOM      8  N   UNL     1     -17.311  42.127 -10.135  0.00  0.00    +0.000 N 
ATOM      9  C   UNL     1     -16.581  42.095 -11.319  0.00  0.00    +0.000 C 
ATOM     10  H   UNL     1     -17.083  42.764  -9.378  0.00  0.00    +0.000 HD
ATOM     11  H   UNL     1     -18.101  41.508  -9.991  0.00  0.00    +0.000 HD
ENDBRANCH   3   9
BRANCH   2  12
ATOM     12  N   UNL     1     -16.877  44.753 -12.266  0.00  0.00    +0.000 N 
BRANCH  12  13
ATOM     13  C   UNL     1     -17.666  45.548 -11.322  0.00  0.00    +0.000 C 
ATOM     14  C   UNL     1     -17.571  47.020 -11.671  0.00  0.00    +0.000 C 
ENDBRANCH  12  13
BRANCH  12  15
ATOM     15  C   UNL     1     -17.445  44.451 -13.557  0.00  0.00    +0.000 C 
BRANCH  15  16
ATOM     16  C   UNL     1     -18.930  44.131 -13.404  0.00  0.00    +0.000 C 
BRANCH  16  18
ATOM     17  S   UNL     1     -19.901  43.327 -15.896  0.00  0.00    +0.000 S 
ATOM     18  C   UNL     1     -19.346  43.026 -14.350  0.00  0.00    +0.000 C 
BRANCH  18  19
ATOM     19  N   UNL     1     -19.253  41.757 -13.840  0.00  0.00    +0.000 N 
ATOM     20  H   UNL     1     -18.467  41.147 -14.043  0.00  0.00    +0.000 HD
ATOM     21  H   UNL     1     -19.976  41.384 -13.234  0.00  0.00    +0.000 HD
ENDBRANCH  18  19
ENDBRANCH  16  18
ENDBRANCH  15  16
ENDBRANCH  12  15
ENDBRANCH   2  12
TORSDOF 7
ENDMDL
MODEL 2
REMARK VINA RESULT:    -4.067      2.321      3.973
REMARK INTER + INTRA:          -6.337
REMARK INTER:                  -6.387
REMARK INTRA:                   0.050
REMARK UNBOUND:                -0.724
REMARK  Name = 54992502
REMARK  8 active torsions:
REMARK  status: ('A' for Active; 'I' for Inactive)
REMARK    1  A    between atoms: N_3  and  C_7
REMARK    2  A    between atoms: N_3  and  C_8
REMARK    3  A    between atoms: N_3  and  C_9
REMARK    4  A    between atoms: N_5  and  C_13
REMARK    5  A    between atoms: C_7  and  C_10
REMARK    6  A    between atoms: C_8  and  C_12
REMARK    7  A    between atoms: C_10  and  C_13
REMARK    8  A    between atoms: C_11  and  C_15
REMARK                            x       y       z     vdW  Elec       q    Type
REMARK                         _______ _______ _______ _____ _____    ______ ____
ROOT
ATOM      1  N   UNL     1     -19.588  40.930 -12.787  0.00  0.00    +0.000 NA
ATOM      2  C   UNL     1     -18.643  41.898 -12.789  0.00  0.00    +0.000 A 
ATOM      3  C   UNL     1     -17.418  41.787 -12.153  0.00  0.00    +0.000 A 
ATOM      4  C   UNL     1     -17.144  40.607 -11.470  0.00  0.00    +0.000 A 
ATOM      5  C   UNL     1     -19.285  39.798 -12.114  0.00  0.00    +0.000 A 
ATOM      6  C   UNL     1     -18.090  39.589 -11.445  0.00  0.00    +0.000 A 
ENDROOT
BRANCH   3   9
ATOM      7  O   UNL     1     -16.225  43.567 -11.174  0.00  0.00    +0.000 OA
ATOM      8  N   UNL     1     -15.682  43.022 -13.335  0.00  0.00    +0.000 N 
ATOM      9  C   UNL     1     -16.422  42.850 -12.170  0.00  0.00    +0.000 C 
ATOM     10  H   UNL     1     -15.822  42.440 -14.154  0.00  0.00    +0.000 HD
ATOM     11  H   UNL     1     -14.972  43.744 -13.401  0.00  0.00    +0.000 HD
ENDBRANCH   3   9
BRANCH   2  12
ATOM     12  N   UNL     1     -18.929  43.086 -13.478  0.00  0.00    +0.000 N 
BRANCH  12  13
ATOM     13  C   UNL     1     -19.019  44.351 -12.745  0.00  0.00    +0.000 C 
ATOM     14  C   UNL     1     -18.449  45.481 -13.580  0.00  0.00    +0.000 C 
ENDBRANCH  12  13
BRANCH  12  15
ATOM     15  C   UNL     1     -19.131  43.100 -14.906  0.00  0.00    +0.000 C 
BRANCH  15  16
ATOM     16  C   UNL     1     -20.626  43.094 -15.214  0.00  0.00    +0.000 C 
BRANCH  16  18
ATOM     17  S   UNL     1     -19.784  43.852 -17.768  0.00  0.00    +0.000 S 
ATOM     18  C   UNL     1     -20.909  43.777 -16.535  0.00  0.00    +0.000 C 
BRANCH  18  19
ATOM     19  N   UNL     1     -22.150  44.349 -16.641  0.00  0.00    +0.000 N 
ATOM     20  H   UNL     1     -22.997  43.795 -16.718  0.00  0.00    +0.000 HD
ATOM     21  H   UNL     1     -22.262  45.357 -16.644  0.00  0.00    +0.000 HD
ENDBRANCH  18  19
ENDBRANCH  16  18
ENDBRANCH  15  16
ENDBRANCH  12  15
ENDBRANCH   2  12
TORSDOF 7
ENDMDL
MODEL 3
REMARK VINA RESULT:    -3.857     14.654     16.454
REMARK INTER + INTRA:          -6.047
REMARK INTER:                  -5.355
REMARK INTRA:                  -0.692
REMARK UNBOUND:                -0.724
REMARK  Name = 54992502
REMARK  8 active torsions:
REMARK  status: ('A' for Active; 'I' for Inactive)
REMARK    1  A    between atoms: N_3  and  C_7
REMARK    2  A    between atoms: N_3  and  C_8
REMARK    3  A    between atoms: N_3  and  C_9
REMARK    4  A    between atoms: N_5  and  C_13
REMARK    5  A    between atoms: C_7  and  C_10
REMARK    6  A    between atoms: C_8  and  C_12
REMARK    7  A    between atoms: C_10  and  C_13
REMARK    8  A    between atoms: C_11  and  C_15
REMARK                            x       y       z     vdW  Elec       q    Type
REMARK                         _______ _______ _______ _____ _____    ______ ____
ROOT
ATOM      1  N   UNL     1     -32.979  42.529 -15.005  0.00  0.00    +0.000 NA
ATOM      2  C   UNL     1     -32.102  43.441 -15.483  0.00  0.00    +0.000 A 
ATOM      3  C   UNL     1     -31.661  44.541 -14.767  0.00  0.00    +0.000 A 
ATOM      4  C   UNL     1     -32.151  44.718 -13.477  0.00  0.00    +0.000 A 
ATOM      5  C   UNL     1     -33.432  42.733 -13.748  0.00  0.00    +0.000 A 
ATOM      6  C   UNL     1     -33.053  43.801 -12.951  0.00  0.00    +0.000 A 
ENDROOT
BRANCH   3   9
ATOM      7  O   UNL     1     -31.103  46.474 -15.993  0.00  0.00    +0.000 OA
ATOM      8  N   UNL     1     -29.370  45.329 -15.021  0.00  0.00    +0.000 N 
ATOM      9  C   UNL     1     -30.718  45.509 -15.310  0.00  0.00    +0.000 C 
ATOM     10  H   UNL     1     -29.038  44.553 -14.457  0.00  0.00    +0.000 HD
ATOM     11  H   UNL     1     -28.670  45.975 -15.370  0.00  0.00    +0.000 HD
ENDBRANCH   3   9
BRANCH   2  12
ATOM     12  N   UNL     1     -31.614  43.258 -16.784  0.00  0.00    +0.000 N 
BRANCH  12  13
ATOM     13  C   UNL     1     -30.507  42.330 -17.026  0.00  0.00    +0.000 C 
ATOM     14  C   UNL     1     -31.034  41.018 -17.573  0.00  0.00    +0.000 C 
ENDBRANCH  12  13
BRANCH  12  15
ATOM     15  C   UNL     1     -32.184  43.960 -17.909  0.00  0.00    +0.000 C 
BRANCH  15  16
ATOM     16  C   UNL     1     -33.707  43.928 -17.818  0.00  0.00    +0.000 C 
BRANCH  16  18
ATOM     17  S   UNL     1     -34.061  42.141 -19.935  0.00  0.00    +0.000 S 
ATOM     18  C   UNL     1     -34.254  42.620 -18.346  0.00  0.00    +0.000 C 
BRANCH  18  19
ATOM     19  N   UNL     1     -34.936  41.861 -17.431  0.00  0.00    +0.000 N 
ATOM     20  H   UNL     1     -35.807  42.171 -17.011  0.00  0.00    +0.000 HD
ATOM     21  H   UNL     1     -34.588  40.954 -17.141  0.00  0.00    +0.000 HD
ENDBRANCH  18  19
ENDBRANCH  16  18
ENDBRANCH  15  16
ENDBRANCH  12  15
ENDBRANCH   2  12
TORSDOF 7
ENDMDL
MODEL 4
REMARK VINA RESULT:    -3.804     22.437     23.804
REMARK INTER + INTRA:          -5.975
REMARK INTER:                  -5.329
REMARK INTRA:                  -0.646
REMARK UNBOUND:                -0.724
REMARK  Name = 54992502
REMARK  8 active torsions:
REMARK  status: ('A' for Active; 'I' for Inactive)
REMARK    1  A    between atoms: N_3  and  C_7
REMARK    2  A    between atoms: N_3  and  C_8
REMARK    3  A    between atoms: N_3  and  C_9
REMARK    4  A    between atoms: N_5  and  C_13
REMARK    5  A    between atoms: C_7  and  C_10
REMARK    6  A    between atoms: C_8  and  C_12
REMARK    7  A    between atoms: C_10  and  C_13
REMARK    8  A    between atoms: C_11  and  C_15
REMARK                            x       y       z     vdW  Elec       q    Type
REMARK                         _______ _______ _______ _____ _____    ______ ____
ROOT
ATOM      1  N   UNL     1     -32.073  42.667   3.432  0.00  0.00    +0.000 NA
ATOM      2  C   UNL     1     -32.347  43.952   3.751  0.00  0.00    +0.000 A 
ATOM      3  C   UNL     1     -31.532  45.023   3.425  0.00  0.00    +0.000 A 
ATOM      4  C   UNL     1     -30.360  44.759   2.725  0.00  0.00    +0.000 A 
ATOM      5  C   UNL     1     -30.925  42.449   2.752  0.00  0.00    +0.000 A 
ATOM      6  C   UNL     1     -30.043  43.451   2.379  0.00  0.00    +0.000 A 
ENDROOT
BRANCH   3   9
ATOM      7  O   UNL     1     -31.509  46.875   4.880  0.00  0.00    +0.000 OA
ATOM      8  N   UNL     1     -32.544  47.165   2.854  0.00  0.00    +0.000 N 
ATOM      9  C   UNL     1     -31.853  46.396   3.786  0.00  0.00    +0.000 C 
ATOM     10  H   UNL     1     -32.824  46.794   1.952  0.00  0.00    +0.000 HD
ATOM     11  H   UNL     1     -32.789  48.129   3.051  0.00  0.00    +0.000 HD
ENDBRANCH   3   9
BRANCH   2  12
ATOM     12  N   UNL     1     -33.531  44.210   4.458  0.00  0.00    +0.000 N 
BRANCH  12  13
ATOM     13  C   UNL     1     -34.776  44.462   3.730  0.00  0.00    +0.000 C 
ATOM     14  C   UNL     1     -35.499  45.654   4.327  0.00  0.00    +0.000 C 
ENDBRANCH  12  13
BRANCH  12  15
ATOM     15  C   UNL     1     -33.559  44.227   5.901  0.00  0.00    +0.000 C 
BRANCH  15  16
ATOM     16  C   UNL     1     -34.040  42.875   6.422  0.00  0.00    +0.000 C 
BRANCH  16  18
ATOM     17  S   UNL     1     -36.815  42.564   6.407  0.00  0.00    +0.000 S 
ATOM     18  C   UNL     1     -35.374  43.009   7.123  0.00  0.00    +0.000 C 
BRANCH  18  19
ATOM     19  N   UNL     1     -35.318  43.542   8.385  0.00  0.00    +0.000 N 
ATOM     20  H   UNL     1     -36.135  43.605   8.984  0.00  0.00    +0.000 HD
ATOM     21  H   UNL     1     -34.446  43.892   8.765  0.00  0.00    +0.000 HD
ENDBRANCH  18  19
ENDBRANCH  16  18
ENDBRANCH  15  16
ENDBRANCH  12  15
ENDBRANCH   2  12
TORSDOF 7
ENDMDL
MODEL 5
REMARK VINA RESULT:    -3.740     19.343     21.088
REMARK INTER + INTRA:          -5.886
REMARK INTER:                  -5.597
REMARK INTRA:                  -0.288
REMARK UNBOUND:                -0.724
REMARK  Name = 54992502
REMARK  8 active torsions:
REMARK  status: ('A' for Active; 'I' for Inactive)
REMARK    1  A    between atoms: N_3  and  C_7
REMARK    2  A    between atoms: N_3  and  C_8
REMARK    3  A    between atoms: N_3  and  C_9
REMARK    4  A    between atoms: N_5  and  C_13
REMARK    5  A    between atoms: C_7  and  C_10
REMARK    6  A    between atoms: C_8  and  C_12
REMARK    7  A    between atoms: C_10  and  C_13
REMARK    8  A    between atoms: C_11  and  C_15
REMARK                            x       y       z     vdW  Elec       q    Type
REMARK                         _______ _______ _______ _____ _____    ______ ____
ROOT
ATOM      1  N   UNL     1     -19.558  30.904   3.332  0.00  0.00    +0.000 NA
ATOM      2  C   UNL     1     -20.758  31.474   3.078  0.00  0.00    +0.000 A 
ATOM      3  C   UNL     1     -21.088  32.086   1.880  0.00  0.00    +0.000 A 
ATOM      4  C   UNL     1     -20.124  32.114   0.877  0.00  0.00    +0.000 A 
ATOM      5  C   UNL     1     -18.648  30.951   2.334  0.00  0.00    +0.000 A 
ATOM      6  C   UNL     1     -18.879  31.539   1.101  0.00  0.00    +0.000 A 
ENDROOT
BRANCH   3   9
ATOM      7  O   UNL     1     -22.556  33.922   1.734  0.00  0.00    +0.000 OA
ATOM      8  N   UNL     1     -23.436  31.856   1.273  0.00  0.00    +0.000 N 
ATOM      9  C   UNL     1     -22.388  32.695   1.637  0.00  0.00    +0.000 C 
ATOM     10  H   UNL     1     -23.316  30.852   1.179  0.00  0.00    +0.000 HD
ATOM     11  H   UNL     1     -24.362  32.226   1.087  0.00  0.00    +0.000 HD
ENDBRANCH   3   9
BRANCH   2  12
ATOM     12  N   UNL     1     -21.723  31.443   4.095  0.00  0.00    +0.000 N 
BRANCH  12  13
ATOM     13  C   UNL     1     -21.817  32.551   5.047  0.00  0.00    +0.000 C 
ATOM     14  C   UNL     1     -23.269  32.922   5.278  0.00  0.00    +0.000 C 
ENDBRANCH  12  13
BRANCH  12  15
ATOM     15  C   UNL     1     -22.644  30.340   4.227  0.00  0.00    +0.000 C 
BRANCH  15  16
ATOM     16  C   UNL     1     -21.936  29.155   4.880  0.00  0.00    +0.000 C 
BRANCH  16  18
ATOM     17  S   UNL     1     -24.195  28.211   6.225  0.00  0.00    +0.000 S 
ATOM     18  C   UNL     1     -22.912  28.035   5.170  0.00  0.00    +0.000 C 
BRANCH  18  19
ATOM     19  N   UNL     1     -22.657  26.857   4.519  0.00  0.00    +0.000 N 
ATOM     20  H   UNL     1     -22.002  26.169   4.877  0.00  0.00    +0.000 HD
ATOM     21  H   UNL     1     -23.122  26.631   3.646  0.00  0.00    +0.000 HD
ENDBRANCH  18  19
ENDBRANCH  16  18
ENDBRANCH  15  16
ENDBRANCH  12  15
ENDBRANCH   2  12
TORSDOF 7
ENDMDL
