MODEL 1
REMARK VINA RESULT:    -5.478      0.000      0.000
REMARK INTER + INTRA:          -9.166
REMARK INTER:                  -8.041
REMARK INTRA:                  -1.125
REMARK UNBOUND:                -1.125
REMARK  Name = 55028546
REMARK  11 active torsions:
REMARK  status: ('A' for Active; 'I' for Inactive)
REMARK    1  A    between atoms: N_2  and  C_7
REMARK    2  A    between atoms: N_2  and  C_12
REMARK    3  A    between atoms: N_2  and  C_13
REMARK    4  A    between atoms: N_3  and  C_8
REMARK    5  A    between atoms: N_4  and  C_11
REMARK    6  A    between atoms: N_4  and  C_14
REMARK    7  A    between atoms: C_6  and  C_7
REMARK    8  A    between atoms: C_6  and  C_8
REMARK    9  A    between atoms: C_9  and  C_10
REMARK   10  A    between atoms: C_11  and  C_15
REMARK   11  A    between atoms: C_15  and  C_17
REMARK                            x       y       z     vdW  Elec       q    Type
REMARK                         _______ _______ _______ _____ _____    ______ ____
ROOT
ATOM      1  N   UNL     1     -19.151  39.343 -10.551  0.00  0.00    +0.000 NA
ATOM      2  C   UNL     1     -17.759  41.158 -11.336  0.00  0.00    +0.000 A 
ATOM      3  C   UNL     1     -18.339  40.402 -10.330  0.00  0.00    +0.000 A 
ATOM      4  C   UNL     1     -18.029  40.805 -12.654  0.00  0.00    +0.000 A 
ATOM      5  C   UNL     1     -18.859  39.722 -12.921  0.00  0.00    +0.000 A 
ATOM      6  C   UNL     1     -19.390  39.030 -11.845  0.00  0.00    +0.000 A 
ENDROOT
BRANCH   2   9
ATOM      7  O   UNL     1     -17.183  43.121 -10.191  0.00  0.00    +0.000 OA
ATOM      8  N   UNL     1     -15.701  42.380 -11.813  0.00  0.00    +0.000 N 
ATOM      9  C   UNL     1     -16.867  42.313 -11.061  0.00  0.00    +0.000 C 
ATOM     10  H   UNL     1     -15.511  41.657 -12.502  0.00  0.00    +0.000 HD
BRANCH   8  11
ATOM     11  C   UNL     1     -14.727  43.424 -11.646  0.00  0.00    +0.000 C 
BRANCH  11  12
ATOM     12  C   UNL     1     -15.146  44.729 -12.322  0.00  0.00    +0.000 C 
BRANCH  12  13
ATOM     13  C   UNL     1     -15.922  44.543 -13.628  0.00  0.00    +0.000 C 
BRANCH  13  14
ATOM     14  N   UNL     1     -17.201  45.244 -13.606  0.00  0.00    +0.000 NA
ATOM     15  C   UNL     1     -17.396  45.920 -12.323  0.00  0.00    +0.000 C 
ATOM     16  C   UNL     1     -18.303  44.315 -13.862  0.00  0.00    +0.000 C 
ENDBRANCH  13  14
ENDBRANCH  12  13
ENDBRANCH  11  12
ENDBRANCH   8  11
ENDBRANCH   2   9
BRANCH   3  17
ATOM     17  N   UNL     1     -18.066  40.753  -8.985  0.00  0.00    +0.000 N 
ATOM     18  H   UNL     1     -17.407  41.514  -8.852  0.00  0.00    +0.000 HD
BRANCH  17  19
ATOM     19  C   UNL     1     -18.969  40.471  -7.916  0.00  0.00    +0.000 C 
BRANCH  19  20
ATOM     20  C   UNL     1     -19.887  41.661  -7.657  0.00  0.00    +0.000 C 
ATOM     21  C   UNL     1     -21.358  41.329  -7.868  0.00  0.00    +0.000 C 
ENDBRANCH  19  20
ENDBRANCH  17  19
ENDBRANCH   3  17
TORSDOF 8
ENDMDL
MODEL 2
REMARK VINA RESULT:    -5.397      2.286      3.736
REMARK INTER + INTRA:          -9.046
REMARK INTER:                  -8.309
REMARK INTRA:                  -0.737
REMARK UNBOUND:                -1.125
REMARK  Name = 55028546
REMARK  11 active torsions:
REMARK  status: ('A' for Active; 'I' for Inactive)
REMARK    1  A    between atoms: N_2  and  C_7
REMARK    2  A    between atoms: N_2  and  C_12
REMARK    3  A    between atoms: N_2  and  C_13
REMARK    4  A    between atoms: N_3  and  C_8
REMARK    5  A    between atoms: N_4  and  C_11
REMARK    6  A    between atoms: N_4  and  C_14
REMARK    7  A    between atoms: C_6  and  C_7
REMARK    8  A    between atoms: C_6  and  C_8
REMARK    9  A    between atoms: C_9  and  C_10
REMARK   10  A    between atoms: C_11  and  C_15
REMARK   11  A    between atoms: C_15  and  C_17
REMARK                            x       y       z     vdW  Elec       q    Type
REMARK                         _______ _______ _______ _____ _____    ______ ____
ROOT
ATOM      1  N   UNL     1     -19.143  39.723 -10.582  0.00  0.00    +0.000 NA
ATOM      2  C   UNL     1     -17.453  41.266 -11.363  0.00  0.00    +0.000 A 
ATOM      3  C   UNL     1     -18.256  40.722 -10.373  0.00  0.00    +0.000 A 
ATOM      4  C   UNL     1     -17.568  40.752 -12.650  0.00  0.00    +0.000 A 
ATOM      5  C   UNL     1     -18.468  39.724 -12.904  0.00  0.00    +0.000 A 
ATOM      6  C   UNL     1     -19.226  39.248 -11.846  0.00  0.00    +0.000 A 
ENDROOT
BRANCH   2   9
ATOM      7  O   UNL     1     -16.887  43.412 -10.607  0.00  0.00    +0.000 OA
ATOM      8  N   UNL     1     -15.159  42.096 -11.420  0.00  0.00    +0.000 N 
ATOM      9  C   UNL     1     -16.485  42.361 -11.100  0.00  0.00    +0.000 C 
ATOM     10  H   UNL     1     -14.913  41.191 -11.811  0.00  0.00    +0.000 HD
BRANCH   8  11
ATOM     11  C   UNL     1     -14.103  43.046 -11.202  0.00  0.00    +0.000 C 
BRANCH  11  12
ATOM     12  C   UNL     1     -12.805  42.384 -10.744  0.00  0.00    +0.000 C 
BRANCH  12  13
ATOM     13  C   UNL     1     -11.731  42.279 -11.830  0.00  0.00    +0.000 C 
BRANCH  13  14
ATOM     14  N   UNL     1     -10.933  41.066 -11.692  0.00  0.00    +0.000 NA
ATOM     15  C   UNL     1     -10.847  40.662 -10.288  0.00  0.00    +0.000 C 
ATOM     16  C   UNL     1      -9.593  41.264 -12.246  0.00  0.00    +0.000 C 
ENDBRANCH  13  14
ENDBRANCH  12  13
ENDBRANCH  11  12
ENDBRANCH   8  11
ENDBRANCH   2   9
BRANCH   3  17
ATOM     17  N   UNL     1     -18.143  41.238  -9.058  0.00  0.00    +0.000 N 
ATOM     18  H   UNL     1     -17.867  42.213  -8.989  0.00  0.00    +0.000 HD
BRANCH  17  19
ATOM     19  C   UNL     1     -18.830  40.668  -7.945  0.00  0.00    +0.000 C 
BRANCH  19  20
ATOM     20  C   UNL     1     -19.898  41.623  -7.423  0.00  0.00    +0.000 C 
ATOM     21  C   UNL     1     -21.311  41.181  -7.777  0.00  0.00    +0.000 C 
ENDBRANCH  19  20
ENDBRANCH  17  19
ENDBRANCH   3  17
TORSDOF 8
ENDMDL
MODEL 3
REMARK VINA RESULT:    -5.149      3.224      5.312
REMARK INTER + INTRA:          -8.683
REMARK INTER:                  -7.758
REMARK INTRA:                  -0.925
REMARK UNBOUND:                -1.125
REMARK  Name = 55028546
REMARK  11 active torsions:
REMARK  status: ('A' for Active; 'I' for Inactive)
REMARK    1  A    between atoms: N_2  and  C_7
REMARK    2  A    between atoms: N_2  and  C_12
REMARK    3  A    between atoms: N_2  and  C_13
REMARK    4  A    between atoms: N_3  and  C_8
REMARK    5  A    between atoms: N_4  and  C_11
REMARK    6  A    between atoms: N_4  and  C_14
REMARK    7  A    between atoms: C_6  and  C_7
REMARK    8  A    between atoms: C_6  and  C_8
REMARK    9  A    between atoms: C_9  and  C_10
REMARK   10  A    between atoms: C_11  and  C_15
REMARK   11  A    between atoms: C_15  and  C_17
REMARK                            x       y       z     vdW  Elec       q    Type
REMARK                         _______ _______ _______ _____ _____    ______ ____
ROOT
ATOM      1  N   UNL     1     -16.691  40.571 -11.787  0.00  0.00    +0.000 NA
ATOM      2  C   UNL     1     -18.526  41.729 -12.854  0.00  0.00    +0.000 A 
ATOM      3  C   UNL     1     -17.189  41.594 -12.518  0.00  0.00    +0.000 A 
ATOM      4  C   UNL     1     -19.410  40.752 -12.411  0.00  0.00    +0.000 A 
ATOM      5  C   UNL     1     -18.937  39.684 -11.657  0.00  0.00    +0.000 A 
ATOM      6  C   UNL     1     -17.581  39.639 -11.375  0.00  0.00    +0.000 A 
ENDROOT
BRANCH   2   9
ATOM      7  O   UNL     1     -19.126  43.977 -13.149  0.00  0.00    +0.000 OA
ATOM      8  N   UNL     1     -19.375  42.575 -14.980  0.00  0.00    +0.000 N 
ATOM      9  C   UNL     1     -19.041  42.864 -13.662  0.00  0.00    +0.000 C 
ATOM     10  H   UNL     1     -19.258  41.627 -15.327  0.00  0.00    +0.000 HD
BRANCH   8  11
ATOM     11  C   UNL     1     -19.864  43.572 -15.893  0.00  0.00    +0.000 C 
BRANCH  11  12
ATOM     12  C   UNL     1     -20.129  43.008 -17.288  0.00  0.00    +0.000 C 
BRANCH  12  13
ATOM     13  C   UNL     1     -21.352  43.605 -17.989  0.00  0.00    +0.000 C 
BRANCH  13  14
ATOM     14  N   UNL     1     -21.710  44.909 -17.444  0.00  0.00    +0.000 NA
ATOM     15  C   UNL     1     -23.138  44.961 -17.127  0.00  0.00    +0.000 C 
ATOM     16  C   UNL     1     -21.361  45.975 -18.385  0.00  0.00    +0.000 C 
ENDBRANCH  13  14
ENDBRANCH  12  13
ENDBRANCH  11  12
ENDBRANCH   8  11
ENDBRANCH   2   9
BRANCH   3  17
ATOM     17  N   UNL     1     -16.280  42.584 -12.968  0.00  0.00    +0.000 N 
ATOM     18  H   UNL     1     -16.441  42.936 -13.907  0.00  0.00    +0.000 HD
BRANCH  17  19
ATOM     19  C   UNL     1     -15.536  43.410 -12.074  0.00  0.00    +0.000 C 
BRANCH  19  20
ATOM     20  C   UNL     1     -15.843  44.884 -12.317  0.00  0.00    +0.000 C 
ATOM     21  C   UNL     1     -15.874  45.245 -13.796  0.00  0.00    +0.000 C 
ENDBRANCH  19  20
ENDBRANCH  17  19
ENDBRANCH   3  17
TORSDOF 8
ENDMDL
MODEL 4
REMARK VINA RESULT:    -5.004      5.302      8.363
REMARK INTER + INTRA:          -8.469
REMARK INTER:                  -7.784
REMARK INTRA:                  -0.685
REMARK UNBOUND:                -1.125
REMARK  Name = 55028546
REMARK  11 active torsions:
REMARK  status: ('A' for Active; 'I' for Inactive)
REMARK    1  A    between atoms: N_2  and  C_7
REMARK    2  A    between atoms: N_2  and  C_12
REMARK    3  A    between atoms: N_2  and  C_13
REMARK    4  A    between atoms: N_3  and  C_8
REMARK    5  A    between atoms: N_4  and  C_11
REMARK    6  A    between atoms: N_4  and  C_14
REMARK    7  A    between atoms: C_6  and  C_7
REMARK    8  A    between atoms: C_6  and  C_8
REMARK    9  A    between atoms: C_9  and  C_10
REMARK   10  A    between atoms: C_11  and  C_15
REMARK   11  A    between atoms: C_15  and  C_17
REMARK                            x       y       z     vdW  Elec       q    Type
REMARK                         _______ _______ _______ _____ _____    ______ ____
ROOT
ATOM      1  N   UNL     1     -20.691  45.412 -20.005  0.00  0.00    +0.000 NA
ATOM      2  C   UNL     1     -19.808  43.897 -18.340  0.00  0.00    +0.000 A 
ATOM      3  C   UNL     1     -20.840  44.614 -18.924  0.00  0.00    +0.000 A 
ATOM      4  C   UNL     1     -18.541  44.005 -18.902  0.00  0.00    +0.000 A 
ATOM      5  C   UNL     1     -18.348  44.816 -20.015  0.00  0.00    +0.000 A 
ATOM      6  C   UNL     1     -19.445  45.492 -20.525  0.00  0.00    +0.000 A 
ENDROOT
BRANCH   2   9
ATOM      7  O   UNL     1     -20.662  41.994 -17.269  0.00  0.00    +0.000 OA
ATOM      8  N   UNL     1     -19.394  43.444 -15.977  0.00  0.00    +0.000 N 
ATOM      9  C   UNL     1     -20.005  43.026 -17.153  0.00  0.00    +0.000 C 
ATOM     10  H   UNL     1     -18.854  44.305 -15.977  0.00  0.00    +0.000 HD
BRANCH   8  11
ATOM     11  C   UNL     1     -19.473  42.697 -14.753  0.00  0.00    +0.000 C 
BRANCH  11  12
ATOM     12  C   UNL     1     -18.645  43.322 -13.631  0.00  0.00    +0.000 C 
BRANCH  12  13
ATOM     13  C   UNL     1     -17.912  42.310 -12.747  0.00  0.00    +0.000 C 
BRANCH  13  14
ATOM     14  N   UNL     1     -18.434  40.959 -12.917  0.00  0.00    +0.000 NA
ATOM     15  C   UNL     1     -19.287  40.590 -11.787  0.00  0.00    +0.000 C 
ATOM     16  C   UNL     1     -17.340  39.997 -13.062  0.00  0.00    +0.000 C 
ENDBRANCH  13  14
ENDBRANCH  12  13
ENDBRANCH  11  12
ENDBRANCH   8  11
ENDBRANCH   2   9
BRANCH   3  17
ATOM     17  N   UNL     1     -22.135  44.507 -18.358  0.00  0.00    +0.000 N 
ATOM     18  H   UNL     1     -22.397  43.583 -18.027  0.00  0.00    +0.000 HD
BRANCH  17  19
ATOM     19  C   UNL     1     -22.831  45.625 -17.810  0.00  0.00    +0.000 C 
BRANCH  19  20
ATOM     20  C   UNL     1     -24.251  45.235 -17.413  0.00  0.00    +0.000 C 
ATOM     21  C   UNL     1     -25.289  46.260 -17.849  0.00  0.00    +0.000 C 
ENDBRANCH  19  20
ENDBRANCH  17  19
ENDBRANCH   3  17
TORSDOF 8
ENDMDL
MODEL 5
REMARK VINA RESULT:    -4.935      2.715      5.199
REMARK INTER + INTRA:          -8.368
REMARK INTER:                  -7.637
REMARK INTRA:                  -0.731
REMARK UNBOUND:                -1.125
REMARK  Name = 55028546
REMARK  11 active torsions:
REMARK  status: ('A' for Active; 'I' for Inactive)
REMARK    1  A    between atoms: N_2  and  C_7
REMARK    2  A    between atoms: N_2  and  C_12
REMARK    3  A    between atoms: N_2  and  C_13
REMARK    4  A    between atoms: N_3  and  C_8
REMARK    5  A    between atoms: N_4  and  C_11
REMARK    6  A    between atoms: N_4  and  C_14
REMARK    7  A    between atoms: C_6  and  C_7
REMARK    8  A    between atoms: C_6  and  C_8
REMARK    9  A    between atoms: C_9  and  C_10
REMARK   10  A    between atoms: C_11  and  C_15
REMARK   11  A    between atoms: C_15  and  C_17
REMARK                            x       y       z     vdW  Elec       q    Type
REMARK                         _______ _______ _______ _____ _____    ______ ____
ROOT
ATOM      1  N   UNL     1     -19.082  40.591 -13.151  0.00  0.00    +0.000 NA
ATOM      2  C   UNL     1     -17.333  41.516 -11.761  0.00  0.00    +0.000 A 
ATOM      3  C   UNL     1     -18.145  41.528 -12.883  0.00  0.00    +0.000 A 
ATOM      4  C   UNL     1     -17.493  40.475 -10.853  0.00  0.00    +0.000 A 
ATOM      5  C   UNL     1     -18.447  39.492 -11.093  0.00  0.00    +0.000 A 
ATOM      6  C   UNL     1     -19.209  39.594 -12.245  0.00  0.00    +0.000 A 
ENDROOT
BRANCH   2   9
ATOM      7  O   UNL     1     -16.673  43.733 -11.381  0.00  0.00    +0.000 OA
ATOM      8  N   UNL     1     -15.003  42.124 -11.366  0.00  0.00    +0.000 N 
ATOM      9  C   UNL     1     -16.315  42.564 -11.493  0.00  0.00    +0.000 C 
ATOM     10  H   UNL     1     -14.799  41.133 -11.458  0.00  0.00    +0.000 HD
BRANCH   8  11
ATOM     11  C   UNL     1     -13.910  43.013 -11.083  0.00  0.00    +0.000 C 
BRANCH  11  12
ATOM     12  C   UNL     1     -12.615  42.267 -10.763  0.00  0.00    +0.000 C 
BRANCH  12  13
ATOM     13  C   UNL     1     -11.583  42.279 -11.893  0.00  0.00    +0.000 C 
BRANCH  13  14
ATOM     14  N   UNL     1     -10.599  41.214 -11.743  0.00  0.00    +0.000 NA
ATOM     15  C   UNL     1      -9.804  41.071 -12.963  0.00  0.00    +0.000 C 
ATOM     16  C   UNL     1     -11.254  39.947 -11.413  0.00  0.00    +0.000 C 
ENDBRANCH  13  14
ENDBRANCH  12  13
ENDBRANCH  11  12
ENDBRANCH   8  11
ENDBRANCH   2   9
BRANCH   3  17
ATOM     17  N   UNL     1     -17.990  42.588 -13.812  0.00  0.00    +0.000 N 
ATOM     18  H   UNL     1     -17.269  42.457 -14.515  0.00  0.00    +0.000 HD
BRANCH  17  19
ATOM     19  C   UNL     1     -19.035  43.514 -14.105  0.00  0.00    +0.000 C 
BRANCH  19  20
ATOM     20  C   UNL     1     -19.588  43.278 -15.507  0.00  0.00    +0.000 C 
ATOM     21  C   UNL     1     -19.704  44.560 -16.319  0.00  0.00    +0.000 C 
ENDBRANCH  19  20
ENDBRANCH  17  19
ENDBRANCH   3  17
TORSDOF 8
ENDMDL
