MODEL 1
REMARK VINA RESULT:    -7.134      0.000      0.000
REMARK INTER + INTRA:          -8.296
REMARK INTER:                  -7.968
REMARK INTRA:                  -0.328
REMARK UNBOUND:                -0.328
REMARK  Name = 55036893
REMARK  2 active torsions:
REMARK  status: ('A' for Active; 'I' for Inactive)
REMARK    1  A    between atoms: N_3  and  C_6
REMARK    2  A    between atoms: C_7  and  C_8
REMARK                            x       y       z     vdW  Elec       q    Type
REMARK                         _______ _______ _______ _____ _____    ______ ____
ROOT
ATOM      1  O   UNL     1     -20.475  39.134  -9.211  0.00  0.00    +0.000 OA
ATOM      2  N   UNL     1     -19.282  41.051  -9.866  0.00  0.00    +0.000 N 
ATOM      3  C   UNL     1     -20.170  40.313  -9.073  0.00  0.00    +0.000 C 
ATOM      4  H   UNL     1     -19.096  42.016  -9.606  0.00  0.00    +0.000 HD
ENDROOT
BRANCH   3   7
ATOM      5  N   UNL     1     -22.760  41.766  -6.753  0.00  0.00    +0.000 NA
ATOM      6  N   UNL     1     -22.542  43.102  -4.792  0.00  0.00    +0.000 N 
ATOM      7  C   UNL     1     -20.774  41.056  -7.934  0.00  0.00    +0.000 A 
ATOM      8  C   UNL     1     -19.977  41.718  -7.006  0.00  0.00    +0.000 A 
ATOM      9  C   UNL     1     -22.148  41.110  -7.764  0.00  0.00    +0.000 A 
ATOM     10  C   UNL     1     -20.570  42.403  -5.952  0.00  0.00    +0.000 A 
ATOM     11  C   UNL     1     -21.953  42.398  -5.871  0.00  0.00    +0.000 A 
ATOM     12  H   UNL     1     -22.013  43.199  -3.934  0.00  0.00    +0.000 HD
ATOM     13  H   UNL     1     -23.553  43.090  -4.733  0.00  0.00    +0.000 HD
ENDBRANCH   3   7
BRANCH   2  15
ATOM     14  F   UNL     1     -15.256  39.313 -11.781  0.00  0.00    +0.000 F 
ATOM     15  C   UNL     1     -18.557  40.615 -10.975  0.00  0.00    +0.000 A 
ATOM     16  C   UNL     1     -17.244  40.172 -10.820  0.00  0.00    +0.000 A 
ATOM     17  C   UNL     1     -19.146  40.622 -12.241  0.00  0.00    +0.000 A 
ATOM     18  C   UNL     1     -16.518  39.737 -11.930  0.00  0.00    +0.000 A 
ATOM     19  C   UNL     1     -18.420  40.188 -13.350  0.00  0.00    +0.000 A 
ATOM     20  C   UNL     1     -17.107  39.744 -13.194  0.00  0.00    +0.000 A 
ENDBRANCH   2  15
TORSDOF 2
ENDMDL
MODEL 2
REMARK VINA RESULT:    -6.571      5.162      6.831
REMARK INTER + INTRA:          -7.667
REMARK INTER:                  -7.358
REMARK INTRA:                  -0.309
REMARK UNBOUND:                -0.328
REMARK  Name = 55036893
REMARK  2 active torsions:
REMARK  status: ('A' for Active; 'I' for Inactive)
REMARK    1  A    between atoms: N_3  and  C_6
REMARK    2  A    between atoms: C_7  and  C_8
REMARK                            x       y       z     vdW  Elec       q    Type
REMARK                         _______ _______ _______ _____ _____    ______ ____
ROOT
ATOM      1  O   UNL     1     -18.544  44.345 -14.093  0.00  0.00    +0.000 OA
ATOM      2  N   UNL     1     -20.126  42.697 -14.651  0.00  0.00    +0.000 N 
ATOM      3  C   UNL     1     -19.123  43.287 -13.871  0.00  0.00    +0.000 C 
ATOM      4  H   UNL     1     -20.544  41.832 -14.319  0.00  0.00    +0.000 HD
ENDROOT
BRANCH   3   7
ATOM      5  N   UNL     1     -19.055  40.599 -11.232  0.00  0.00    +0.000 NA
ATOM      6  N   UNL     1     -17.801  40.407  -9.214  0.00  0.00    +0.000 N 
ATOM      7  C   UNL     1     -18.758  42.545 -12.635  0.00  0.00    +0.000 A 
ATOM      8  C   UNL     1     -17.820  43.054 -11.744  0.00  0.00    +0.000 A 
ATOM      9  C   UNL     1     -19.341  41.324 -12.336  0.00  0.00    +0.000 A 
ATOM     10  C   UNL     1     -17.498  42.337 -10.597  0.00  0.00    +0.000 A 
ATOM     11  C   UNL     1     -18.139  41.126 -10.388  0.00  0.00    +0.000 A 
ATOM     12  H   UNL     1     -16.876  40.533  -8.822  0.00  0.00    +0.000 HD
ATOM     13  H   UNL     1     -18.266  39.519  -9.069  0.00  0.00    +0.000 HD
ENDBRANCH   3   7
BRANCH   2  15
ATOM     14  F   UNL     1     -23.793  44.627 -17.043  0.00  0.00    +0.000 F 
ATOM     15  C   UNL     1     -20.683  43.174 -15.838  0.00  0.00    +0.000 A 
ATOM     16  C   UNL     1     -21.985  43.673 -15.847  0.00  0.00    +0.000 A 
ATOM     17  C   UNL     1     -19.936  43.152 -17.017  0.00  0.00    +0.000 A 
ATOM     18  C   UNL     1     -22.541  44.150 -17.035  0.00  0.00    +0.000 A 
ATOM     19  C   UNL     1     -20.493  43.627 -18.205  0.00  0.00    +0.000 A 
ATOM     20  C   UNL     1     -21.796  44.127 -18.212  0.00  0.00    +0.000 A 
ENDBRANCH   2  15
TORSDOF 2
ENDMDL
MODEL 3
REMARK VINA RESULT:    -6.360      4.310      5.621
REMARK INTER + INTRA:          -7.432
REMARK INTER:                  -7.117
REMARK INTRA:                  -0.315
REMARK UNBOUND:                -0.328
REMARK  Name = 55036893
REMARK  2 active torsions:
REMARK  status: ('A' for Active; 'I' for Inactive)
REMARK    1  A    between atoms: N_3  and  C_6
REMARK    2  A    between atoms: C_7  and  C_8
REMARK                            x       y       z     vdW  Elec       q    Type
REMARK                         _______ _______ _______ _____ _____    ______ ____
ROOT
ATOM      1  O   UNL     1     -17.258  41.816 -13.539  0.00  0.00    +0.000 OA
ATOM      2  N   UNL     1     -19.295  42.987 -13.462  0.00  0.00    +0.000 N 
ATOM      3  C   UNL     1     -18.295  42.138 -12.970  0.00  0.00    +0.000 C 
ATOM      4  H   UNL     1     -20.085  43.196 -12.859  0.00  0.00    +0.000 HD
ENDROOT
BRANCH   3   7
ATOM      5  N   UNL     1     -19.461  39.879 -10.189  0.00  0.00    +0.000 NA
ATOM      6  N   UNL     1     -19.228  40.048  -7.824  0.00  0.00    +0.000 N 
ATOM      7  C   UNL     1     -18.529  41.605 -11.601  0.00  0.00    +0.000 A 
ATOM      8  C   UNL     1     -18.067  42.284 -10.479  0.00  0.00    +0.000 A 
ATOM      9  C   UNL     1     -19.214  40.417 -11.404  0.00  0.00    +0.000 A 
ATOM     10  C   UNL     1     -18.301  41.762  -9.212  0.00  0.00    +0.000 A 
ATOM     11  C   UNL     1     -18.997  40.567  -9.122  0.00  0.00    +0.000 A 
ATOM     12  H   UNL     1     -18.568  40.273  -7.090  0.00  0.00    +0.000 HD
ATOM     13  H   UNL     1     -19.731  39.171  -7.763  0.00  0.00    +0.000 HD
ENDBRANCH   3   7
BRANCH   2  15
ATOM     14  F   UNL     1     -20.636  43.148 -18.052  0.00  0.00    +0.000 F 
ATOM     15  C   UNL     1     -19.333  43.646 -14.692  0.00  0.00    +0.000 A 
ATOM     16  C   UNL     1     -19.979  43.057 -15.778  0.00  0.00    +0.000 A 
ATOM     17  C   UNL     1     -18.724  44.893 -14.835  0.00  0.00    +0.000 A 
ATOM     18  C   UNL     1     -20.017  43.715 -17.008  0.00  0.00    +0.000 A 
ATOM     19  C   UNL     1     -18.761  45.551 -16.065  0.00  0.00    +0.000 A 
ATOM     20  C   UNL     1     -19.408  44.961 -17.151  0.00  0.00    +0.000 A 
ENDBRANCH   2  15
TORSDOF 2
ENDMDL
MODEL 4
REMARK VINA RESULT:    -6.320      5.153      7.935
REMARK INTER + INTRA:          -7.387
REMARK INTER:                  -7.042
REMARK INTRA:                  -0.345
REMARK UNBOUND:                -0.328
REMARK  Name = 55036893
REMARK  2 active torsions:
REMARK  status: ('A' for Active; 'I' for Inactive)
REMARK    1  A    between atoms: N_3  and  C_6
REMARK    2  A    between atoms: C_7  and  C_8
REMARK                            x       y       z     vdW  Elec       q    Type
REMARK                         _______ _______ _______ _____ _____    ______ ____
ROOT
ATOM      1  O   UNL     1     -18.758  44.192 -13.733  0.00  0.00    +0.000 OA
ATOM      2  N   UNL     1     -19.228  41.923 -14.133  0.00  0.00    +0.000 N 
ATOM      3  C   UNL     1     -19.212  43.292 -14.431  0.00  0.00    +0.000 C 
ATOM      4  H   UNL     1     -19.606  41.286 -14.828  0.00  0.00    +0.000 HD
ENDROOT
BRANCH   3   7
ATOM      5  N   UNL     1     -20.081  45.322 -17.484  0.00  0.00    +0.000 NA
ATOM      6  N   UNL     1     -21.369  44.785 -19.415  0.00  0.00    +0.000 N 
ATOM      7  C   UNL     1     -19.792  43.663 -15.749  0.00  0.00    +0.000 A 
ATOM      8  C   UNL     1     -20.560  42.760 -16.475  0.00  0.00    +0.000 A 
ATOM      9  C   UNL     1     -19.584  44.921 -16.293  0.00  0.00    +0.000 A 
ATOM     10  C   UNL     1     -21.088  43.135 -17.705  0.00  0.00    +0.000 A 
ATOM     11  C   UNL     1     -20.823  44.416 -18.161  0.00  0.00    +0.000 A 
ATOM     12  H   UNL     1     -21.535  44.058 -20.101  0.00  0.00    +0.000 HD
ATOM     13  H   UNL     1     -21.167  45.720 -19.748  0.00  0.00    +0.000 HD
ENDBRANCH   3   7
BRANCH   2  15
ATOM     14  F   UNL     1     -19.971  39.825  -9.898  0.00  0.00    +0.000 F 
ATOM     15  C   UNL     1     -18.737  41.287 -12.992  0.00  0.00    +0.000 A 
ATOM     16  C   UNL     1     -19.617  40.864 -11.996  0.00  0.00    +0.000 A 
ATOM     17  C   UNL     1     -17.366  41.076 -12.847  0.00  0.00    +0.000 A 
ATOM     18  C   UNL     1     -19.126  40.229 -10.855  0.00  0.00    +0.000 A 
ATOM     19  C   UNL     1     -16.874  40.442 -11.705  0.00  0.00    +0.000 A 
ATOM     20  C   UNL     1     -17.756  40.018 -10.710  0.00  0.00    +0.000 A 
ENDBRANCH   2  15
TORSDOF 2
ENDMDL
MODEL 5
REMARK VINA RESULT:    -6.020      6.065      8.170
REMARK INTER + INTRA:          -7.052
REMARK INTER:                  -6.732
REMARK INTRA:                  -0.320
REMARK UNBOUND:                -0.328
REMARK  Name = 55036893
REMARK  2 active torsions:
REMARK  status: ('A' for Active; 'I' for Inactive)
REMARK    1  A    between atoms: N_3  and  C_6
REMARK    2  A    between atoms: C_7  and  C_8
REMARK                            x       y       z     vdW  Elec       q    Type
REMARK                         _______ _______ _______ _____ _____    ______ ____
ROOT
ATOM      1  O   UNL     1     -19.737  42.333 -16.565  0.00  0.00    +0.000 OA
ATOM      2  N   UNL     1     -19.992  43.474 -14.525  0.00  0.00    +0.000 N 
ATOM      3  C   UNL     1     -20.231  43.224 -15.883  0.00  0.00    +0.000 C 
ATOM      4  H   UNL     1     -20.506  44.229 -14.079  0.00  0.00    +0.000 HD
ENDROOT
BRANCH   3   7
ATOM      5  N   UNL     1     -21.622  46.100 -17.880  0.00  0.00    +0.000 NA
ATOM      6  N   UNL     1     -23.866  46.724 -18.385  0.00  0.00    +0.000 N 
ATOM      7  C   UNL     1     -21.210  44.134 -16.535  0.00  0.00    +0.000 A 
ATOM      8  C   UNL     1     -22.578  43.907 -16.433  0.00  0.00    +0.000 A 
ATOM      9  C   UNL     1     -20.787  45.234 -17.263  0.00  0.00    +0.000 A 
ATOM     10  C   UNL     1     -23.469  44.775 -17.054  0.00  0.00    +0.000 A 
ATOM     11  C   UNL     1     -22.945  45.848 -17.759  0.00  0.00    +0.000 A 
ATOM     12  H   UNL     1     -24.763  46.354 -18.675  0.00  0.00    +0.000 HD
ATOM     13  H   UNL     1     -23.479  47.503 -18.904  0.00  0.00    +0.000 HD
ENDBRANCH   3   7
BRANCH   2  15
ATOM     14  F   UNL     1     -15.689  42.815 -12.540  0.00  0.00    +0.000 F 
ATOM     15  C   UNL     1     -19.151  42.775 -13.659  0.00  0.00    +0.000 A 
ATOM     16  C   UNL     1     -17.814  43.153 -13.529  0.00  0.00    +0.000 A 
ATOM     17  C   UNL     1     -19.646  41.699 -12.922  0.00  0.00    +0.000 A 
ATOM     18  C   UNL     1     -16.973  42.453 -12.663  0.00  0.00    +0.000 A 
ATOM     19  C   UNL     1     -18.804  40.998 -12.057  0.00  0.00    +0.000 A 
ATOM     20  C   UNL     1     -17.468  41.377 -11.928  0.00  0.00    +0.000 A 
ENDBRANCH   2  15
TORSDOF 2
ENDMDL
