MODEL 1
REMARK VINA RESULT:    -6.409      0.000      0.000
REMARK INTER + INTRA:          -7.381
REMARK INTER:                  -7.158
REMARK INTRA:                  -0.223
REMARK UNBOUND:                -0.223
REMARK  Name = 55036892
REMARK  2 active torsions:
REMARK  status: ('A' for Active; 'I' for Inactive)
REMARK    1  A    between atoms: N_3  and  C_6
REMARK    2  A    between atoms: C_7  and  C_8
REMARK                            x       y       z     vdW  Elec       q    Type
REMARK                         _______ _______ _______ _____ _____    ______ ____
ROOT
ATOM      1  O   UNL     1     -18.220  44.084 -13.956  0.00  0.00    +0.000 OA
ATOM      2  N   UNL     1     -20.002  42.620 -14.418  0.00  0.00    +0.000 N 
ATOM      3  C   UNL     1     -18.940  43.136 -13.662  0.00  0.00    +0.000 C 
ATOM      4  H   UNL     1     -20.539  41.852 -14.026  0.00  0.00    +0.000 HD
ENDROOT
BRANCH   3   7
ATOM      5  N   UNL     1     -19.153  40.601 -10.882  0.00  0.00    +0.000 NA
ATOM      6  N   UNL     1     -18.086  40.509  -8.753  0.00  0.00    +0.000 N 
ATOM      7  C   UNL     1     -18.699  42.461 -12.359  0.00  0.00    +0.000 A 
ATOM      8  C   UNL     1     -17.836  43.009 -11.416  0.00  0.00    +0.000 A 
ATOM      9  C   UNL     1     -19.327  41.266 -12.046  0.00  0.00    +0.000 A 
ATOM     10  C   UNL     1     -17.630  42.354 -10.207  0.00  0.00    +0.000 A 
ATOM     11  C   UNL     1     -18.306  41.164  -9.990  0.00  0.00    +0.000 A 
ATOM     12  H   UNL     1     -17.199  40.647  -8.286  0.00  0.00    +0.000 HD
ATOM     13  H   UNL     1     -18.577  39.637  -8.602  0.00  0.00    +0.000 HD
ENDBRANCH   3   7
BRANCH   2  15
ATOM     14  F   UNL     1     -21.854  44.371 -19.318  0.00  0.00    +0.000 F 
ATOM     15  C   UNL     1     -20.469  43.062 -15.655  0.00  0.00    +0.000 A 
ATOM     16  C   UNL     1     -19.614  43.082 -16.757  0.00  0.00    +0.000 A 
ATOM     17  C   UNL     1     -21.791  43.484 -15.790  0.00  0.00    +0.000 A 
ATOM     18  C   UNL     1     -20.082  43.526 -17.994  0.00  0.00    +0.000 A 
ATOM     19  C   UNL     1     -22.260  43.927 -17.028  0.00  0.00    +0.000 A 
ATOM     20  C   UNL     1     -21.405  43.947 -18.129  0.00  0.00    +0.000 A 
ENDBRANCH   2  15
TORSDOF 2
ENDMDL
MODEL 2
REMARK VINA RESULT:    -6.362      1.523      1.857
REMARK INTER + INTRA:          -7.329
REMARK INTER:                  -7.019
REMARK INTRA:                  -0.310
REMARK UNBOUND:                -0.223
REMARK  Name = 55036892
REMARK  2 active torsions:
REMARK  status: ('A' for Active; 'I' for Inactive)
REMARK    1  A    between atoms: N_3  and  C_6
REMARK    2  A    between atoms: C_7  and  C_8
REMARK                            x       y       z     vdW  Elec       q    Type
REMARK                         _______ _______ _______ _____ _____    ______ ____
ROOT
ATOM      1  O   UNL     1     -17.262  41.825 -13.528  0.00  0.00    +0.000 OA
ATOM      2  N   UNL     1     -19.350  42.905 -13.479  0.00  0.00    +0.000 N 
ATOM      3  C   UNL     1     -18.315  42.109 -12.968  0.00  0.00    +0.000 C 
ATOM      4  H   UNL     1     -20.151  43.088 -12.881  0.00  0.00    +0.000 HD
ENDROOT
BRANCH   3   7
ATOM      5  N   UNL     1     -19.414  39.854 -10.157  0.00  0.00    +0.000 NA
ATOM      6  N   UNL     1     -19.176  40.057  -7.794  0.00  0.00    +0.000 N 
ATOM      7  C   UNL     1     -18.531  41.588 -11.593  0.00  0.00    +0.000 A 
ATOM      8  C   UNL     1     -18.084  42.292 -10.481  0.00  0.00    +0.000 A 
ATOM      9  C   UNL     1     -19.185  40.385 -11.379  0.00  0.00    +0.000 A 
ATOM     10  C   UNL     1     -18.300  41.778  -9.206  0.00  0.00    +0.000 A 
ATOM     11  C   UNL     1     -18.964  40.567  -9.100  0.00  0.00    +0.000 A 
ATOM     12  H   UNL     1     -18.521  40.309  -7.066  0.00  0.00    +0.000 HD
ATOM     13  H   UNL     1     -19.656  39.169  -7.721  0.00  0.00    +0.000 HD
ENDBRANCH   3   7
BRANCH   2  15
ATOM     14  F   UNL     1     -19.595  45.426 -18.387  0.00  0.00    +0.000 F 
ATOM     15  C   UNL     1     -19.413  43.542 -14.718  0.00  0.00    +0.000 A 
ATOM     16  C   UNL     1     -18.845  44.805 -14.882  0.00  0.00    +0.000 A 
ATOM     17  C   UNL     1     -20.041  42.915 -15.793  0.00  0.00    +0.000 A 
ATOM     18  C   UNL     1     -18.908  45.443 -16.121  0.00  0.00    +0.000 A 
ATOM     19  C   UNL     1     -20.104  43.551 -17.033  0.00  0.00    +0.000 A 
ATOM     20  C   UNL     1     -19.537  44.815 -17.196  0.00  0.00    +0.000 A 
ENDBRANCH   2  15
TORSDOF 2
ENDMDL
MODEL 3
REMARK VINA RESULT:    -6.302      3.496      7.206
REMARK INTER + INTRA:          -7.262
REMARK INTER:                  -6.969
REMARK INTRA:                  -0.294
REMARK UNBOUND:                -0.223
REMARK  Name = 55036892
REMARK  2 active torsions:
REMARK  status: ('A' for Active; 'I' for Inactive)
REMARK    1  A    between atoms: N_3  and  C_6
REMARK    2  A    between atoms: C_7  and  C_8
REMARK                            x       y       z     vdW  Elec       q    Type
REMARK                         _______ _______ _______ _____ _____    ______ ____
ROOT
ATOM      1  O   UNL     1     -18.875  44.454 -14.189  0.00  0.00    +0.000 OA
ATOM      2  N   UNL     1     -19.275  42.140 -14.322  0.00  0.00    +0.000 N 
ATOM      3  C   UNL     1     -19.282  43.463 -14.786  0.00  0.00    +0.000 C 
ATOM      4  H   UNL     1     -19.610  41.413 -14.947  0.00  0.00    +0.000 HD
ENDROOT
BRANCH   3   7
ATOM      5  N   UNL     1     -19.863  44.952 -18.198  0.00  0.00    +0.000 NA
ATOM      6  N   UNL     1     -21.271  44.266 -19.994  0.00  0.00    +0.000 N 
ATOM      7  C   UNL     1     -19.822  43.654 -16.158  0.00  0.00    +0.000 A 
ATOM      8  C   UNL     1     -20.752  42.770 -16.692  0.00  0.00    +0.000 A 
ATOM      9  C   UNL     1     -19.413  44.719 -16.944  0.00  0.00    +0.000 A 
ATOM     10  C   UNL     1     -21.237  42.975 -17.980  0.00  0.00    +0.000 A 
ATOM     11  C   UNL     1     -20.766  44.071 -18.684  0.00  0.00    +0.000 A 
ATOM     12  H   UNL     1     -21.576  43.456 -20.518  0.00  0.00    +0.000 HD
ATOM     13  H   UNL     1     -20.919  45.064 -20.507  0.00  0.00    +0.000 HD
ENDBRANCH   3   7
BRANCH   2  15
ATOM     14  F   UNL     1     -17.434  40.247  -9.470  0.00  0.00    +0.000 F 
ATOM     15  C   UNL     1     -18.810  41.663 -13.097  0.00  0.00    +0.000 A 
ATOM     16  C   UNL     1     -19.709  41.147 -12.163  0.00  0.00    +0.000 A 
ATOM     17  C   UNL     1     -17.447  41.699 -12.806  0.00  0.00    +0.000 A 
ATOM     18  C   UNL     1     -19.244  40.670 -10.937  0.00  0.00    +0.000 A 
ATOM     19  C   UNL     1     -16.981  41.222 -11.581  0.00  0.00    +0.000 A 
ATOM     20  C   UNL     1     -17.880  40.707 -10.647  0.00  0.00    +0.000 A 
ENDBRANCH   2  15
TORSDOF 2
ENDMDL
MODEL 4
REMARK VINA RESULT:    -6.163      3.569      7.229
REMARK INTER + INTRA:          -7.107
REMARK INTER:                  -6.799
REMARK INTRA:                  -0.308
REMARK UNBOUND:                -0.223
REMARK  Name = 55036892
REMARK  2 active torsions:
REMARK  status: ('A' for Active; 'I' for Inactive)
REMARK    1  A    between atoms: N_3  and  C_6
REMARK    2  A    between atoms: C_7  and  C_8
REMARK                            x       y       z     vdW  Elec       q    Type
REMARK                         _______ _______ _______ _____ _____    ______ ____
ROOT
ATOM      1  O   UNL     1     -19.851  42.289 -16.545  0.00  0.00    +0.000 OA
ATOM      2  N   UNL     1     -19.940  43.567 -14.573  0.00  0.00    +0.000 N 
ATOM      3  C   UNL     1     -20.260  43.248 -15.899  0.00  0.00    +0.000 C 
ATOM      4  H   UNL     1     -20.389  44.376 -14.154  0.00  0.00    +0.000 HD
ENDROOT
BRANCH   3   7
ATOM      5  N   UNL     1     -21.586  46.142 -17.916  0.00  0.00    +0.000 NA
ATOM      6  N   UNL     1     -23.814  46.798 -18.448  0.00  0.00    +0.000 N 
ATOM      7  C   UNL     1     -21.218  44.172 -16.563  0.00  0.00    +0.000 A 
ATOM      8  C   UNL     1     -22.590  43.966 -16.476  0.00  0.00    +0.000 A 
ATOM      9  C   UNL     1     -20.771  45.264 -17.289  0.00  0.00    +0.000 A 
ATOM     10  C   UNL     1     -23.461  44.847 -17.108  0.00  0.00    +0.000 A 
ATOM     11  C   UNL     1     -22.913  45.909 -17.809  0.00  0.00    +0.000 A 
ATOM     12  H   UNL     1     -24.713  46.441 -18.745  0.00  0.00    +0.000 HD
ATOM     13  H   UNL     1     -23.410  47.569 -18.964  0.00  0.00    +0.000 HD
ENDBRANCH   3   7
BRANCH   2  15
ATOM     14  F   UNL     1     -16.601  40.827 -11.129  0.00  0.00    +0.000 F 
ATOM     15  C   UNL     1     -19.097  42.875 -13.703  0.00  0.00    +0.000 A 
ATOM     16  C   UNL     1     -19.569  41.756 -13.018  0.00  0.00    +0.000 A 
ATOM     17  C   UNL     1     -17.782  43.303 -13.519  0.00  0.00    +0.000 A 
ATOM     18  C   UNL     1     -18.726  41.065 -12.147  0.00  0.00    +0.000 A 
ATOM     19  C   UNL     1     -16.939  42.611 -12.649  0.00  0.00    +0.000 A 
ATOM     20  C   UNL     1     -17.411  41.492 -11.964  0.00  0.00    +0.000 A 
ENDBRANCH   2  15
TORSDOF 2
ENDMDL
MODEL 5
REMARK VINA RESULT:    -5.818      1.972      2.132
REMARK INTER + INTRA:          -6.721
REMARK INTER:                  -6.475
REMARK INTRA:                  -0.246
REMARK UNBOUND:                -0.223
REMARK  Name = 55036892
REMARK  2 active torsions:
REMARK  status: ('A' for Active; 'I' for Inactive)
REMARK    1  A    between atoms: N_3  and  C_6
REMARK    2  A    between atoms: C_7  and  C_8
REMARK                            x       y       z     vdW  Elec       q    Type
REMARK                         _______ _______ _______ _____ _____    ______ ____
ROOT
ATOM      1  O   UNL     1     -20.412  42.345 -13.979  0.00  0.00    +0.000 OA
ATOM      2  N   UNL     1     -18.845  43.496 -15.303  0.00  0.00    +0.000 N 
ATOM      3  C   UNL     1     -19.261  42.678 -14.243  0.00  0.00    +0.000 C 
ATOM      4  H   UNL     1     -17.849  43.654 -15.422  0.00  0.00    +0.000 HD
ENDROOT
BRANCH   3   7
ATOM      5  N   UNL     1     -17.046  40.248 -12.405  0.00  0.00    +0.000 NA
ATOM      6  N   UNL     1     -15.165  40.600 -10.984  0.00  0.00    +0.000 N 
ATOM      7  C   UNL     1     -18.172  42.153 -13.378  0.00  0.00    +0.000 A 
ATOM      8  C   UNL     1     -17.282  43.013 -12.744  0.00  0.00    +0.000 A 
ATOM      9  C   UNL     1     -18.012  40.792 -13.177  0.00  0.00    +0.000 A 
ATOM     10  C   UNL     1     -16.273  42.492 -11.941  0.00  0.00    +0.000 A 
ATOM     11  C   UNL     1     -16.199  41.115 -11.805  0.00  0.00    +0.000 A 
ATOM     12  H   UNL     1     -14.313  41.137 -10.888  0.00  0.00    +0.000 HD
ATOM     13  H   UNL     1     -15.111  39.593 -10.892  0.00  0.00    +0.000 HD
ENDBRANCH   3   7
BRANCH   2  15
ATOM     14  F   UNL     1     -21.968  45.900 -19.174  0.00  0.00    +0.000 F 
ATOM     15  C   UNL     1     -19.634  44.103 -16.280  0.00  0.00    +0.000 A 
ATOM     16  C   UNL     1     -19.697  45.494 -16.360  0.00  0.00    +0.000 A 
ATOM     17  C   UNL     1     -20.359  43.319 -17.177  0.00  0.00    +0.000 A 
ATOM     18  C   UNL     1     -20.487  46.101 -17.337  0.00  0.00    +0.000 A 
ATOM     19  C   UNL     1     -21.148  43.925 -18.154  0.00  0.00    +0.000 A 
ATOM     20  C   UNL     1     -21.212  45.316 -18.234  0.00  0.00    +0.000 A 
ENDBRANCH   2  15
TORSDOF 2
ENDMDL
