MODEL 1
REMARK VINA RESULT:    -6.488      0.000      0.000
REMARK INTER + INTRA:          -9.780
REMARK INTER:                  -9.143
REMARK INTRA:                  -0.637
REMARK UNBOUND:                -0.637
REMARK  Name = 55037219
REMARK  9 active torsions:
REMARK  status: ('A' for Active; 'I' for Inactive)
REMARK    1  A    between atoms: N_2  and  C_7
REMARK    2  A    between atoms: C_5  and  C_6
REMARK    3  A    between atoms: C_5  and  C_7
REMARK    4  A    between atoms: C_6  and  C_8
REMARK    5  A    between atoms: C_7  and  C_11
REMARK    6  A    between atoms: C_8  and  C_9
REMARK    7  A    between atoms: C_9  and  C_10
REMARK    8  A    between atoms: C_10  and  C_12
REMARK    9  A    between atoms: C_13  and  C_14
REMARK                            x       y       z     vdW  Elec       q    Type
REMARK                         _______ _______ _______ _____ _____    ______ ____
ROOT
ATOM      1  O   UNL     1     -19.529  39.156 -10.712  0.00  0.00    +0.000 OA
ATOM      2  N   UNL     1     -18.078  40.947 -10.970  0.00  0.00    +0.000 N 
ATOM      3  C   UNL     1     -19.071  40.227 -10.323  0.00  0.00    +0.000 C 
ATOM      4  H   UNL     1     -17.750  41.829 -10.591  0.00  0.00    +0.000 HD
ENDROOT
BRANCH   3   7
ATOM      5  N   UNL     1     -19.277  42.285  -7.176  0.00  0.00    +0.000 NA
ATOM      6  N   UNL     1     -21.052  42.603  -5.618  0.00  0.00    +0.000 N 
ATOM      7  C   UNL     1     -19.616  40.842  -9.085  0.00  0.00    +0.000 A 
ATOM      8  C   UNL     1     -20.916  40.582  -8.668  0.00  0.00    +0.000 A 
ATOM      9  C   UNL     1     -18.844  41.694  -8.312  0.00  0.00    +0.000 A 
ATOM     10  C   UNL     1     -21.398  41.172  -7.504  0.00  0.00    +0.000 A 
ATOM     11  C   UNL     1     -20.546  42.009  -6.800  0.00  0.00    +0.000 A 
ATOM     12  H   UNL     1     -20.427  43.218  -5.110  0.00  0.00    +0.000 HD
ATOM     13  H   UNL     1     -22.048  42.767  -5.549  0.00  0.00    +0.000 HD
ENDBRANCH   3   7
BRANCH   2  14
ATOM     14  C   UNL     1     -17.468  40.493 -12.198  0.00  0.00    +0.000 C 
ATOM     15  C   UNL     1     -16.228  39.662 -11.879  0.00  0.00    +0.000 C 
BRANCH  14  16
ATOM     16  C   UNL     1     -17.113  41.672 -13.116  0.00  0.00    +0.000 C 
BRANCH  16  17
ATOM     17  C   UNL     1     -16.404  42.808 -12.367  0.00  0.00    +0.000 C 
BRANCH  17  18
ATOM     18  C   UNL     1     -16.699  44.164 -13.015  0.00  0.00    +0.000 C 
BRANCH  18  19
ATOM     19  C   UNL     1     -18.178  44.556 -12.961  0.00  0.00    +0.000 C 
BRANCH  19  20
ATOM     20  C   UNL     1     -18.406  46.013 -12.555  0.00  0.00    +0.000 C 
ATOM     21  C   UNL     1     -17.637  46.364 -11.290  0.00  0.00    +0.000 C 
ENDBRANCH  19  20
ENDBRANCH  18  19
ENDBRANCH  17  18
ENDBRANCH  16  17
ENDBRANCH  14  16
ENDBRANCH   2  14
TORSDOF 7
ENDMDL
MODEL 2
REMARK VINA RESULT:    -6.085      4.185      7.366
REMARK INTER + INTRA:          -9.213
REMARK INTER:                  -8.711
REMARK INTRA:                  -0.502
REMARK UNBOUND:                -0.637
REMARK  Name = 55037219
REMARK  9 active torsions:
REMARK  status: ('A' for Active; 'I' for Inactive)
REMARK    1  A    between atoms: N_2  and  C_7
REMARK    2  A    between atoms: C_5  and  C_6
REMARK    3  A    between atoms: C_5  and  C_7
REMARK    4  A    between atoms: C_6  and  C_8
REMARK    5  A    between atoms: C_7  and  C_11
REMARK    6  A    between atoms: C_8  and  C_9
REMARK    7  A    between atoms: C_9  and  C_10
REMARK    8  A    between atoms: C_10  and  C_12
REMARK    9  A    between atoms: C_13  and  C_14
REMARK                            x       y       z     vdW  Elec       q    Type
REMARK                         _______ _______ _______ _____ _____    ______ ____
ROOT
ATOM      1  O   UNL     1     -18.786  44.068 -13.489  0.00  0.00    +0.000 OA
ATOM      2  N   UNL     1     -19.191  41.829 -13.939  0.00  0.00    +0.000 N 
ATOM      3  C   UNL     1     -19.255  43.188 -14.207  0.00  0.00    +0.000 C 
ATOM      4  H   UNL     1     -19.604  41.157 -14.577  0.00  0.00    +0.000 HD
ENDROOT
BRANCH   3   7
ATOM      5  N   UNL     1     -19.963  44.759 -17.556  0.00  0.00    +0.000 NA
ATOM      6  N   UNL     1     -21.896  44.691 -18.947  0.00  0.00    +0.000 N 
ATOM      7  C   UNL     1     -19.972  43.571 -15.450  0.00  0.00    +0.000 A 
ATOM      8  C   UNL     1     -21.270  43.136 -15.692  0.00  0.00    +0.000 A 
ATOM      9  C   UNL     1     -19.367  44.373 -16.405  0.00  0.00    +0.000 A 
ATOM     10  C   UNL     1     -21.916  43.512 -16.865  0.00  0.00    +0.000 A 
ATOM     11  C   UNL     1     -21.225  44.317 -17.757  0.00  0.00    +0.000 A 
ATOM     12  H   UNL     1     -21.385  45.275 -19.598  0.00  0.00    +0.000 HD
ATOM     13  H   UNL     1     -22.607  44.072 -19.315  0.00  0.00    +0.000 HD
ENDBRANCH   3   7
BRANCH   2  14
ATOM     14  C   UNL     1     -18.551  41.301 -12.756  0.00  0.00    +0.000 C 
ATOM     15  C   UNL     1     -17.908  39.956 -13.079  0.00  0.00    +0.000 C 
BRANCH  14  16
ATOM     16  C   UNL     1     -19.544  41.166 -11.594  0.00  0.00    +0.000 C 
BRANCH  16  17
ATOM     17  C   UNL     1     -19.065  40.178 -10.522  0.00  0.00    +0.000 C 
BRANCH  17  18
ATOM     18  C   UNL     1     -19.943  40.254  -9.270  0.00  0.00    +0.000 C 
BRANCH  18  19
ATOM     19  C   UNL     1     -19.199  40.768  -8.035  0.00  0.00    +0.000 C 
BRANCH  19  20
ATOM     20  C   UNL     1     -20.073  41.608  -7.103  0.00  0.00    +0.000 C 
ATOM     21  C   UNL     1     -21.535  41.561  -7.523  0.00  0.00    +0.000 C 
ENDBRANCH  19  20
ENDBRANCH  18  19
ENDBRANCH  17  18
ENDBRANCH  16  17
ENDBRANCH  14  16
ENDBRANCH   2  14
TORSDOF 7
ENDMDL
MODEL 3
REMARK VINA RESULT:    -5.738      3.991      5.077
REMARK INTER + INTRA:          -8.722
REMARK INTER:                  -8.192
REMARK INTRA:                  -0.530
REMARK UNBOUND:                -0.637
REMARK  Name = 55037219
REMARK  9 active torsions:
REMARK  status: ('A' for Active; 'I' for Inactive)
REMARK    1  A    between atoms: N_2  and  C_7
REMARK    2  A    between atoms: C_5  and  C_6
REMARK    3  A    between atoms: C_5  and  C_7
REMARK    4  A    between atoms: C_6  and  C_8
REMARK    5  A    between atoms: C_7  and  C_11
REMARK    6  A    between atoms: C_8  and  C_9
REMARK    7  A    between atoms: C_9  and  C_10
REMARK    8  A    between atoms: C_10  and  C_12
REMARK    9  A    between atoms: C_13  and  C_14
REMARK                            x       y       z     vdW  Elec       q    Type
REMARK                         _______ _______ _______ _____ _____    ______ ____
ROOT
ATOM      1  O   UNL     1     -17.179  42.042 -13.414  0.00  0.00    +0.000 OA
ATOM      2  N   UNL     1     -19.397  42.705 -13.557  0.00  0.00    +0.000 N 
ATOM      3  C   UNL     1     -18.299  42.149 -12.920  0.00  0.00    +0.000 C 
ATOM      4  H   UNL     1     -20.294  42.758 -13.087  0.00  0.00    +0.000 HD
ENDROOT
BRANCH   3   7
ATOM      5  N   UNL     1     -19.514  39.940 -10.122  0.00  0.00    +0.000 NA
ATOM      6  N   UNL     1     -19.258  40.111  -7.758  0.00  0.00    +0.000 N 
ATOM      7  C   UNL     1     -18.539  41.631 -11.548  0.00  0.00    +0.000 A 
ATOM      8  C   UNL     1     -18.048  42.299 -10.433  0.00  0.00    +0.000 A 
ATOM      9  C   UNL     1     -19.259  40.465 -11.341  0.00  0.00    +0.000 A 
ATOM     10  C   UNL     1     -18.289  41.790  -9.161  0.00  0.00    +0.000 A 
ATOM     11  C   UNL     1     -19.021  40.618  -9.061  0.00  0.00    +0.000 A 
ATOM     12  H   UNL     1     -19.789  39.251  -7.690  0.00  0.00    +0.000 HD
ATOM     13  H   UNL     1     -18.587  40.320  -7.031  0.00  0.00    +0.000 HD
ENDBRANCH   3   7
BRANCH   2  14
ATOM     14  C   UNL     1     -19.329  43.228 -14.902  0.00  0.00    +0.000 C 
ATOM     15  C   UNL     1     -18.901  44.692 -14.862  0.00  0.00    +0.000 C 
BRANCH  14  16
ATOM     16  C   UNL     1     -20.670  43.071 -15.633  0.00  0.00    +0.000 C 
BRANCH  16  17
ATOM     17  C   UNL     1     -20.500  42.926 -17.150  0.00  0.00    +0.000 C 
BRANCH  17  18
ATOM     18  C   UNL     1     -21.425  43.886 -17.904  0.00  0.00    +0.000 C 
BRANCH  18  19
ATOM     19  C   UNL     1     -22.296  44.743 -16.981  0.00  0.00    +0.000 C 
BRANCH  19  20
ATOM     20  C   UNL     1     -23.160  45.758 -17.730  0.00  0.00    +0.000 C 
ATOM     21  C   UNL     1     -24.640  45.538 -17.453  0.00  0.00    +0.000 C 
ENDBRANCH  19  20
ENDBRANCH  18  19
ENDBRANCH  17  18
ENDBRANCH  16  17
ENDBRANCH  14  16
ENDBRANCH   2  14
TORSDOF 7
ENDMDL
MODEL 4
REMARK VINA RESULT:    -5.737      2.867      6.342
REMARK INTER + INTRA:          -8.722
REMARK INTER:                  -8.131
REMARK INTRA:                  -0.591
REMARK UNBOUND:                -0.637
REMARK  Name = 55037219
REMARK  9 active torsions:
REMARK  status: ('A' for Active; 'I' for Inactive)
REMARK    1  A    between atoms: N_2  and  C_7
REMARK    2  A    between atoms: C_5  and  C_6
REMARK    3  A    between atoms: C_5  and  C_7
REMARK    4  A    between atoms: C_6  and  C_8
REMARK    5  A    between atoms: C_7  and  C_11
REMARK    6  A    between atoms: C_8  and  C_9
REMARK    7  A    between atoms: C_9  and  C_10
REMARK    8  A    between atoms: C_10  and  C_12
REMARK    9  A    between atoms: C_13  and  C_14
REMARK                            x       y       z     vdW  Elec       q    Type
REMARK                         _______ _______ _______ _____ _____    ______ ____
ROOT
ATOM      1  O   UNL     1     -16.509  42.545 -12.825  0.00  0.00    +0.000 OA
ATOM      2  N   UNL     1     -18.276  42.545 -11.323  0.00  0.00    +0.000 N 
ATOM      3  C   UNL     1     -17.409  43.133 -12.232  0.00  0.00    +0.000 C 
ATOM      4  H   UNL     1     -18.997  43.094 -10.867  0.00  0.00    +0.000 HD
ENDROOT
BRANCH   3   7
ATOM      5  N   UNL     1     -17.938  46.407 -14.015  0.00  0.00    +0.000 NA
ATOM      6  N   UNL     1     -18.130  48.635 -13.190  0.00  0.00    +0.000 N 
ATOM      7  C   UNL     1     -17.598  44.589 -12.459  0.00  0.00    +0.000 A 
ATOM      8  C   UNL     1     -17.615  45.484 -11.397  0.00  0.00    +0.000 A 
ATOM      9  C   UNL     1     -17.763  45.096 -13.738  0.00  0.00    +0.000 A 
ATOM     10  C   UNL     1     -17.793  46.842 -11.641  0.00  0.00    +0.000 A 
ATOM     11  C   UNL     1     -17.949  47.249 -12.957  0.00  0.00    +0.000 A 
ATOM     12  H   UNL     1     -18.249  48.926 -14.152  0.00  0.00    +0.000 HD
ATOM     13  H   UNL     1     -18.557  49.194 -12.463  0.00  0.00    +0.000 HD
ENDBRANCH   3   7
BRANCH   2  14
ATOM     14  C   UNL     1     -18.202  41.144 -10.976  0.00  0.00    +0.000 C 
ATOM     15  C   UNL     1     -19.244  40.363 -11.772  0.00  0.00    +0.000 C 
BRANCH  14  16
ATOM     16  C   UNL     1     -18.393  40.929  -9.468  0.00  0.00    +0.000 C 
BRANCH  16  17
ATOM     17  C   UNL     1     -19.632  40.084  -9.148  0.00  0.00    +0.000 C 
BRANCH  17  18
ATOM     18  C   UNL     1     -20.646  40.881  -8.321  0.00  0.00    +0.000 C 
BRANCH  18  19
ATOM     19  C   UNL     1     -19.998  41.910  -7.391  0.00  0.00    +0.000 C 
BRANCH  19  20
ATOM     20  C   UNL     1     -20.794  42.158  -6.109  0.00  0.00    +0.000 C 
ATOM     21  C   UNL     1     -22.170  42.732  -6.413  0.00  0.00    +0.000 C 
ENDBRANCH  19  20
ENDBRANCH  18  19
ENDBRANCH  17  18
ENDBRANCH  16  17
ENDBRANCH  14  16
ENDBRANCH   2  14
TORSDOF 7
ENDMDL
MODEL 5
REMARK VINA RESULT:    -5.676      2.531      6.303
REMARK INTER + INTRA:          -8.635
REMARK INTER:                  -8.678
REMARK INTRA:                   0.043
REMARK UNBOUND:                -0.637
REMARK  Name = 55037219
REMARK  9 active torsions:
REMARK  status: ('A' for Active; 'I' for Inactive)
REMARK    1  A    between atoms: N_2  and  C_7
REMARK    2  A    between atoms: C_5  and  C_6
REMARK    3  A    between atoms: C_5  and  C_7
REMARK    4  A    between atoms: C_6  and  C_8
REMARK    5  A    between atoms: C_7  and  C_11
REMARK    6  A    between atoms: C_8  and  C_9
REMARK    7  A    between atoms: C_9  and  C_10
REMARK    8  A    between atoms: C_10  and  C_12
REMARK    9  A    between atoms: C_13  and  C_14
REMARK                            x       y       z     vdW  Elec       q    Type
REMARK                         _______ _______ _______ _____ _____    ______ ____
ROOT
ATOM      1  O   UNL     1     -19.619  41.965 -12.713  0.00  0.00    +0.000 OA
ATOM      2  N   UNL     1     -17.737  41.047 -11.716  0.00  0.00    +0.000 N 
ATOM      3  C   UNL     1     -18.423  42.013 -12.436  0.00  0.00    +0.000 C 
ATOM      4  H   UNL     1     -16.746  41.153 -11.527  0.00  0.00    +0.000 HD
ENDROOT
BRANCH   3   7
ATOM      5  N   UNL     1     -15.435  44.147 -13.273  0.00  0.00    +0.000 NA
ATOM      6  N   UNL     1     -15.276  46.327 -14.222  0.00  0.00    +0.000 N 
ATOM      7  C   UNL     1     -17.614  43.164 -12.914  0.00  0.00    +0.000 A 
ATOM      8  C   UNL     1     -18.221  44.302 -13.431  0.00  0.00    +0.000 A 
ATOM      9  C   UNL     1     -16.230  43.135 -12.857  0.00  0.00    +0.000 A 
ATOM     10  C   UNL     1     -17.437  45.364 -13.870  0.00  0.00    +0.000 A 
ATOM     11  C   UNL     1     -16.060  45.237 -13.770  0.00  0.00    +0.000 A 
ATOM     12  H   UNL     1     -14.270  46.228 -14.152  0.00  0.00    +0.000 HD
ATOM     13  H   UNL     1     -15.649  46.922 -14.950  0.00  0.00    +0.000 HD
ENDBRANCH   3   7
BRANCH   2  14
ATOM     14  C   UNL     1     -18.379  39.857 -11.208  0.00  0.00    +0.000 C 
ATOM     15  C   UNL     1     -19.223  39.220 -12.308  0.00  0.00    +0.000 C 
BRANCH  14  16
ATOM     16  C   UNL     1     -19.236  40.167  -9.973  0.00  0.00    +0.000 C 
BRANCH  16  17
ATOM     17  C   UNL     1     -18.458  40.929  -8.892  0.00  0.00    +0.000 C 
BRANCH  17  18
ATOM     18  C   UNL     1     -19.391  41.412  -7.778  0.00  0.00    +0.000 C 
BRANCH  18  19
ATOM     19  C   UNL     1     -20.875  41.197  -8.089  0.00  0.00    +0.000 C 
BRANCH  19  20
ATOM     20  C   UNL     1     -21.810  41.809  -7.045  0.00  0.00    +0.000 C 
ATOM     21  C   UNL     1     -23.192  41.173  -7.098  0.00  0.00    +0.000 C 
ENDBRANCH  19  20
ENDBRANCH  18  19
ENDBRANCH  17  18
ENDBRANCH  16  17
ENDBRANCH  14  16
ENDBRANCH   2  14
TORSDOF 7
ENDMDL
