MODEL 1
REMARK VINA RESULT:    -7.800      0.000      0.000
REMARK INTER + INTRA:          -9.954
REMARK INTER:                  -9.624
REMARK INTRA:                  -0.330
REMARK UNBOUND:                -0.330
REMARK  Name = 55037128
REMARK  4 active torsions:
REMARK  status: ('A' for Active; 'I' for Inactive)
REMARK    1  A    between atoms: N_2  and  C_6
REMARK    2  A    between atoms: C_5  and  C_6
REMARK    3  A    between atoms: C_5  and  C_7
REMARK    4  A    between atoms: C_10  and  C_11
REMARK                            x       y       z     vdW  Elec       q    Type
REMARK                         _______ _______ _______ _____ _____    ______ ____
ROOT
ATOM      1  O   UNL     1     -19.257  39.153 -10.838  0.00  0.00    +0.000 OA
ATOM      2  N   UNL     1     -17.386  40.478 -10.483  0.00  0.00    +0.000 N 
ATOM      3  C   UNL     1     -18.677  40.038 -10.215  0.00  0.00    +0.000 C 
ATOM      4  H   UNL     1     -16.988  41.251  -9.961  0.00  0.00    +0.000 HD
ENDROOT
BRANCH   3   7
ATOM      5  N   UNL     1     -19.316  42.311  -7.280  0.00  0.00    +0.000 NA
ATOM      6  N   UNL     1     -21.281  42.697  -5.989  0.00  0.00    +0.000 N 
ATOM      7  C   UNL     1     -19.385  40.727  -9.105  0.00  0.00    +0.000 A 
ATOM      8  C   UNL     1     -20.725  40.466  -8.838  0.00  0.00    +0.000 A 
ATOM      9  C   UNL     1     -18.732  41.650  -8.305  0.00  0.00    +0.000 A 
ATOM     10  C   UNL     1     -21.360  41.127  -7.792  0.00  0.00    +0.000 A 
ATOM     11  C   UNL     1     -20.618  42.032  -7.050  0.00  0.00    +0.000 A 
ATOM     12  H   UNL     1     -22.280  42.843  -6.060  0.00  0.00    +0.000 HD
ATOM     13  H   UNL     1     -20.736  43.362  -5.454  0.00  0.00    +0.000 HD
ENDBRANCH   3   7
BRANCH   2  14
ATOM     14  C   UNL     1     -16.582  39.927 -11.541  0.00  0.00    +0.000 C 
BRANCH  14  15
ATOM     15  C   UNL     1     -17.144  40.253 -12.930  0.00  0.00    +0.000 C 
BRANCH  15  16
ATOM     16  C   UNL     1     -17.532  41.683 -13.095  0.00  0.00    +0.000 A 
ATOM     17  C   UNL     1     -18.856  42.018 -13.383  0.00  0.00    +0.000 A 
ATOM     18  C   UNL     1     -16.572  42.686 -12.963  0.00  0.00    +0.000 A 
ATOM     19  C   UNL     1     -19.218  43.356 -13.538  0.00  0.00    +0.000 A 
ATOM     20  C   UNL     1     -16.935  44.024 -13.118  0.00  0.00    +0.000 A 
ATOM     21  C   UNL     1     -18.259  44.359 -13.406  0.00  0.00    +0.000 A 
ENDBRANCH  15  16
ENDBRANCH  14  15
ENDBRANCH   2  14
TORSDOF 4
ENDMDL
MODEL 2
REMARK VINA RESULT:    -7.591      2.499      6.361
REMARK INTER + INTRA:          -9.695
REMARK INTER:                  -9.338
REMARK INTRA:                  -0.357
REMARK UNBOUND:                -0.330
REMARK  Name = 55037128
REMARK  4 active torsions:
REMARK  status: ('A' for Active; 'I' for Inactive)
REMARK    1  A    between atoms: N_2  and  C_6
REMARK    2  A    between atoms: C_5  and  C_6
REMARK    3  A    between atoms: C_5  and  C_7
REMARK    4  A    between atoms: C_10  and  C_11
REMARK                            x       y       z     vdW  Elec       q    Type
REMARK                         _______ _______ _______ _____ _____    ______ ____
ROOT
ATOM      1  O   UNL     1     -19.475  40.178 -12.782  0.00  0.00    +0.000 OA
ATOM      2  N   UNL     1     -19.049  41.309 -10.802  0.00  0.00    +0.000 N 
ATOM      3  C   UNL     1     -19.197  41.212 -12.181  0.00  0.00    +0.000 C 
ATOM      4  H   UNL     1     -18.766  42.184 -10.375  0.00  0.00    +0.000 HD
ENDROOT
BRANCH   3   7
ATOM      5  N   UNL     1     -19.394  43.765 -14.943  0.00  0.00    +0.000 NA
ATOM      6  N   UNL     1     -18.394  45.916 -15.170  0.00  0.00    +0.000 N 
ATOM      7  C   UNL     1     -18.970  42.462 -12.951  0.00  0.00    +0.000 A 
ATOM      8  C   UNL     1     -18.161  43.476 -12.450  0.00  0.00    +0.000 A 
ATOM      9  C   UNL     1     -19.558  42.654 -14.191  0.00  0.00    +0.000 A 
ATOM     10  C   UNL     1     -17.968  44.635 -13.195  0.00  0.00    +0.000 A 
ATOM     11  C   UNL     1     -18.601  44.729 -14.424  0.00  0.00    +0.000 A 
ATOM     12  H   UNL     1     -18.194  46.772 -14.669  0.00  0.00    +0.000 HD
ATOM     13  H   UNL     1     -18.863  45.983 -16.065  0.00  0.00    +0.000 HD
ENDBRANCH   3   7
BRANCH   2  14
ATOM     14  C   UNL     1     -19.212  40.182  -9.923  0.00  0.00    +0.000 C 
BRANCH  14  15
ATOM     15  C   UNL     1     -18.963  40.548  -8.455  0.00  0.00    +0.000 C 
BRANCH  15  16
ATOM     16  C   UNL     1     -20.169  41.085  -7.761  0.00  0.00    +0.000 A 
ATOM     17  C   UNL     1     -21.441  40.666  -8.150  0.00  0.00    +0.000 A 
ATOM     18  C   UNL     1     -20.025  42.005  -6.722  0.00  0.00    +0.000 A 
ATOM     19  C   UNL     1     -22.569  41.169  -7.501  0.00  0.00    +0.000 A 
ATOM     20  C   UNL     1     -21.153  42.507  -6.073  0.00  0.00    +0.000 A 
ATOM     21  C   UNL     1     -22.426  42.089  -6.463  0.00  0.00    +0.000 A 
ENDBRANCH  15  16
ENDBRANCH  14  15
ENDBRANCH   2  14
TORSDOF 4
ENDMDL
MODEL 3
REMARK VINA RESULT:    -6.747      2.907      6.315
REMARK INTER + INTRA:          -8.655
REMARK INTER:                  -8.286
REMARK INTRA:                  -0.369
REMARK UNBOUND:                -0.330
REMARK  Name = 55037128
REMARK  4 active torsions:
REMARK  status: ('A' for Active; 'I' for Inactive)
REMARK    1  A    between atoms: N_2  and  C_6
REMARK    2  A    between atoms: C_5  and  C_6
REMARK    3  A    between atoms: C_5  and  C_7
REMARK    4  A    between atoms: C_10  and  C_11
REMARK                            x       y       z     vdW  Elec       q    Type
REMARK                         _______ _______ _______ _____ _____    ______ ____
ROOT
ATOM      1  O   UNL     1     -16.409  41.675 -11.882  0.00  0.00    +0.000 OA
ATOM      2  N   UNL     1     -18.117  42.278 -10.433  0.00  0.00    +0.000 N 
ATOM      3  C   UNL     1     -17.093  42.537 -11.337  0.00  0.00    +0.000 C 
ATOM      4  H   UNL     1     -18.607  43.041  -9.979  0.00  0.00    +0.000 HD
ENDROOT
BRANCH   3   7
ATOM      5  N   UNL     1     -15.274  45.661 -12.395  0.00  0.00    +0.000 NA
ATOM      6  N   UNL     1     -15.961  47.942 -12.436  0.00  0.00    +0.000 N 
ATOM      7  C   UNL     1     -16.817  43.969 -11.619  0.00  0.00    +0.000 A 
ATOM      8  C   UNL     1     -17.783  44.943 -11.391  0.00  0.00    +0.000 A 
ATOM      9  C   UNL     1     -15.590  44.376 -12.118  0.00  0.00    +0.000 A 
ATOM     10  C   UNL     1     -17.495  46.276 -11.665  0.00  0.00    +0.000 A 
ATOM     11  C   UNL     1     -16.238  46.580 -12.161  0.00  0.00    +0.000 A 
ATOM     12  H   UNL     1     -16.731  48.551 -12.681  0.00  0.00    +0.000 HD
ATOM     13  H   UNL     1     -15.043  48.158 -12.804  0.00  0.00    +0.000 HD
ENDBRANCH   3   7
BRANCH   2  14
ATOM     14  C   UNL     1     -18.486  40.945 -10.040  0.00  0.00    +0.000 C 
BRANCH  14  15
ATOM     15  C   UNL     1     -18.533  40.778  -8.516  0.00  0.00    +0.000 C 
BRANCH  15  16
ATOM     16  C   UNL     1     -19.861  41.104  -7.921  0.00  0.00    +0.000 A 
ATOM     17  C   UNL     1     -21.018  40.517  -8.434  0.00  0.00    +0.000 A 
ATOM     18  C   UNL     1     -19.946  41.994  -6.850  0.00  0.00    +0.000 A 
ATOM     19  C   UNL     1     -22.260  40.822  -7.877  0.00  0.00    +0.000 A 
ATOM     20  C   UNL     1     -21.188  42.299  -6.293  0.00  0.00    +0.000 A 
ATOM     21  C   UNL     1     -22.346  41.713  -6.807  0.00  0.00    +0.000 A 
ENDBRANCH  15  16
ENDBRANCH  14  15
ENDBRANCH   2  14
TORSDOF 4
ENDMDL
MODEL 4
REMARK VINA RESULT:    -6.532      3.010      6.037
REMARK INTER + INTRA:          -8.389
REMARK INTER:                  -7.965
REMARK INTRA:                  -0.425
REMARK UNBOUND:                -0.330
REMARK  Name = 55037128
REMARK  4 active torsions:
REMARK  status: ('A' for Active; 'I' for Inactive)
REMARK    1  A    between atoms: N_2  and  C_6
REMARK    2  A    between atoms: C_5  and  C_6
REMARK    3  A    between atoms: C_5  and  C_7
REMARK    4  A    between atoms: C_10  and  C_11
REMARK                            x       y       z     vdW  Elec       q    Type
REMARK                         _______ _______ _______ _____ _____    ______ ____
ROOT
ATOM      1  O   UNL     1     -19.902  42.138 -13.875  0.00  0.00    +0.000 OA
ATOM      2  N   UNL     1     -18.286  41.907 -12.227  0.00  0.00    +0.000 N 
ATOM      3  C   UNL     1     -19.022  42.620 -13.167  0.00  0.00    +0.000 C 
ATOM      4  H   UNL     1     -17.536  42.357 -11.713  0.00  0.00    +0.000 HD
ENDROOT
BRANCH   3   7
ATOM      5  N   UNL     1     -18.464  45.991 -14.750  0.00  0.00    +0.000 NA
ATOM      6  N   UNL     1     -17.726  48.060 -13.825  0.00  0.00    +0.000 N 
ATOM      7  C   UNL     1     -18.674  44.056 -13.316  0.00  0.00    +0.000 A 
ATOM      8  C   UNL     1     -18.249  44.808 -12.226  0.00  0.00    +0.000 A 
ATOM      9  C   UNL     1     -18.764  44.690 -14.545  0.00  0.00    +0.000 A 
ATOM     10  C   UNL     1     -17.931  46.151 -12.397  0.00  0.00    +0.000 A 
ATOM     11  C   UNL     1     -18.054  46.690 -13.667  0.00  0.00    +0.000 A 
ATOM     12  H   UNL     1     -17.839  48.677 -13.030  0.00  0.00    +0.000 HD
ATOM     13  H   UNL     1     -17.824  48.451 -14.753  0.00  0.00    +0.000 HD
ENDBRANCH   3   7
BRANCH   2  14
ATOM     14  C   UNL     1     -18.488  40.504 -11.984  0.00  0.00    +0.000 C 
BRANCH  14  15
ATOM     15  C   UNL     1     -18.066  40.090 -10.569  0.00  0.00    +0.000 C 
BRANCH  15  16
ATOM     16  C   UNL     1     -18.977  40.596  -9.503  0.00  0.00    +0.000 A 
ATOM     17  C   UNL     1     -20.266  40.075  -9.382  0.00  0.00    +0.000 A 
ATOM     18  C   UNL     1     -18.542  41.590  -8.627  0.00  0.00    +0.000 A 
ATOM     19  C   UNL     1     -21.118  40.549  -8.384  0.00  0.00    +0.000 A 
ATOM     20  C   UNL     1     -19.394  42.064  -7.629  0.00  0.00    +0.000 A 
ATOM     21  C   UNL     1     -20.683  41.543  -7.508  0.00  0.00    +0.000 A 
ENDBRANCH  15  16
ENDBRANCH  14  15
ENDBRANCH   2  14
TORSDOF 4
ENDMDL
MODEL 5
REMARK VINA RESULT:    -6.501      2.020      2.935
REMARK INTER + INTRA:          -8.351
REMARK INTER:                  -8.070
REMARK INTRA:                  -0.281
REMARK UNBOUND:                -0.330
REMARK  Name = 55037128
REMARK  4 active torsions:
REMARK  status: ('A' for Active; 'I' for Inactive)
REMARK    1  A    between atoms: N_2  and  C_6
REMARK    2  A    between atoms: C_5  and  C_6
REMARK    3  A    between atoms: C_5  and  C_7
REMARK    4  A    between atoms: C_10  and  C_11
REMARK                            x       y       z     vdW  Elec       q    Type
REMARK                         _______ _______ _______ _____ _____    ______ ____
ROOT
ATOM      1  O   UNL     1     -17.325  40.028 -10.299  0.00  0.00    +0.000 OA
ATOM      2  N   UNL     1     -17.223  42.343 -10.416  0.00  0.00    +0.000 N 
ATOM      3  C   UNL     1     -17.762  41.134  -9.991  0.00  0.00    +0.000 C 
ATOM      4  H   UNL     1     -17.667  43.220 -10.166  0.00  0.00    +0.000 HD
ENDROOT
BRANCH   3   7
ATOM      5  N   UNL     1     -21.229  40.513  -8.656  0.00  0.00    +0.000 NA
ATOM      6  N   UNL     1     -22.370  41.411  -6.766  0.00  0.00    +0.000 N 
ATOM      7  C   UNL     1     -18.966  41.224  -9.126  0.00  0.00    +0.000 A 
ATOM      8  C   UNL     1     -18.989  42.058  -8.013  0.00  0.00    +0.000 A 
ATOM      9  C   UNL     1     -20.102  40.478  -9.401  0.00  0.00    +0.000 A 
ATOM     10  C   UNL     1     -20.131  42.120  -7.222  0.00  0.00    +0.000 A 
ATOM     11  C   UNL     1     -21.214  41.336  -7.583  0.00  0.00    +0.000 A 
ATOM     12  H   UNL     1     -22.255  41.646  -5.789  0.00  0.00    +0.000 HD
ATOM     13  H   UNL     1     -23.157  40.831  -7.030  0.00  0.00    +0.000 HD
ENDBRANCH   3   7
BRANCH   2  14
ATOM     14  C   UNL     1     -16.073  42.420 -11.276  0.00  0.00    +0.000 C 
BRANCH  14  15
ATOM     15  C   UNL     1     -16.317  43.319 -12.495  0.00  0.00    +0.000 C 
BRANCH  15  16
ATOM     16  C   UNL     1     -16.541  44.751 -12.144  0.00  0.00    +0.000 A 
ATOM     17  C   UNL     1     -15.453  45.612 -12.000  0.00  0.00    +0.000 A 
ATOM     18  C   UNL     1     -17.838  45.229 -11.960  0.00  0.00    +0.000 A 
ATOM     19  C   UNL     1     -15.663  46.952 -11.672  0.00  0.00    +0.000 A 
ATOM     20  C   UNL     1     -18.049  46.569 -11.632  0.00  0.00    +0.000 A 
ATOM     21  C   UNL     1     -16.960  47.430 -11.488  0.00  0.00    +0.000 A 
ENDBRANCH  15  16
ENDBRANCH  14  15
ENDBRANCH   2  14
TORSDOF 4
ENDMDL
