MODEL 1
REMARK VINA RESULT:    -6.214      0.000      0.000
REMARK INTER + INTRA:          -7.271
REMARK INTER:                  -6.941
REMARK INTRA:                  -0.331
REMARK UNBOUND:                -0.331
REMARK  Name = 55037218
REMARK  2 active torsions:
REMARK  status: ('A' for Active; 'I' for Inactive)
REMARK    1  A    between atoms: N_2  and  C_5
REMARK    2  A    between atoms: C_12  and  C_13
REMARK                            x       y       z     vdW  Elec       q    Type
REMARK                         _______ _______ _______ _____ _____    ______ ____
ROOT
ATOM      1  O   UNL     1     -18.853  44.847 -14.372  0.00  0.00    +0.000 OA
ATOM      2  N   UNL     1     -19.145  42.549 -14.269  0.00  0.00    +0.000 N 
ATOM      3  C   UNL     1     -19.223  43.790 -14.878  0.00  0.00    +0.000 C 
ATOM      4  H   UNL     1     -19.568  41.736 -14.705  0.00  0.00    +0.000 HD
ENDROOT
BRANCH   3   7
ATOM      5  N   UNL     1     -19.750  44.595 -18.519  0.00  0.00    +0.000 NA
ATOM      6  N   UNL     1     -21.441  43.911 -20.051  0.00  0.00    +0.000 N 
ATOM      7  C   UNL     1     -19.826  43.806 -16.235  0.00  0.00    +0.000 A 
ATOM      8  C   UNL     1     -20.985  43.089 -16.513  0.00  0.00    +0.000 A 
ATOM      9  C   UNL     1     -19.253  44.537 -17.263  0.00  0.00    +0.000 A 
ATOM     10  C   UNL     1     -21.526  43.125 -17.794  0.00  0.00    +0.000 A 
ATOM     11  C   UNL     1     -20.877  43.885 -18.752  0.00  0.00    +0.000 A 
ATOM     12  H   UNL     1     -20.959  44.463 -20.750  0.00  0.00    +0.000 HD
ATOM     13  H   UNL     1     -21.977  43.109 -20.360  0.00  0.00    +0.000 HD
ENDBRANCH   3   7
BRANCH   2  14
ATOM     14  C   UNL     1     -18.603  42.372 -12.936  0.00  0.00    +0.000 C 
ATOM     15  C   UNL     1     -19.578  41.539 -12.097  0.00  0.00    +0.000 C 
ATOM     16  C   UNL     1     -17.161  41.865 -13.015  0.00  0.00    +0.000 C 
ATOM     17  C   UNL     1     -18.992  40.954 -10.815  0.00  0.00    +0.000 C 
ATOM     18  C   UNL     1     -17.012  40.348 -13.133  0.00  0.00    +0.000 C 
ATOM     19  C   UNL     1     -18.319  39.600 -11.039  0.00  0.00    +0.000 C 
ATOM     20  C   UNL     1     -16.984  39.651 -11.774  0.00  0.00    +0.000 C 
ENDBRANCH   2  14
TORSDOF 2
ENDMDL
MODEL 2
REMARK VINA RESULT:    -5.789      2.242      6.929
REMARK INTER + INTRA:          -6.796
REMARK INTER:                  -6.468
REMARK INTRA:                  -0.329
REMARK UNBOUND:                -0.331
REMARK  Name = 55037218
REMARK  2 active torsions:
REMARK  status: ('A' for Active; 'I' for Inactive)
REMARK    1  A    between atoms: N_2  and  C_5
REMARK    2  A    between atoms: C_12  and  C_13
REMARK                            x       y       z     vdW  Elec       q    Type
REMARK                         _______ _______ _______ _____ _____    ______ ____
ROOT
ATOM      1  O   UNL     1     -20.402  42.332 -14.049  0.00  0.00    +0.000 OA
ATOM      2  N   UNL     1     -18.874  43.530 -15.316  0.00  0.00    +0.000 N 
ATOM      3  C   UNL     1     -19.249  42.679 -14.290  0.00  0.00    +0.000 C 
ATOM      4  H   UNL     1     -17.916  43.856 -15.388  0.00  0.00    +0.000 HD
ENDROOT
BRANCH   3   7
ATOM      5  N   UNL     1     -17.031  40.328 -12.356  0.00  0.00    +0.000 NA
ATOM      6  N   UNL     1     -15.102  40.731 -11.017  0.00  0.00    +0.000 N 
ATOM      7  C   UNL     1     -18.146  42.189 -13.424  0.00  0.00    +0.000 A 
ATOM      8  C   UNL     1     -17.218  43.069 -12.877  0.00  0.00    +0.000 A 
ATOM      9  C   UNL     1     -18.010  40.840 -13.136  0.00  0.00    +0.000 A 
ATOM     10  C   UNL     1     -16.197  42.579 -12.069  0.00  0.00    +0.000 A 
ATOM     11  C   UNL     1     -16.148  41.213 -11.842  0.00  0.00    +0.000 A 
ATOM     12  H   UNL     1     -15.066  39.731 -10.859  0.00  0.00    +0.000 HD
ATOM     13  H   UNL     1     -14.235  41.253 -10.983  0.00  0.00    +0.000 HD
ENDBRANCH   3   7
BRANCH   2  14
ATOM     14  C   UNL     1     -19.837  44.111 -16.231  0.00  0.00    +0.000 C 
ATOM     15  C   UNL     1     -19.502  45.590 -16.452  0.00  0.00    +0.000 C 
ATOM     16  C   UNL     1     -19.963  43.243 -17.486  0.00  0.00    +0.000 C 
ATOM     17  C   UNL     1     -20.178  46.234 -17.659  0.00  0.00    +0.000 C 
ATOM     18  C   UNL     1     -18.940  43.537 -18.584  0.00  0.00    +0.000 C 
ATOM     19  C   UNL     1     -19.378  46.052 -18.948  0.00  0.00    +0.000 C 
ATOM     20  C   UNL     1     -19.396  44.644 -19.533  0.00  0.00    +0.000 C 
ENDBRANCH   2  14
TORSDOF 2
ENDMDL
MODEL 3
REMARK VINA RESULT:    -5.532      4.688      7.371
REMARK INTER + INTRA:          -6.510
REMARK INTER:                  -6.206
REMARK INTRA:                  -0.304
REMARK UNBOUND:                -0.331
REMARK  Name = 55037218
REMARK  2 active torsions:
REMARK  status: ('A' for Active; 'I' for Inactive)
REMARK    1  A    between atoms: N_2  and  C_5
REMARK    2  A    between atoms: C_12  and  C_13
REMARK                            x       y       z     vdW  Elec       q    Type
REMARK                         _______ _______ _______ _____ _____    ______ ____
ROOT
ATOM      1  O   UNL     1     -15.633  42.545 -11.427  0.00  0.00    +0.000 OA
ATOM      2  N   UNL     1     -17.187  44.246 -11.687  0.00  0.00    +0.000 N 
ATOM      3  C   UNL     1     -16.771  42.987 -11.289  0.00  0.00    +0.000 C 
ATOM      4  H   UNL     1     -18.168  44.502 -11.637  0.00  0.00    +0.000 HD
ENDROOT
BRANCH   3   7
ATOM      5  N   UNL     1     -19.480  40.394 -10.937  0.00  0.00    +0.000 NA
ATOM      6  N   UNL     1     -20.745  39.690  -9.045  0.00  0.00    +0.000 N 
ATOM      7  C   UNL     1     -17.815  42.127 -10.674  0.00  0.00    +0.000 A 
ATOM      8  C   UNL     1     -18.118  42.224  -9.321  0.00  0.00    +0.000 A 
ATOM      9  C   UNL     1     -18.519  41.206 -11.432  0.00  0.00    +0.000 A 
ATOM     10  C   UNL     1     -19.101  41.406  -8.774  0.00  0.00    +0.000 A 
ATOM     11  C   UNL     1     -19.747  40.516  -9.617  0.00  0.00    +0.000 A 
ATOM     12  H   UNL     1     -21.210  39.036  -9.663  0.00  0.00    +0.000 HD
ATOM     13  H   UNL     1     -20.669  39.450  -8.064  0.00  0.00    +0.000 HD
ENDBRANCH   3   7
BRANCH   2  14
ATOM     14  C   UNL     1     -16.293  45.192 -12.324  0.00  0.00    +0.000 C 
ATOM     15  C   UNL     1     -16.444  45.092 -13.845  0.00  0.00    +0.000 C 
ATOM     16  C   UNL     1     -16.470  46.584 -11.709  0.00  0.00    +0.000 C 
ATOM     17  C   UNL     1     -15.863  46.262 -14.633  0.00  0.00    +0.000 C 
ATOM     18  C   UNL     1     -17.588  47.427 -12.324  0.00  0.00    +0.000 C 
ATOM     19  C   UNL     1     -16.856  47.412 -14.797  0.00  0.00    +0.000 C 
ATOM     20  C   UNL     1     -17.120  48.229 -13.537  0.00  0.00    +0.000 C 
ENDBRANCH   2  14
TORSDOF 2
ENDMDL
MODEL 4
REMARK VINA RESULT:    -5.486      1.847      6.863
REMARK INTER + INTRA:          -6.458
REMARK INTER:                  -6.152
REMARK INTRA:                  -0.306
REMARK UNBOUND:                -0.331
REMARK  Name = 55037218
REMARK  2 active torsions:
REMARK  status: ('A' for Active; 'I' for Inactive)
REMARK    1  A    between atoms: N_2  and  C_5
REMARK    2  A    between atoms: C_12  and  C_13
REMARK                            x       y       z     vdW  Elec       q    Type
REMARK                         _______ _______ _______ _____ _____    ______ ____
ROOT
ATOM      1  O   UNL     1     -18.541  45.200 -13.904  0.00  0.00    +0.000 OA
ATOM      2  N   UNL     1     -19.369  43.961 -15.680  0.00  0.00    +0.000 N 
ATOM      3  C   UNL     1     -18.822  44.120 -14.418  0.00  0.00    +0.000 C 
ATOM      4  H   UNL     1     -19.475  43.034 -16.079  0.00  0.00    +0.000 HD
ENDROOT
BRANCH   3   7
ATOM      5  N   UNL     1     -19.374  40.788 -12.753  0.00  0.00    +0.000 NA
ATOM      6  N   UNL     1     -17.877  39.343 -11.592  0.00  0.00    +0.000 N 
ATOM      7  C   UNL     1     -18.548  42.866 -13.671  0.00  0.00    +0.000 A 
ATOM      8  C   UNL     1     -17.274  42.580 -13.193  0.00  0.00    +0.000 A 
ATOM      9  C   UNL     1     -19.555  41.946 -13.426  0.00  0.00    +0.000 A 
ATOM     10  C   UNL     1     -17.049  41.398 -12.496  0.00  0.00    +0.000 A 
ATOM     11  C   UNL     1     -18.123  40.543 -12.304  0.00  0.00    +0.000 A 
ATOM     12  H   UNL     1     -18.663  38.719 -11.461  0.00  0.00    +0.000 HD
ATOM     13  H   UNL     1     -16.947  38.943 -11.628  0.00  0.00    +0.000 HD
ENDBRANCH   3   7
BRANCH   2  14
ATOM     14  C   UNL     1     -19.672  45.086 -16.542  0.00  0.00    +0.000 C 
ATOM     15  C   UNL     1     -18.508  45.310 -17.514  0.00  0.00    +0.000 C 
ATOM     16  C   UNL     1     -21.061  44.917 -17.164  0.00  0.00    +0.000 C 
ATOM     17  C   UNL     1     -18.829  46.197 -18.714  0.00  0.00    +0.000 C 
ATOM     18  C   UNL     1     -21.100  44.091 -18.450  0.00  0.00    +0.000 C 
ATOM     19  C   UNL     1     -19.413  45.412 -19.887  0.00  0.00    +0.000 C 
ATOM     20  C   UNL     1     -20.849  44.934 -19.699  0.00  0.00    +0.000 C 
ENDBRANCH   2  14
TORSDOF 2
ENDMDL
MODEL 5
REMARK VINA RESULT:    -5.457      2.045      2.916
REMARK INTER + INTRA:          -6.426
REMARK INTER:                  -6.144
REMARK INTRA:                  -0.282
REMARK UNBOUND:                -0.331
REMARK  Name = 55037218
REMARK  2 active torsions:
REMARK  status: ('A' for Active; 'I' for Inactive)
REMARK    1  A    between atoms: N_2  and  C_5
REMARK    2  A    between atoms: C_12  and  C_13
REMARK                            x       y       z     vdW  Elec       q    Type
REMARK                         _______ _______ _______ _____ _____    ______ ____
ROOT
ATOM      1  O   UNL     1     -20.060  42.336 -14.260  0.00  0.00    +0.000 OA
ATOM      2  N   UNL     1     -18.518  44.059 -14.426  0.00  0.00    +0.000 N 
ATOM      3  C   UNL     1     -19.535  43.247 -14.896  0.00  0.00    +0.000 C 
ATOM      4  H   UNL     1     -18.061  44.720 -15.046  0.00  0.00    +0.000 HD
ENDROOT
BRANCH   3   7
ATOM      5  N   UNL     1     -19.541  44.521 -18.440  0.00  0.00    +0.000 NA
ATOM      6  N   UNL     1     -21.149  44.309 -20.185  0.00  0.00    +0.000 N 
ATOM      7  C   UNL     1     -19.983  43.514 -16.287  0.00  0.00    +0.000 A 
ATOM      8  C   UNL     1     -21.206  43.042 -16.751  0.00  0.00    +0.000 A 
ATOM      9  C   UNL     1     -19.194  44.242 -17.164  0.00  0.00    +0.000 A 
ATOM     10  C   UNL     1     -21.597  43.309 -18.058  0.00  0.00    +0.000 A 
ATOM     11  C   UNL     1     -20.736  44.045 -18.856  0.00  0.00    +0.000 A 
ATOM     12  H   UNL     1     -20.514  44.842 -20.766  0.00  0.00    +0.000 HD
ATOM     13  H   UNL     1     -21.772  43.649 -20.636  0.00  0.00    +0.000 HD
ENDBRANCH   3   7
BRANCH   2  14
ATOM     14  C   UNL     1     -17.957  43.908 -13.098  0.00  0.00    +0.000 C 
ATOM     15  C   UNL     1     -16.897  42.801 -13.115  0.00  0.00    +0.000 C 
ATOM     16  C   UNL     1     -17.516  45.270 -12.553  0.00  0.00    +0.000 C 
ATOM     17  C   UNL     1     -15.962  42.781 -11.909  0.00  0.00    +0.000 C 
ATOM     18  C   UNL     1     -16.106  45.704 -12.955  0.00  0.00    +0.000 C 
ATOM     19  C   UNL     1     -14.748  43.690 -12.090  0.00  0.00    +0.000 C 
ATOM     20  C   UNL     1     -15.034  45.185 -11.999  0.00  0.00    +0.000 C 
ENDBRANCH   2  14
TORSDOF 2
ENDMDL
