MODEL 1
REMARK VINA RESULT:    -6.795      0.000      0.000
REMARK INTER + INTRA:          -7.648
REMARK INTER:                  -7.590
REMARK INTRA:                  -0.058
REMARK UNBOUND:                -0.058
REMARK  Name = 55043386
REMARK  3 active torsions:
REMARK  status: ('A' for Active; 'I' for Inactive)
REMARK    1  A    between atoms: N_2  and  C_10
REMARK    2  A    between atoms: C_10  and  C_12
REMARK    3  A    between atoms: C_11  and  C_13
REMARK                            x       y       z     vdW  Elec       q    Type
REMARK                         _______ _______ _______ _____ _____    ______ ____
ROOT
ATOM      1  O   UNL     1     -19.633  40.339 -11.931  0.00  0.00    +0.000 OA
ATOM      2  N   UNL     1     -20.364  41.289  -7.081  0.00  0.00    +0.000 NA
ATOM      3  N   UNL     1     -19.251  40.869  -9.686  0.00  0.00    +0.000 N 
ATOM      4  C   UNL     1     -19.364  42.220  -7.619  0.00  0.00    +0.000 C 
ATOM      5  C   UNL     1     -21.191  40.738  -8.165  0.00  0.00    +0.000 C 
ATOM      6  C   UNL     1     -18.459  41.529  -8.642  0.00  0.00    +0.000 C 
ATOM      7  C   UNL     1     -20.321  40.008  -9.187  0.00  0.00    +0.000 C 
ATOM      8  C   UNL     1     -19.011  40.946 -11.060  0.00  0.00    +0.000 C 
ENDROOT
BRANCH   8  11
ATOM      9  N   UNL     1     -15.547  42.198 -11.772  0.00  0.00    +0.000 NA
ATOM     10  N   UNL     1     -14.785  44.204 -12.809  0.00  0.00    +0.000 N 
ATOM     11  C   UNL     1     -17.922  41.815 -11.525  0.00  0.00    +0.000 A 
ATOM     12  C   UNL     1     -18.189  43.034 -12.139  0.00  0.00    +0.000 A 
ATOM     13  C   UNL     1     -16.595  41.446 -11.367  0.00  0.00    +0.000 A 
ATOM     14  C   UNL     1     -17.138  43.835 -12.569  0.00  0.00    +0.000 A 
ATOM     15  C   UNL     1     -15.847  43.375 -12.364  0.00  0.00    +0.000 A 
ATOM     16  H   UNL     1     -13.843  43.861 -12.662  0.00  0.00    +0.000 HD
ATOM     17  H   UNL     1     -14.954  44.824 -13.591  0.00  0.00    +0.000 HD
ENDBRANCH   8  11
BRANCH   2  18
ATOM     18  C   UNL     1     -21.203  41.954  -6.084  0.00  0.00    +0.000 C 
ATOM     19  C   UNL     1     -22.389  42.645  -6.735  0.00  0.00    +0.000 C 
ENDBRANCH   2  18
TORSDOF 2
ENDMDL
MODEL 2
REMARK VINA RESULT:    -5.989      1.795      2.648
REMARK INTER + INTRA:          -6.748
REMARK INTER:                  -6.616
REMARK INTRA:                  -0.131
REMARK UNBOUND:                -0.058
REMARK  Name = 55043386
REMARK  3 active torsions:
REMARK  status: ('A' for Active; 'I' for Inactive)
REMARK    1  A    between atoms: N_2  and  C_10
REMARK    2  A    between atoms: C_10  and  C_12
REMARK    3  A    between atoms: C_11  and  C_13
REMARK                            x       y       z     vdW  Elec       q    Type
REMARK                         _______ _______ _______ _____ _____    ______ ____
ROOT
ATOM      1  O   UNL     1     -18.903  41.717 -13.856  0.00  0.00    +0.000 OA
ATOM      2  N   UNL     1     -18.709  40.704  -8.968  0.00  0.00    +0.000 NA
ATOM      3  N   UNL     1     -18.209  41.651 -11.624  0.00  0.00    +0.000 N 
ATOM      4  C   UNL     1     -18.320  42.102  -9.196  0.00  0.00    +0.000 C 
ATOM      5  C   UNL     1     -19.497  40.197 -10.100  0.00  0.00    +0.000 C 
ATOM      6  C   UNL     1     -17.504  42.246 -10.483  0.00  0.00    +0.000 C 
ATOM      7  C   UNL     1     -18.697  40.292 -11.399  0.00  0.00    +0.000 C 
ATOM      8  C   UNL     1     -18.370  42.243 -12.879  0.00  0.00    +0.000 C 
ENDROOT
BRANCH   8  11
ATOM      9  N   UNL     1     -15.985  45.067 -13.517  0.00  0.00    +0.000 NA
ATOM     10  N   UNL     1     -16.334  47.421 -13.633  0.00  0.00    +0.000 N 
ATOM     11  C   UNL     1     -17.860  43.606 -13.073  0.00  0.00    +0.000 A 
ATOM     12  C   UNL     1     -18.709  44.706 -13.004  0.00  0.00    +0.000 A 
ATOM     13  C   UNL     1     -16.518  43.838 -13.330  0.00  0.00    +0.000 A 
ATOM     14  C   UNL     1     -18.197  45.985 -13.192  0.00  0.00    +0.000 A 
ATOM     15  C   UNL     1     -16.840  46.110 -13.443  0.00  0.00    +0.000 A 
ATOM     16  H   UNL     1     -15.342  47.506 -13.822  0.00  0.00    +0.000 HD
ATOM     17  H   UNL     1     -16.956  48.129 -14.002  0.00  0.00    +0.000 HD
ENDBRANCH   8  11
BRANCH   2  18
ATOM     18  C   UNL     1     -19.461  40.577  -7.720  0.00  0.00    +0.000 C 
ATOM     19  C   UNL     1     -20.778  41.331  -7.793  0.00  0.00    +0.000 C 
ENDBRANCH   2  18
TORSDOF 2
ENDMDL
MODEL 3
REMARK VINA RESULT:    -5.984      2.074      5.999
REMARK INTER + INTRA:          -6.742
REMARK INTER:                  -6.624
REMARK INTRA:                  -0.118
REMARK UNBOUND:                -0.058
REMARK  Name = 55043386
REMARK  3 active torsions:
REMARK  status: ('A' for Active; 'I' for Inactive)
REMARK    1  A    between atoms: N_2  and  C_10
REMARK    2  A    between atoms: C_10  and  C_12
REMARK    3  A    between atoms: C_11  and  C_13
REMARK                            x       y       z     vdW  Elec       q    Type
REMARK                         _______ _______ _______ _____ _____    ______ ____
ROOT
ATOM      1  O   UNL     1     -15.507  41.134 -11.230  0.00  0.00    +0.000 OA
ATOM      2  N   UNL     1     -16.719  45.717 -12.808  0.00  0.00    +0.000 NA
ATOM      3  N   UNL     1     -16.721  42.953 -12.057  0.00  0.00    +0.000 N 
ATOM      4  C   UNL     1     -17.816  45.168 -12.000  0.00  0.00    +0.000 C 
ATOM      5  C   UNL     1     -15.457  45.027 -12.499  0.00  0.00    +0.000 C 
ATOM      6  C   UNL     1     -17.988  43.668 -12.248  0.00  0.00    +0.000 C 
ATOM      7  C   UNL     1     -15.583  43.528 -12.770  0.00  0.00    +0.000 C 
ATOM      8  C   UNL     1     -16.556  41.769 -11.334  0.00  0.00    +0.000 C 
ENDROOT
BRANCH   8  11
ATOM      9  N   UNL     1     -19.459  39.534 -10.529  0.00  0.00    +0.000 NA
ATOM     10  N   UNL     1     -21.025  39.580  -8.734  0.00  0.00    +0.000 N 
ATOM     11  C   UNL     1     -17.723  41.214 -10.636  0.00  0.00    +0.000 A 
ATOM     12  C   UNL     1     -18.204  41.796  -9.468  0.00  0.00    +0.000 A 
ATOM     13  C   UNL     1     -18.380  40.095 -11.121  0.00  0.00    +0.000 A 
ATOM     14  C   UNL     1     -19.311  41.247  -8.830  0.00  0.00    +0.000 A 
ATOM     15  C   UNL     1     -19.897  40.127  -9.396  0.00  0.00    +0.000 A 
ATOM     16  H   UNL     1     -21.446  38.757  -9.148  0.00  0.00    +0.000 HD
ATOM     17  H   UNL     1     -21.103  39.707  -7.733  0.00  0.00    +0.000 HD
ENDBRANCH   8  11
BRANCH   2  18
ATOM     18  C   UNL     1     -16.585  47.156 -12.585  0.00  0.00    +0.000 C 
ATOM     19  C   UNL     1     -17.627  47.659 -11.601  0.00  0.00    +0.000 C 
ENDBRANCH   2  18
TORSDOF 2
ENDMDL
MODEL 4
REMARK VINA RESULT:    -5.543      4.666      7.392
REMARK INTER + INTRA:          -6.250
REMARK INTER:                  -6.297
REMARK INTRA:                   0.047
REMARK UNBOUND:                -0.058
REMARK  Name = 55043386
REMARK  3 active torsions:
REMARK  status: ('A' for Active; 'I' for Inactive)
REMARK    1  A    between atoms: N_2  and  C_10
REMARK    2  A    between atoms: C_10  and  C_12
REMARK    3  A    between atoms: C_11  and  C_13
REMARK                            x       y       z     vdW  Elec       q    Type
REMARK                         _______ _______ _______ _____ _____    ______ ____
ROOT
ATOM      1  O   UNL     1     -18.061  45.235 -13.572  0.00  0.00    +0.000 OA
ATOM      2  N   UNL     1     -21.041  44.893 -17.567  0.00  0.00    +0.000 NA
ATOM      3  N   UNL     1     -19.153  44.412 -15.468  0.00  0.00    +0.000 N 
ATOM      4  C   UNL     1     -21.060  43.623 -16.828  0.00  0.00    +0.000 C 
ATOM      5  C   UNL     1     -20.603  45.990 -16.692  0.00  0.00    +0.000 C 
ATOM      6  C   UNL     1     -19.678  43.293 -16.260  0.00  0.00    +0.000 C 
ATOM      7  C   UNL     1     -19.208  45.710 -16.135  0.00  0.00    +0.000 C 
ATOM      8  C   UNL     1     -18.562  44.308 -14.207  0.00  0.00    +0.000 C 
ENDROOT
BRANCH   8  11
ATOM      9  N   UNL     1     -19.709  41.088 -12.661  0.00  0.00    +0.000 NA
ATOM     10  N   UNL     1     -18.483  39.250 -11.769  0.00  0.00    +0.000 N 
ATOM     11  C   UNL     1     -18.516  42.985 -13.569  0.00  0.00    +0.000 A 
ATOM     12  C   UNL     1     -17.303  42.375 -13.268  0.00  0.00    +0.000 A 
ATOM     13  C   UNL     1     -19.680  42.306 -13.248  0.00  0.00    +0.000 A 
ATOM     14  C   UNL     1     -17.292  41.123 -12.665  0.00  0.00    +0.000 A 
ATOM     15  C   UNL     1     -18.511  40.527 -12.384  0.00  0.00    +0.000 A 
ATOM     16  H   UNL     1     -19.376  38.816 -11.571  0.00  0.00    +0.000 HD
ATOM     17  H   UNL     1     -17.685  38.651 -11.941  0.00  0.00    +0.000 HD
ENDBRANCH   8  11
BRANCH   2  18
ATOM     18  C   UNL     1     -22.360  45.180 -18.130  0.00  0.00    +0.000 C 
ATOM     19  C   UNL     1     -23.444  45.077 -17.071  0.00  0.00    +0.000 C 
ENDBRANCH   2  18
TORSDOF 2
ENDMDL
MODEL 5
REMARK VINA RESULT:    -5.537      3.213      5.966
REMARK INTER + INTRA:          -6.242
REMARK INTER:                  -6.069
REMARK INTRA:                  -0.173
REMARK UNBOUND:                -0.058
REMARK  Name = 55043386
REMARK  3 active torsions:
REMARK  status: ('A' for Active; 'I' for Inactive)
REMARK    1  A    between atoms: N_2  and  C_10
REMARK    2  A    between atoms: C_10  and  C_12
REMARK    3  A    between atoms: C_11  and  C_13
REMARK                            x       y       z     vdW  Elec       q    Type
REMARK                         _______ _______ _______ _____ _____    ______ ____
ROOT
ATOM      1  O   UNL     1     -14.881  42.659 -11.307  0.00  0.00    +0.000 OA
ATOM      2  N   UNL     1     -17.290  46.790 -12.749  0.00  0.00    +0.000 NA
ATOM      3  N   UNL     1     -16.371  44.103 -12.383  0.00  0.00    +0.000 N 
ATOM      4  C   UNL     1     -18.253  45.693 -12.579  0.00  0.00    +0.000 C 
ATOM      5  C   UNL     1     -16.062  46.520 -11.988  0.00  0.00    +0.000 C 
ATOM      6  C   UNL     1     -17.658  44.361 -13.039  0.00  0.00    +0.000 C 
ATOM      7  C   UNL     1     -15.421  45.211 -12.448  0.00  0.00    +0.000 C 
ATOM      8  C   UNL     1     -15.984  42.896 -11.796  0.00  0.00    +0.000 C 
ENDROOT
BRANCH   8  11
ATOM      9  N   UNL     1     -17.959  39.882 -12.838  0.00  0.00    +0.000 NA
ATOM     10  N   UNL     1     -19.692  38.680 -11.728  0.00  0.00    +0.000 N 
ATOM     11  C   UNL     1     -16.962  41.800 -11.756  0.00  0.00    +0.000 A 
ATOM     12  C   UNL     1     -17.796  41.624 -10.657  0.00  0.00    +0.000 A 
ATOM     13  C   UNL     1     -17.081  40.910 -12.811  0.00  0.00    +0.000 A 
ATOM     14  C   UNL     1     -18.711  40.577 -10.648  0.00  0.00    +0.000 A 
ATOM     15  C   UNL     1     -18.753  39.742 -11.753  0.00  0.00    +0.000 A 
ATOM     16  H   UNL     1     -19.714  38.068 -12.535  0.00  0.00    +0.000 HD
ATOM     17  H   UNL     1     -19.965  38.300 -10.830  0.00  0.00    +0.000 HD
ENDBRANCH   8  11
BRANCH   2  18
ATOM     18  C   UNL     1     -17.881  48.062 -12.334  0.00  0.00    +0.000 C 
ATOM     19  C   UNL     1     -18.483  47.961 -10.942  0.00  0.00    +0.000 C 
ENDBRANCH   2  18
TORSDOF 2
ENDMDL
