MODEL 1
REMARK VINA RESULT:    -7.531      0.000      0.000
REMARK INTER + INTRA:          -9.727
REMARK INTER:                  -9.291
REMARK INTRA:                  -0.436
REMARK UNBOUND:                -0.436
REMARK  Name = 55041948
REMARK  4 active torsions:
REMARK  status: ('A' for Active; 'I' for Inactive)
REMARK    1  A    between atoms: N_2  and  C_11
REMARK    2  A    between atoms: N_3  and  C_12
REMARK    3  A    between atoms: C_11  and  C_12
REMARK    4  A    between atoms: C_13  and  C_14
REMARK                            x       y       z     vdW  Elec       q    Type
REMARK                         _______ _______ _______ _____ _____    ______ ____
ROOT
ATOM      1  O   UNL     1     -17.946  40.359  -9.167  0.00  0.00    +0.000 OA
ATOM      2  N   UNL     1     -19.803  39.872 -10.470  0.00  0.00    +0.000 N 
ATOM      3  C   UNL     1     -19.157  40.415  -9.364  0.00  0.00    +0.000 C 
ATOM      4  H   UNL     1     -20.801  40.000 -10.594  0.00  0.00    +0.000 HD
ENDROOT
BRANCH   3   7
ATOM      5  N   UNL     1     -22.238  41.402  -7.435  0.00  0.00    +0.000 NA
ATOM      6  N   UNL     1     -22.531  42.879  -5.589  0.00  0.00    +0.000 N 
ATOM      7  C   UNL     1     -20.027  41.078  -8.359  0.00  0.00    +0.000 A 
ATOM      8  C   UNL     1     -19.498  41.961  -7.424  0.00  0.00    +0.000 A 
ATOM      9  C   UNL     1     -21.391  40.834  -8.323  0.00  0.00    +0.000 A 
ATOM     10  C   UNL     1     -20.338  42.565  -6.495  0.00  0.00    +0.000 A 
ATOM     11  C   UNL     1     -21.688  42.254  -6.543  0.00  0.00    +0.000 A 
ATOM     12  H   UNL     1     -23.515  42.645  -5.624  0.00  0.00    +0.000 HD
ATOM     13  H   UNL     1     -22.132  43.148  -4.698  0.00  0.00    +0.000 HD
ENDBRANCH   3   7
BRANCH   2  14
ATOM     14  C   UNL     1     -19.101  39.178 -11.515  0.00  0.00    +0.000 C 
BRANCH  14  15
ATOM     15  C   UNL     1     -19.091  39.988 -12.803  0.00  0.00    +0.000 C 
BRANCH  15  16
ATOM     16  N   UNL     1     -18.556  41.327 -12.557  0.00  0.00    +0.000 NA
ATOM     17  C   UNL     1     -19.165  42.300 -13.476  0.00  0.00    +0.000 C 
ATOM     18  C   UNL     1     -17.091  41.326 -12.680  0.00  0.00    +0.000 C 
ATOM     19  C   UNL     1     -18.652  43.715 -13.200  0.00  0.00    +0.000 C 
ATOM     20  C   UNL     1     -16.511  42.708 -12.378  0.00  0.00    +0.000 C 
ATOM     21  C   UNL     1     -17.131  43.777 -13.271  0.00  0.00    +0.000 C 
ENDBRANCH  15  16
ENDBRANCH  14  15
ENDBRANCH   2  14
TORSDOF 4
ENDMDL
MODEL 2
REMARK VINA RESULT:    -6.981      1.389      2.074
REMARK INTER + INTRA:          -9.049
REMARK INTER:                  -8.927
REMARK INTRA:                  -0.123
REMARK UNBOUND:                -0.436
REMARK  Name = 55041948
REMARK  4 active torsions:
REMARK  status: ('A' for Active; 'I' for Inactive)
REMARK    1  A    between atoms: N_2  and  C_11
REMARK    2  A    between atoms: N_3  and  C_12
REMARK    3  A    between atoms: C_11  and  C_12
REMARK    4  A    between atoms: C_13  and  C_14
REMARK                            x       y       z     vdW  Elec       q    Type
REMARK                         _______ _______ _______ _____ _____    ______ ____
ROOT
ATOM      1  O   UNL     1     -19.736  39.426 -10.241  0.00  0.00    +0.000 OA
ATOM      2  N   UNL     1     -17.885  40.762  -9.825  0.00  0.00    +0.000 N 
ATOM      3  C   UNL     1     -19.179  40.309  -9.593  0.00  0.00    +0.000 C 
ATOM      4  H   UNL     1     -17.469  41.459  -9.217  0.00  0.00    +0.000 HD
ENDROOT
BRANCH   3   7
ATOM      5  N   UNL     1     -19.879  42.448  -6.573  0.00  0.00    +0.000 NA
ATOM      6  N   UNL     1     -21.902  42.892  -5.396  0.00  0.00    +0.000 N 
ATOM      7  C   UNL     1     -19.919  40.979  -8.493  0.00  0.00    +0.000 A 
ATOM      8  C   UNL     1     -21.289  40.796  -8.334  0.00  0.00    +0.000 A 
ATOM      9  C   UNL     1     -19.267  41.808  -7.594  0.00  0.00    +0.000 A 
ATOM     10  C   UNL     1     -21.954  41.438  -7.295  0.00  0.00    +0.000 A 
ATOM     11  C   UNL     1     -21.210  42.246  -6.450  0.00  0.00    +0.000 A 
ATOM     12  H   UNL     1     -21.356  43.487  -4.784  0.00  0.00    +0.000 HD
ATOM     13  H   UNL     1     -22.883  43.110  -5.526  0.00  0.00    +0.000 HD
ENDBRANCH   3   7
BRANCH   2  14
ATOM     14  C   UNL     1     -17.052  40.230 -10.869  0.00  0.00    +0.000 C 
BRANCH  14  15
ATOM     15  C   UNL     1     -16.139  41.301 -11.444  0.00  0.00    +0.000 C 
BRANCH  15  16
ATOM     16  N   UNL     1     -16.874  42.144 -12.387  0.00  0.00    +0.000 NA
ATOM     17  C   UNL     1     -17.322  43.380 -11.729  0.00  0.00    +0.000 C 
ATOM     18  C   UNL     1     -18.010  41.406 -12.959  0.00  0.00    +0.000 C 
ATOM     19  C   UNL     1     -18.051  44.296 -12.714  0.00  0.00    +0.000 C 
ATOM     20  C   UNL     1     -18.761  42.257 -13.983  0.00  0.00    +0.000 C 
ATOM     21  C   UNL     1     -19.220  43.578 -13.377  0.00  0.00    +0.000 C 
ENDBRANCH  15  16
ENDBRANCH  14  15
ENDBRANCH   2  14
TORSDOF 4
ENDMDL
MODEL 3
REMARK VINA RESULT:    -6.167      3.989      7.869
REMARK INTER + INTRA:          -8.045
REMARK INTER:                  -7.640
REMARK INTRA:                  -0.405
REMARK UNBOUND:                -0.436
REMARK  Name = 55041948
REMARK  4 active torsions:
REMARK  status: ('A' for Active; 'I' for Inactive)
REMARK    1  A    between atoms: N_2  and  C_11
REMARK    2  A    between atoms: N_3  and  C_12
REMARK    3  A    between atoms: C_11  and  C_12
REMARK    4  A    between atoms: C_13  and  C_14
REMARK                            x       y       z     vdW  Elec       q    Type
REMARK                         _______ _______ _______ _____ _____    ______ ____
ROOT
ATOM      1  O   UNL     1     -20.396  42.487 -14.268  0.00  0.00    +0.000 OA
ATOM      2  N   UNL     1     -18.399  43.657 -14.440  0.00  0.00    +0.000 N 
ATOM      3  C   UNL     1     -19.636  43.218 -14.899  0.00  0.00    +0.000 C 
ATOM      4  H   UNL     1     -17.845  44.301 -14.993  0.00  0.00    +0.000 HD
ENDROOT
BRANCH   3   7
ATOM      5  N   UNL     1     -19.774  45.260 -18.061  0.00  0.00    +0.000 NA
ATOM      6  N   UNL     1     -21.037  44.976 -20.061  0.00  0.00    +0.000 N 
ATOM      7  C   UNL     1     -20.022  43.663 -16.263  0.00  0.00    +0.000 A 
ATOM      8  C   UNL     1     -20.949  42.948 -17.015  0.00  0.00    +0.000 A 
ATOM      9  C   UNL     1     -19.468  44.801 -16.826  0.00  0.00    +0.000 A 
ATOM     10  C   UNL     1     -21.289  43.389 -18.288  0.00  0.00    +0.000 A 
ATOM     11  C   UNL     1     -20.679  44.540 -18.761  0.00  0.00    +0.000 A 
ATOM     12  H   UNL     1     -20.584  45.814 -20.406  0.00  0.00    +0.000 HD
ATOM     13  H   UNL     1     -21.340  44.283 -20.735  0.00  0.00    +0.000 HD
ENDBRANCH   3   7
BRANCH   2  14
ATOM     14  C   UNL     1     -17.876  43.292 -13.151  0.00  0.00    +0.000 C 
BRANCH  14  15
ATOM     15  C   UNL     1     -17.133  41.966 -13.214  0.00  0.00    +0.000 C 
BRANCH  15  16
ATOM     16  N   UNL     1     -17.552  41.095 -12.116  0.00  0.00    +0.000 NA
ATOM     17  C   UNL     1     -18.645  40.212 -12.548  0.00  0.00    +0.000 C 
ATOM     18  C   UNL     1     -17.947  41.895 -10.947  0.00  0.00    +0.000 C 
ATOM     19  C   UNL     1     -19.063  39.261 -11.425  0.00  0.00    +0.000 C 
ATOM     20  C   UNL     1     -18.341  41.000  -9.773  0.00  0.00    +0.000 C 
ATOM     21  C   UNL     1     -19.447  40.027 -10.165  0.00  0.00    +0.000 C 
ENDBRANCH  15  16
ENDBRANCH  14  15
ENDBRANCH   2  14
TORSDOF 4
ENDMDL
MODEL 4
REMARK VINA RESULT:    -6.145      2.697      5.829
REMARK INTER + INTRA:          -8.017
REMARK INTER:                  -7.928
REMARK INTRA:                  -0.089
REMARK UNBOUND:                -0.436
REMARK  Name = 55041948
REMARK  4 active torsions:
REMARK  status: ('A' for Active; 'I' for Inactive)
REMARK    1  A    between atoms: N_2  and  C_11
REMARK    2  A    between atoms: N_3  and  C_12
REMARK    3  A    between atoms: C_11  and  C_12
REMARK    4  A    between atoms: C_13  and  C_14
REMARK                            x       y       z     vdW  Elec       q    Type
REMARK                         _______ _______ _______ _____ _____    ______ ____
ROOT
ATOM      1  O   UNL     1     -19.224  42.254 -14.527  0.00  0.00    +0.000 OA
ATOM      2  N   UNL     1     -18.359  41.534 -12.498  0.00  0.00    +0.000 N 
ATOM      3  C   UNL     1     -18.719  42.497 -13.433  0.00  0.00    +0.000 C 
ATOM      4  H   UNL     1     -17.993  41.809 -11.593  0.00  0.00    +0.000 HD
ENDROOT
BRANCH   3   7
ATOM      5  N   UNL     1     -18.528  46.253 -13.641  0.00  0.00    +0.000 NA
ATOM      6  N   UNL     1     -17.680  47.871 -12.111  0.00  0.00    +0.000 N 
ATOM      7  C   UNL     1     -18.435  43.907 -13.063  0.00  0.00    +0.000 A 
ATOM      8  C   UNL     1     -17.837  44.223 -11.847  0.00  0.00    +0.000 A 
ATOM      9  C   UNL     1     -18.758  44.950 -13.917  0.00  0.00    +0.000 A 
ATOM     10  C   UNL     1     -17.583  45.552 -11.528  0.00  0.00    +0.000 A 
ATOM     11  C   UNL     1     -17.945  46.521 -12.451  0.00  0.00    +0.000 A 
ATOM     12  H   UNL     1     -17.951  48.576 -12.786  0.00  0.00    +0.000 HD
ATOM     13  H   UNL     1     -17.662  48.126 -11.131  0.00  0.00    +0.000 HD
ENDBRANCH   3   7
BRANCH   2  14
ATOM     14  C   UNL     1     -18.548  40.126 -12.721  0.00  0.00    +0.000 C 
BRANCH  14  15
ATOM     15  C   UNL     1     -18.902  39.406 -11.429  0.00  0.00    +0.000 C 
BRANCH  15  16
ATOM     16  N   UNL     1     -19.284  40.370 -10.398  0.00  0.00    +0.000 NA
ATOM     17  C   UNL     1     -18.100  40.821  -9.652  0.00  0.00    +0.000 C 
ATOM     18  C   UNL     1     -20.288  39.788  -9.496  0.00  0.00    +0.000 C 
ATOM     19  C   UNL     1     -18.474  41.867  -8.601  0.00  0.00    +0.000 C 
ATOM     20  C   UNL     1     -20.735  40.800  -8.441  0.00  0.00    +0.000 C 
ATOM     21  C   UNL     1     -19.547  41.342  -7.654  0.00  0.00    +0.000 C 
ENDBRANCH  15  16
ENDBRANCH  14  15
ENDBRANCH   2  14
TORSDOF 4
ENDMDL
MODEL 5
REMARK VINA RESULT:    -6.022      3.182      7.051
REMARK INTER + INTRA:          -7.865
REMARK INTER:                  -7.391
REMARK INTRA:                  -0.474
REMARK UNBOUND:                -0.436
REMARK  Name = 55041948
REMARK  4 active torsions:
REMARK  status: ('A' for Active; 'I' for Inactive)
REMARK    1  A    between atoms: N_2  and  C_11
REMARK    2  A    between atoms: N_3  and  C_12
REMARK    3  A    between atoms: C_11  and  C_12
REMARK    4  A    between atoms: C_13  and  C_14
REMARK                            x       y       z     vdW  Elec       q    Type
REMARK                         _______ _______ _______ _____ _____    ______ ____
ROOT
ATOM      1  O   UNL     1     -19.883  41.701 -13.551  0.00  0.00    +0.000 OA
ATOM      2  N   UNL     1     -17.745  42.601 -13.585  0.00  0.00    +0.000 N 
ATOM      3  C   UNL     1     -19.073  42.515 -13.987  0.00  0.00    +0.000 C 
ATOM      4  H   UNL     1     -17.144  43.331 -13.950  0.00  0.00    +0.000 HD
ENDROOT
BRANCH   3   7
ATOM      5  N   UNL     1     -20.947  43.975 -16.910  0.00  0.00    +0.000 NA
ATOM      6  N   UNL     1     -20.760  46.084 -18.002  0.00  0.00    +0.000 N 
ATOM      7  C   UNL     1     -19.501  43.473 -15.038  0.00  0.00    +0.000 A 
ATOM      8  C   UNL     1     -18.902  44.723 -15.156  0.00  0.00    +0.000 A 
ATOM      9  C   UNL     1     -20.510  43.150 -15.931  0.00  0.00    +0.000 A 
ATOM     10  C   UNL     1     -19.324  45.599 -16.150  0.00  0.00    +0.000 A 
ATOM     11  C   UNL     1     -20.341  45.180 -16.994  0.00  0.00    +0.000 A 
ATOM     12  H   UNL     1     -21.508  45.777 -18.612  0.00  0.00    +0.000 HD
ATOM     13  H   UNL     1     -20.657  47.077 -17.831  0.00  0.00    +0.000 HD
ENDBRANCH   3   7
BRANCH   2  14
ATOM     14  C   UNL     1     -17.176  41.726 -12.595  0.00  0.00    +0.000 C 
BRANCH  14  15
ATOM     15  C   UNL     1     -17.183  42.373 -11.219  0.00  0.00    +0.000 C 
BRANCH  15  16
ATOM     16  N   UNL     1     -18.321  41.890 -10.436  0.00  0.00    +0.000 NA
ATOM     17  C   UNL     1     -18.166  42.259  -9.022  0.00  0.00    +0.000 C 
ATOM     18  C   UNL     1     -18.471  40.436 -10.591  0.00  0.00    +0.000 C 
ATOM     19  C   UNL     1     -19.371  41.804  -8.197  0.00  0.00    +0.000 C 
ATOM     20  C   UNL     1     -19.685  39.921  -9.819  0.00  0.00    +0.000 C 
ATOM     21  C   UNL     1     -19.610  40.306  -8.345  0.00  0.00    +0.000 C 
ENDBRANCH  15  16
ENDBRANCH  14  15
ENDBRANCH   2  14
TORSDOF 4
ENDMDL
