MODEL 1
REMARK VINA RESULT:    -6.435      0.000      0.000
REMARK INTER + INTRA:          -7.915
REMARK INTER:                  -7.375
REMARK INTRA:                  -0.540
REMARK UNBOUND:                -0.540
REMARK  Name = 55136662
REMARK  3 active torsions:
REMARK  status: ('A' for Active; 'I' for Inactive)
REMARK    1  A    between atoms: N_3  and  C_7
REMARK    2  A    between atoms: N_5  and  C_9
REMARK    3  A    between atoms: C_6  and  C_8
REMARK                            x       y       z     vdW  Elec       q    Type
REMARK                         _______ _______ _______ _____ _____    ______ ____
ROOT
ATOM      1  O   UNL     1     -17.365  41.543 -13.541  0.00  0.00    +0.000 OA
ATOM      2  N   UNL     1     -19.233  42.954 -13.325  0.00  0.00    +0.000 N 
ATOM      3  C   UNL     1     -18.327  41.969 -12.911  0.00  0.00    +0.000 C 
ATOM      4  H   UNL     1     -19.975  43.199 -12.672  0.00  0.00    +0.000 HD
ENDROOT
BRANCH   2   6
ATOM      5  F   UNL     1     -19.271  45.752 -18.087  0.00  0.00    +0.000 F 
ATOM      6  C   UNL     1     -19.243  43.661 -14.528  0.00  0.00    +0.000 A 
ATOM      7  C   UNL     1     -18.614  44.903 -14.612  0.00  0.00    +0.000 A 
ATOM      8  C   UNL     1     -19.882  43.125 -15.647  0.00  0.00    +0.000 A 
ATOM      9  C   UNL     1     -18.624  45.610 -15.814  0.00  0.00    +0.000 A 
ATOM     10  C   UNL     1     -19.891  43.832 -16.849  0.00  0.00    +0.000 A 
ATOM     11  C   UNL     1     -19.263  45.074 -16.933  0.00  0.00    +0.000 A 
ENDBRANCH   2   6
BRANCH   3  13
ATOM     12  N   UNL     1     -19.434  39.682 -10.110  0.00  0.00    +0.000 NA
ATOM     13  C   UNL     1     -18.563  41.416 -11.551  0.00  0.00    +0.000 A 
ATOM     14  C   UNL     1     -19.203  40.207 -11.334  0.00  0.00    +0.000 A 
ATOM     15  C   UNL     1     -18.133  42.134 -10.440  0.00  0.00    +0.000 A 
ATOM     16  C   UNL     1     -18.352  41.627  -9.164  0.00  0.00    +0.000 A 
ATOM     17  C   UNL     1     -19.002  40.407  -9.054  0.00  0.00    +0.000 A 
BRANCH  14  18
ATOM     18  N   UNL     1     -19.647  39.471 -12.461  0.00  0.00    +0.000 N 
ATOM     19  H   UNL     1     -20.078  38.567 -12.312  0.00  0.00    +0.000 HD
ATOM     20  H   UNL     1     -19.131  39.610 -13.322  0.00  0.00    +0.000 HD
ENDBRANCH  14  18
ENDBRANCH   3  13
TORSDOF 3
ENDMDL
MODEL 2
REMARK VINA RESULT:    -6.305      2.181      2.712
REMARK INTER + INTRA:          -7.766
REMARK INTER:                  -7.224
REMARK INTRA:                  -0.542
REMARK UNBOUND:                -0.540
REMARK  Name = 55136662
REMARK  3 active torsions:
REMARK  status: ('A' for Active; 'I' for Inactive)
REMARK    1  A    between atoms: N_3  and  C_7
REMARK    2  A    between atoms: N_5  and  C_9
REMARK    3  A    between atoms: C_6  and  C_8
REMARK                            x       y       z     vdW  Elec       q    Type
REMARK                         _______ _______ _______ _____ _____    ______ ____
ROOT
ATOM      1  O   UNL     1     -19.071  44.018 -13.262  0.00  0.00    +0.000 OA
ATOM      2  N   UNL     1     -19.856  42.542 -14.915  0.00  0.00    +0.000 N 
ATOM      3  C   UNL     1     -19.207  42.890 -13.723  0.00  0.00    +0.000 C 
ATOM      4  H   UNL     1     -19.888  41.551 -15.149  0.00  0.00    +0.000 HD
ENDROOT
BRANCH   2   6
ATOM      5  F   UNL     1     -22.347  45.888 -18.536  0.00  0.00    +0.000 F 
ATOM      6  C   UNL     1     -20.486  43.388 -15.829  0.00  0.00    +0.000 A 
ATOM      7  C   UNL     1     -19.727  44.270 -16.599  0.00  0.00    +0.000 A 
ATOM      8  C   UNL     1     -21.873  43.350 -15.974  0.00  0.00    +0.000 A 
ATOM      9  C   UNL     1     -20.356  45.115 -17.512  0.00  0.00    +0.000 A 
ATOM     10  C   UNL     1     -22.501  44.195 -16.888  0.00  0.00    +0.000 A 
ATOM     11  C   UNL     1     -21.743  45.078 -17.657  0.00  0.00    +0.000 A 
ENDBRANCH   2   6
BRANCH   3  13
ATOM     12  N   UNL     1     -16.769  40.564 -12.005  0.00  0.00    +0.000 NA
ATOM     13  C   UNL     1     -18.655  41.751 -12.942  0.00  0.00    +0.000 A 
ATOM     14  C   UNL     1     -17.299  41.589 -12.709  0.00  0.00    +0.000 A 
ATOM     15  C   UNL     1     -19.524  40.799 -12.420  0.00  0.00    +0.000 A 
ATOM     16  C   UNL     1     -19.017  39.730 -11.691  0.00  0.00    +0.000 A 
ATOM     17  C   UNL     1     -17.644  39.658 -11.514  0.00  0.00    +0.000 A 
BRANCH  14  18
ATOM     18  N   UNL     1     -16.407  42.554 -13.240  0.00  0.00    +0.000 N 
ATOM     19  H   UNL     1     -16.792  43.385 -13.672  0.00  0.00    +0.000 HD
ATOM     20  H   UNL     1     -15.524  42.207 -13.595  0.00  0.00    +0.000 HD
ENDBRANCH  14  18
ENDBRANCH   3  13
TORSDOF 3
ENDMDL
MODEL 3
REMARK VINA RESULT:    -5.860      3.306      6.820
REMARK INTER + INTRA:          -7.256
REMARK INTER:                  -6.722
REMARK INTRA:                  -0.534
REMARK UNBOUND:                -0.540
REMARK  Name = 55136662
REMARK  3 active torsions:
REMARK  status: ('A' for Active; 'I' for Inactive)
REMARK    1  A    between atoms: N_3  and  C_7
REMARK    2  A    between atoms: N_5  and  C_9
REMARK    3  A    between atoms: C_6  and  C_8
REMARK                            x       y       z     vdW  Elec       q    Type
REMARK                         _______ _______ _______ _____ _____    ______ ____
ROOT
ATOM      1  O   UNL     1     -18.985  44.542 -14.104  0.00  0.00    +0.000 OA
ATOM      2  N   UNL     1     -19.217  42.220 -14.387  0.00  0.00    +0.000 N 
ATOM      3  C   UNL     1     -19.317  43.565 -14.766  0.00  0.00    +0.000 C 
ATOM      4  H   UNL     1     -19.532  41.527 -15.064  0.00  0.00    +0.000 HD
ENDROOT
BRANCH   2   6
ATOM      5  F   UNL     1     -17.259  40.154  -9.654  0.00  0.00    +0.000 F 
ATOM      6  C   UNL     1     -18.722  41.699 -13.191  0.00  0.00    +0.000 A 
ATOM      7  C   UNL     1     -19.605  41.278 -12.196  0.00  0.00    +0.000 A 
ATOM      8  C   UNL     1     -17.345  41.597 -12.991  0.00  0.00    +0.000 A 
ATOM      9  C   UNL     1     -19.110  40.757 -11.001  0.00  0.00    +0.000 A 
ATOM     10  C   UNL     1     -16.851  41.075 -11.796  0.00  0.00    +0.000 A 
ATOM     11  C   UNL     1     -17.733  40.655 -10.801  0.00  0.00    +0.000 A 
ENDBRANCH   2   6
BRANCH   3  13
ATOM     12  N   UNL     1     -19.754  44.914 -18.272  0.00  0.00    +0.000 NA
ATOM     13  C   UNL     1     -19.865  43.804 -16.127  0.00  0.00    +0.000 A 
ATOM     14  C   UNL     1     -19.277  44.675 -17.030  0.00  0.00    +0.000 A 
ATOM     15  C   UNL     1     -21.018  43.136 -16.524  0.00  0.00    +0.000 A 
ATOM     16  C   UNL     1     -21.540  43.355 -17.794  0.00  0.00    +0.000 A 
ATOM     17  C   UNL     1     -20.876  44.247 -18.623  0.00  0.00    +0.000 A 
BRANCH  14  18
ATOM     18  N   UNL     1     -18.103  45.362 -16.631  0.00  0.00    +0.000 N 
ATOM     19  H   UNL     1     -17.270  45.271 -17.199  0.00  0.00    +0.000 HD
ATOM     20  H   UNL     1     -17.979  45.504 -15.635  0.00  0.00    +0.000 HD
ENDBRANCH  14  18
ENDBRANCH   3  13
TORSDOF 3
ENDMDL
MODEL 4
REMARK VINA RESULT:    -5.686      4.635      6.749
REMARK INTER + INTRA:          -7.057
REMARK INTER:                  -6.763
REMARK INTRA:                  -0.294
REMARK UNBOUND:                -0.540
REMARK  Name = 55136662
REMARK  3 active torsions:
REMARK  status: ('A' for Active; 'I' for Inactive)
REMARK    1  A    between atoms: N_3  and  C_7
REMARK    2  A    between atoms: N_5  and  C_9
REMARK    3  A    between atoms: C_6  and  C_8
REMARK                            x       y       z     vdW  Elec       q    Type
REMARK                         _______ _______ _______ _____ _____    ______ ____
ROOT
ATOM      1  O   UNL     1     -17.253  42.526 -12.495  0.00  0.00    +0.000 OA
ATOM      2  N   UNL     1     -16.994  42.348 -10.165  0.00  0.00    +0.000 N 
ATOM      3  C   UNL     1     -16.638  42.752 -11.458  0.00  0.00    +0.000 C 
ATOM      4  H   UNL     1     -16.373  42.629  -9.409  0.00  0.00    +0.000 HD
ENDROOT
BRANCH   2   6
ATOM      5  F   UNL     1     -21.419  39.432  -8.610  0.00  0.00    +0.000 F 
ATOM      6  C   UNL     1     -18.111  41.611  -9.772  0.00  0.00    +0.000 A 
ATOM      7  C   UNL     1     -18.774  41.928  -8.586  0.00  0.00    +0.000 A 
ATOM      8  C   UNL     1     -18.566  40.557 -10.566  0.00  0.00    +0.000 A 
ATOM      9  C   UNL     1     -19.891  41.192  -8.193  0.00  0.00    +0.000 A 
ATOM     10  C   UNL     1     -19.684  39.821 -10.173  0.00  0.00    +0.000 A 
ATOM     11  C   UNL     1     -20.346  40.138  -8.987  0.00  0.00    +0.000 A 
ENDBRANCH   2   6
BRANCH   3  13
ATOM     12  N   UNL     1     -14.272  45.643 -12.050  0.00  0.00    +0.000 NA
ATOM     13  C   UNL     1     -15.393  43.559 -11.554  0.00  0.00    +0.000 A 
ATOM     14  C   UNL     1     -15.388  44.887 -11.951  0.00  0.00    +0.000 A 
ATOM     15  C   UNL     1     -14.174  42.970 -11.237  0.00  0.00    +0.000 A 
ATOM     16  C   UNL     1     -13.003  43.715 -11.326  0.00  0.00    +0.000 A 
ATOM     17  C   UNL     1     -13.105  45.037 -11.734  0.00  0.00    +0.000 A 
BRANCH  14  18
ATOM     18  N   UNL     1     -16.626  45.493 -12.278  0.00  0.00    +0.000 N 
ATOM     19  H   UNL     1     -17.169  45.919 -11.537  0.00  0.00    +0.000 HD
ATOM     20  H   UNL     1     -17.132  45.095 -13.061  0.00  0.00    +0.000 HD
ENDBRANCH  14  18
ENDBRANCH   3  13
TORSDOF 3
ENDMDL
MODEL 5
REMARK VINA RESULT:    -5.676      4.085      4.965
REMARK INTER + INTRA:          -7.046
REMARK INTER:                  -6.850
REMARK INTRA:                  -0.196
REMARK UNBOUND:                -0.540
REMARK  Name = 55136662
REMARK  3 active torsions:
REMARK  status: ('A' for Active; 'I' for Inactive)
REMARK    1  A    between atoms: N_3  and  C_7
REMARK    2  A    between atoms: N_5  and  C_9
REMARK    3  A    between atoms: C_6  and  C_8
REMARK                            x       y       z     vdW  Elec       q    Type
REMARK                         _______ _______ _______ _____ _____    ______ ____
ROOT
ATOM      1  O   UNL     1     -18.016  40.793  -8.239  0.00  0.00    +0.000 OA
ATOM      2  N   UNL     1     -18.815  42.345  -9.814  0.00  0.00    +0.000 N 
ATOM      3  C   UNL     1     -18.914  41.477  -8.719  0.00  0.00    +0.000 C 
ATOM      4  H   UNL     1     -19.660  42.849 -10.079  0.00  0.00    +0.000 HD
ENDROOT
BRANCH   2   6
ATOM      5  F   UNL     1     -14.363  43.444 -12.893  0.00  0.00    +0.000 F 
ATOM      6  C   UNL     1     -17.690  42.623 -10.591  0.00  0.00    +0.000 A 
ATOM      7  C   UNL     1     -16.786  41.606 -10.898  0.00  0.00    +0.000 A 
ATOM      8  C   UNL     1     -17.470  43.918 -11.062  0.00  0.00    +0.000 A 
ATOM      9  C   UNL     1     -15.662  41.883 -11.675  0.00  0.00    +0.000 A 
ATOM     10  C   UNL     1     -16.346  44.195 -11.839  0.00  0.00    +0.000 A 
ATOM     11  C   UNL     1     -15.441  43.178 -12.146  0.00  0.00    +0.000 A 
ENDBRANCH   2   6
BRANCH   3  13
ATOM     12  N   UNL     1     -22.416  40.369  -7.818  0.00  0.00    +0.000 NA
ATOM     13  C   UNL     1     -20.252  41.415  -8.073  0.00  0.00    +0.000 A 
ATOM     14  C   UNL     1     -21.193  40.448  -8.387  0.00  0.00    +0.000 A 
ATOM     15  C   UNL     1     -20.589  42.364  -7.114  0.00  0.00    +0.000 A 
ATOM     16  C   UNL     1     -21.838  42.317  -6.506  0.00  0.00    +0.000 A 
ATOM     17  C   UNL     1     -22.709  41.308  -6.891  0.00  0.00    +0.000 A 
BRANCH  14  18
ATOM     18  N   UNL     1     -20.857  39.479  -9.366  0.00  0.00    +0.000 N 
ATOM     19  H   UNL     1     -21.579  38.851  -9.695  0.00  0.00    +0.000 HD
ATOM     20  H   UNL     1     -19.905  39.134  -9.352  0.00  0.00    +0.000 HD
ENDBRANCH  14  18
ENDBRANCH   3  13
TORSDOF 3
ENDMDL
