MODEL 1
REMARK VINA RESULT:    -6.676      0.000      0.000
REMARK INTER + INTRA:          -9.509
REMARK INTER:                  -9.018
REMARK INTRA:                  -0.491
REMARK UNBOUND:                -0.491
REMARK  Name = 55137276
REMARK  7 active torsions:
REMARK  status: ('A' for Active; 'I' for Inactive)
REMARK    1  A    between atoms: N_5  and  C_8
REMARK    2  A    between atoms: N_5  and  C_10
REMARK    3  A    between atoms: N_6  and  C_14
REMARK    4  A    between atoms: C_8  and  C_9
REMARK    5  A    between atoms: C_9  and  C_13
REMARK    6  A    between atoms: C_11  and  C_12
REMARK    7  A    between atoms: C_14  and  C_17
REMARK                            x       y       z     vdW  Elec       q    Type
REMARK                         _______ _______ _______ _____ _____    ______ ____
ROOT
ATOM      1  N   UNL     1     -17.218  40.821 -12.422  0.00  0.00    +0.000 NA
ATOM      2  C   UNL     1     -17.455  41.400 -11.225  0.00  0.00    +0.000 A 
ATOM      3  C   UNL     1     -18.477  41.022 -10.369  0.00  0.00    +0.000 A 
ATOM      4  C   UNL     1     -19.309  39.983 -10.769  0.00  0.00    +0.000 A 
ATOM      5  C   UNL     1     -19.096  39.362 -11.995  0.00  0.00    +0.000 A 
ATOM      6  C   UNL     1     -18.046  39.815 -12.778  0.00  0.00    +0.000 A 
ENDROOT
BRANCH   3   9
ATOM      7  O   UNL     1     -17.940  42.554  -8.678  0.00  0.00    +0.000 OA
ATOM      8  N   UNL     1     -19.838  41.260  -8.366  0.00  0.00    +0.000 N 
ATOM      9  C   UNL     1     -18.710  41.668  -9.085  0.00  0.00    +0.000 C 
ATOM     10  H   UNL     1     -20.443  40.546  -8.762  0.00  0.00    +0.000 HD
BRANCH   8  11
ATOM     11  C   UNL     1     -20.216  41.822  -7.089  0.00  0.00    +0.000 C 
BRANCH  11  15
ATOM     12  F   UNL     1     -22.321  41.096  -7.842  0.00  0.00    +0.000 F 
ATOM     13  F   UNL     1     -22.097  41.465  -5.706  0.00  0.00    +0.000 F 
ATOM     14  F   UNL     1     -22.174  43.142  -7.104  0.00  0.00    +0.000 F 
ATOM     15  C   UNL     1     -21.713  41.886  -6.930  0.00  0.00    +0.000 C 
ENDBRANCH  11  15
ENDBRANCH   8  11
ENDBRANCH   3   9
BRANCH   2  16
ATOM     16  N   UNL     1     -16.623  42.438 -10.834  0.00  0.00    +0.000 N 
ATOM     17  H   UNL     1     -15.942  42.240 -10.109  0.00  0.00    +0.000 HD
BRANCH  16  18
ATOM     18  C   UNL     1     -16.406  43.630 -11.618  0.00  0.00    +0.000 C 
BRANCH  18  19
ATOM     19  C   UNL     1     -17.590  44.582 -11.491  0.00  0.00    +0.000 C 
ATOM     20  C   UNL     1     -18.387  44.709 -12.782  0.00  0.00    +0.000 C 
ENDBRANCH  18  19
ENDBRANCH  16  18
ENDBRANCH   2  16
TORSDOF 6
ENDMDL
MODEL 2
REMARK VINA RESULT:    -5.999      4.680      5.973
REMARK INTER + INTRA:          -8.594
REMARK INTER:                  -7.709
REMARK INTRA:                  -0.884
REMARK UNBOUND:                -0.491
REMARK  Name = 55137276
REMARK  7 active torsions:
REMARK  status: ('A' for Active; 'I' for Inactive)
REMARK    1  A    between atoms: N_5  and  C_8
REMARK    2  A    between atoms: N_5  and  C_10
REMARK    3  A    between atoms: N_6  and  C_14
REMARK    4  A    between atoms: C_8  and  C_9
REMARK    5  A    between atoms: C_9  and  C_13
REMARK    6  A    between atoms: C_11  and  C_12
REMARK    7  A    between atoms: C_14  and  C_17
REMARK                            x       y       z     vdW  Elec       q    Type
REMARK                         _______ _______ _______ _____ _____    ______ ____
ROOT
ATOM      1  N   UNL     1     -16.876  40.566 -11.908  0.00  0.00    +0.000 NA
ATOM      2  C   UNL     1     -17.304  41.611 -12.650  0.00  0.00    +0.000 A 
ATOM      3  C   UNL     1     -18.626  41.816 -13.012  0.00  0.00    +0.000 A 
ATOM      4  C   UNL     1     -19.569  40.889 -12.583  0.00  0.00    +0.000 A 
ATOM      5  C   UNL     1     -19.167  39.800 -11.816  0.00  0.00    +0.000 A 
ATOM      6  C   UNL     1     -17.821  39.686 -11.509  0.00  0.00    +0.000 A 
ENDROOT
BRANCH   3   9
ATOM      7  O   UNL     1     -19.078  44.095 -13.330  0.00  0.00    +0.000 OA
ATOM      8  N   UNL     1     -19.410  42.688 -15.144  0.00  0.00    +0.000 N 
ATOM      9  C   UNL     1     -19.056  42.951 -13.817  0.00  0.00    +0.000 C 
ATOM     10  H   UNL     1     -19.350  41.735 -15.491  0.00  0.00    +0.000 HD
BRANCH   8  11
ATOM     11  C   UNL     1     -19.835  43.711 -16.073  0.00  0.00    +0.000 C 
BRANCH  11  15
ATOM     12  F   UNL     1     -22.134  43.290 -15.829  0.00  0.00    +0.000 F 
ATOM     13  F   UNL     1     -21.487  44.270 -17.666  0.00  0.00    +0.000 F 
ATOM     14  F   UNL     1     -21.065  42.149 -17.348  0.00  0.00    +0.000 F 
ATOM     15  C   UNL     1     -21.138  43.351 -16.740  0.00  0.00    +0.000 C 
ENDBRANCH  11  15
ENDBRANCH   8  11
ENDBRANCH   3   9
BRANCH   2  16
ATOM     16  N   UNL     1     -16.358  42.530 -13.077  0.00  0.00    +0.000 N 
ATOM     17  H   UNL     1     -16.432  42.863 -14.032  0.00  0.00    +0.000 HD
BRANCH  16  18
ATOM     18  C   UNL     1     -15.534  43.306 -12.182  0.00  0.00    +0.000 C 
BRANCH  18  19
ATOM     19  C   UNL     1     -15.773  44.798 -12.386  0.00  0.00    +0.000 C 
ATOM     20  C   UNL     1     -15.870  45.186 -13.854  0.00  0.00    +0.000 C 
ENDBRANCH  18  19
ENDBRANCH  16  18
ENDBRANCH   2  16
TORSDOF 6
ENDMDL
MODEL 3
REMARK VINA RESULT:    -5.940      5.279      6.900
REMARK INTER + INTRA:          -8.515
REMARK INTER:                  -7.663
REMARK INTRA:                  -0.852
REMARK UNBOUND:                -0.491
REMARK  Name = 55137276
REMARK  7 active torsions:
REMARK  status: ('A' for Active; 'I' for Inactive)
REMARK    1  A    between atoms: N_5  and  C_8
REMARK    2  A    between atoms: N_5  and  C_10
REMARK    3  A    between atoms: N_6  and  C_14
REMARK    4  A    between atoms: C_8  and  C_9
REMARK    5  A    between atoms: C_9  and  C_13
REMARK    6  A    between atoms: C_11  and  C_12
REMARK    7  A    between atoms: C_14  and  C_17
REMARK                            x       y       z     vdW  Elec       q    Type
REMARK                         _______ _______ _______ _____ _____    ______ ____
ROOT
ATOM      1  N   UNL     1     -16.108  43.233 -12.272  0.00  0.00    +0.000 NA
ATOM      2  C   UNL     1     -17.166  42.722 -12.940  0.00  0.00    +0.000 A 
ATOM      3  C   UNL     1     -18.292  43.452 -13.286  0.00  0.00    +0.000 A 
ATOM      4  C   UNL     1     -18.333  44.794 -12.925  0.00  0.00    +0.000 A 
ATOM      5  C   UNL     1     -17.263  45.356 -12.236  0.00  0.00    +0.000 A 
ATOM      6  C   UNL     1     -16.184  44.540 -11.937  0.00  0.00    +0.000 A 
ENDROOT
BRANCH   3   9
ATOM      7  O   UNL     1     -19.864  41.758 -13.679  0.00  0.00    +0.000 OA
ATOM      8  N   UNL     1     -19.969  43.633 -15.039  0.00  0.00    +0.000 N 
ATOM      9  C   UNL     1     -19.418  42.871 -14.004  0.00  0.00    +0.000 C 
ATOM     10  H   UNL     1     -19.574  44.547 -15.243  0.00  0.00    +0.000 HD
BRANCH   8  11
ATOM     11  C   UNL     1     -21.103  43.205 -15.828  0.00  0.00    +0.000 C 
BRANCH  11  15
ATOM     12  F   UNL     1     -21.328  41.886 -17.760  0.00  0.00    +0.000 F 
ATOM     13  F   UNL     1     -21.114  44.038 -18.038  0.00  0.00    +0.000 F 
ATOM     14  F   UNL     1     -19.396  42.837 -17.419  0.00  0.00    +0.000 F 
ATOM     15  C   UNL     1     -20.728  42.995 -17.273  0.00  0.00    +0.000 C 
ENDBRANCH  11  15
ENDBRANCH   8  11
ENDBRANCH   3   9
BRANCH   2  16
ATOM     16  N   UNL     1     -17.119  41.382 -13.295  0.00  0.00    +0.000 N 
ATOM     17  H   UNL     1     -17.035  41.166 -14.282  0.00  0.00    +0.000 HD
BRANCH  16  18
ATOM     18  C   UNL     1     -16.807  40.319 -12.370  0.00  0.00    +0.000 C 
BRANCH  18  19
ATOM     19  C   UNL     1     -17.823  40.277 -11.234  0.00  0.00    +0.000 C 
ATOM     20  C   UNL     1     -19.000  39.358 -11.527  0.00  0.00    +0.000 C 
ENDBRANCH  18  19
ENDBRANCH  16  18
ENDBRANCH   2  16
TORSDOF 6
ENDMDL
MODEL 4
REMARK VINA RESULT:    -5.911      2.907      4.444
REMARK INTER + INTRA:          -8.476
REMARK INTER:                  -7.804
REMARK INTRA:                  -0.672
REMARK UNBOUND:                -0.491
REMARK  Name = 55137276
REMARK  7 active torsions:
REMARK  status: ('A' for Active; 'I' for Inactive)
REMARK    1  A    between atoms: N_5  and  C_8
REMARK    2  A    between atoms: N_5  and  C_10
REMARK    3  A    between atoms: N_6  and  C_14
REMARK    4  A    between atoms: C_8  and  C_9
REMARK    5  A    between atoms: C_9  and  C_13
REMARK    6  A    between atoms: C_11  and  C_12
REMARK    7  A    between atoms: C_14  and  C_17
REMARK                            x       y       z     vdW  Elec       q    Type
REMARK                         _______ _______ _______ _____ _____    ______ ____
ROOT
ATOM      1  N   UNL     1     -18.335  45.157 -13.899  0.00  0.00    +0.000 NA
ATOM      2  C   UNL     1     -18.408  43.860 -13.526  0.00  0.00    +0.000 A 
ATOM      3  C   UNL     1     -18.067  43.395 -12.266  0.00  0.00    +0.000 A 
ATOM      4  C   UNL     1     -17.624  44.321 -11.329  0.00  0.00    +0.000 A 
ATOM      5  C   UNL     1     -17.536  45.665 -11.675  0.00  0.00    +0.000 A 
ATOM      6  C   UNL     1     -17.900  46.029 -12.962  0.00  0.00    +0.000 A 
ENDROOT
BRANCH   3   9
ATOM      7  O   UNL     1     -17.473  41.138 -12.493  0.00  0.00    +0.000 OA
ATOM      8  N   UNL     1     -19.006  41.666 -10.835  0.00  0.00    +0.000 N 
ATOM      9  C   UNL     1     -18.153  41.989 -11.895  0.00  0.00    +0.000 C 
ATOM     10  H   UNL     1     -19.519  42.410 -10.370  0.00  0.00    +0.000 HD
BRANCH   8  11
ATOM     11  C   UNL     1     -19.181  40.321 -10.335  0.00  0.00    +0.000 C 
BRANCH  11  15
ATOM     12  F   UNL     1     -20.562  41.482  -8.828  0.00  0.00    +0.000 F 
ATOM     13  F   UNL     1     -20.853  39.327  -8.995  0.00  0.00    +0.000 F 
ATOM     14  F   UNL     1     -19.085  40.119  -7.984  0.00  0.00    +0.000 F 
ATOM     15  C   UNL     1     -19.924  40.307  -9.024  0.00  0.00    +0.000 C 
ENDBRANCH  11  15
ENDBRANCH   8  11
ENDBRANCH   3   9
BRANCH   2  16
ATOM     16  N   UNL     1     -18.847  42.942 -14.467  0.00  0.00    +0.000 N 
ATOM     17  H   UNL     1     -18.369  42.049 -14.503  0.00  0.00    +0.000 HD
BRANCH  16  18
ATOM     18  C   UNL     1     -20.133  43.015 -15.118  0.00  0.00    +0.000 C 
BRANCH  18  19
ATOM     19  C   UNL     1     -19.973  42.979 -16.634  0.00  0.00    +0.000 C 
ATOM     20  C   UNL     1     -21.305  43.025 -17.370  0.00  0.00    +0.000 C 
ENDBRANCH  18  19
ENDBRANCH  16  18
ENDBRANCH   2  16
TORSDOF 6
ENDMDL
MODEL 5
REMARK VINA RESULT:    -5.810      3.931      5.970
REMARK INTER + INTRA:          -8.339
REMARK INTER:                  -7.532
REMARK INTRA:                  -0.806
REMARK UNBOUND:                -0.491
REMARK  Name = 55137276
REMARK  7 active torsions:
REMARK  status: ('A' for Active; 'I' for Inactive)
REMARK    1  A    between atoms: N_5  and  C_8
REMARK    2  A    between atoms: N_5  and  C_10
REMARK    3  A    between atoms: N_6  and  C_14
REMARK    4  A    between atoms: C_8  and  C_9
REMARK    5  A    between atoms: C_9  and  C_13
REMARK    6  A    between atoms: C_11  and  C_12
REMARK    7  A    between atoms: C_14  and  C_17
REMARK                            x       y       z     vdW  Elec       q    Type
REMARK                         _______ _______ _______ _____ _____    ______ ____
ROOT
ATOM      1  N   UNL     1     -18.434  46.207 -14.646  0.00  0.00    +0.000 NA
ATOM      2  C   UNL     1     -18.704  44.884 -14.685  0.00  0.00    +0.000 A 
ATOM      3  C   UNL     1     -18.587  44.035 -13.596  0.00  0.00    +0.000 A 
ATOM      4  C   UNL     1     -18.166  44.580 -12.389  0.00  0.00    +0.000 A 
ATOM      5  C   UNL     1     -17.879  45.939 -12.308  0.00  0.00    +0.000 A 
ATOM      6  C   UNL     1     -18.027  46.702 -13.455  0.00  0.00    +0.000 A 
ENDROOT
BRANCH   3   9
ATOM      7  O   UNL     1     -19.930  42.213 -14.209  0.00  0.00    +0.000 OA
ATOM      8  N   UNL     1     -17.928  41.738 -13.139  0.00  0.00    +0.000 N 
ATOM      9  C   UNL     1     -18.882  42.611 -13.672  0.00  0.00    +0.000 C 
ATOM     10  H   UNL     1     -17.080  42.122 -12.733  0.00  0.00    +0.000 HD
BRANCH   8  11
ATOM     11  C   UNL     1     -18.066  40.299 -13.159  0.00  0.00    +0.000 C 
BRANCH  11  15
ATOM     12  F   UNL     1     -17.770  39.304 -11.050  0.00  0.00    +0.000 F 
ATOM     13  F   UNL     1     -19.380  40.760 -11.251  0.00  0.00    +0.000 F 
ATOM     14  F   UNL     1     -19.573  38.781 -12.157  0.00  0.00    +0.000 F 
ATOM     15  C   UNL     1     -18.708  39.783 -11.896  0.00  0.00    +0.000 C 
ENDBRANCH  11  15
ENDBRANCH   8  11
ENDBRANCH   3   9
BRANCH   2  16
ATOM     16  N   UNL     1     -19.120  44.346 -15.894  0.00  0.00    +0.000 N 
ATOM     17  H   UNL     1     -18.986  43.350 -16.029  0.00  0.00    +0.000 HD
BRANCH  16  18
ATOM     18  C   UNL     1     -20.042  45.003 -16.788  0.00  0.00    +0.000 C 
BRANCH  18  19
ATOM     19  C   UNL     1     -21.272  44.135 -17.029  0.00  0.00    +0.000 C 
ATOM     20  C   UNL     1     -20.918  42.708 -17.426  0.00  0.00    +0.000 C 
ENDBRANCH  18  19
ENDBRANCH  16  18
ENDBRANCH   2  16
TORSDOF 6
ENDMDL
