MODEL 1
REMARK VINA RESULT:    -6.520      0.000      0.000
REMARK INTER + INTRA:          -8.020
REMARK INTER:                  -7.473
REMARK INTRA:                  -0.547
REMARK UNBOUND:                -0.547
REMARK  Name = 55136663
REMARK  3 active torsions:
REMARK  status: ('A' for Active; 'I' for Inactive)
REMARK    1  A    between atoms: N_3  and  C_7
REMARK    2  A    between atoms: N_5  and  C_9
REMARK    3  A    between atoms: C_6  and  C_8
REMARK                            x       y       z     vdW  Elec       q    Type
REMARK                         _______ _______ _______ _____ _____    ______ ____
ROOT
ATOM      1  O   UNL     1     -17.348  41.572 -13.538  0.00  0.00    +0.000 OA
ATOM      2  N   UNL     1     -19.232  42.961 -13.321  0.00  0.00    +0.000 N 
ATOM      3  C   UNL     1     -18.311  41.991 -12.904  0.00  0.00    +0.000 C 
ATOM      4  H   UNL     1     -19.972  43.203 -12.665  0.00  0.00    +0.000 HD
ENDROOT
BRANCH   2   6
ATOM      5  F   UNL     1     -20.616  43.302 -17.887  0.00  0.00    +0.000 F 
ATOM      6  C   UNL     1     -19.261  43.656 -14.530  0.00  0.00    +0.000 A 
ATOM      7  C   UNL     1     -19.938  43.122 -15.626  0.00  0.00    +0.000 A 
ATOM      8  C   UNL     1     -18.610  44.886 -14.644  0.00  0.00    +0.000 A 
ATOM      9  C   UNL     1     -19.966  43.816 -16.835  0.00  0.00    +0.000 A 
ATOM     10  C   UNL     1     -18.638  45.579 -15.854  0.00  0.00    +0.000 A 
ATOM     11  C   UNL     1     -19.316  45.045 -16.949  0.00  0.00    +0.000 A 
ENDBRANCH   2   6
BRANCH   3  13
ATOM     12  N   UNL     1     -19.386  39.727 -10.073  0.00  0.00    +0.000 NA
ATOM     13  C   UNL     1     -18.529  41.449 -11.538  0.00  0.00    +0.000 A 
ATOM     14  C   UNL     1     -19.170  40.244 -11.304  0.00  0.00    +0.000 A 
ATOM     15  C   UNL     1     -18.079  42.171 -10.438  0.00  0.00    +0.000 A 
ATOM     16  C   UNL     1     -18.282  41.674  -9.156  0.00  0.00    +0.000 A 
ATOM     17  C   UNL     1     -18.934  40.458  -9.027  0.00  0.00    +0.000 A 
BRANCH  14  18
ATOM     18  N   UNL     1     -19.635  39.502 -12.419  0.00  0.00    +0.000 N 
ATOM     19  H   UNL     1     -18.971  39.238 -13.137  0.00  0.00    +0.000 HD
ATOM     20  H   UNL     1     -20.593  39.665 -12.703  0.00  0.00    +0.000 HD
ENDBRANCH  14  18
ENDBRANCH   3  13
TORSDOF 3
ENDMDL
MODEL 2
REMARK VINA RESULT:    -6.402      2.246      2.801
REMARK INTER + INTRA:          -7.885
REMARK INTER:                  -7.298
REMARK INTRA:                  -0.587
REMARK UNBOUND:                -0.547
REMARK  Name = 55136663
REMARK  3 active torsions:
REMARK  status: ('A' for Active; 'I' for Inactive)
REMARK    1  A    between atoms: N_3  and  C_7
REMARK    2  A    between atoms: N_5  and  C_9
REMARK    3  A    between atoms: C_6  and  C_8
REMARK                            x       y       z     vdW  Elec       q    Type
REMARK                         _______ _______ _______ _____ _____    ______ ____
ROOT
ATOM      1  O   UNL     1     -19.003  44.011 -13.549  0.00  0.00    +0.000 OA
ATOM      2  N   UNL     1     -19.830  42.430 -15.080  0.00  0.00    +0.000 N 
ATOM      3  C   UNL     1     -19.170  42.854 -13.919  0.00  0.00    +0.000 C 
ATOM      4  H   UNL     1     -19.889  41.425 -15.234  0.00  0.00    +0.000 HD
ENDROOT
BRANCH   2   6
ATOM      5  F   UNL     1     -23.710  44.569 -16.885  0.00  0.00    +0.000 F 
ATOM      6  C   UNL     1     -20.435  43.217 -16.060  0.00  0.00    +0.000 A 
ATOM      7  C   UNL     1     -21.797  43.506 -15.980  0.00  0.00    +0.000 A 
ATOM      8  C   UNL     1     -19.677  43.714 -17.121  0.00  0.00    +0.000 A 
ATOM      9  C   UNL     1     -22.402  44.292 -16.961  0.00  0.00    +0.000 A 
ATOM     10  C   UNL     1     -20.282  44.499 -18.102  0.00  0.00    +0.000 A 
ATOM     11  C   UNL     1     -21.644  44.789 -18.021  0.00  0.00    +0.000 A 
ENDBRANCH   2   6
BRANCH   3  13
ATOM     12  N   UNL     1     -16.806  40.654 -11.951  0.00  0.00    +0.000 NA
ATOM     13  C   UNL     1     -18.650  41.767 -13.048  0.00  0.00    +0.000 A 
ATOM     14  C   UNL     1     -17.307  41.633 -12.737  0.00  0.00    +0.000 A 
ATOM     15  C   UNL     1     -19.538  40.837 -12.516  0.00  0.00    +0.000 A 
ATOM     16  C   UNL     1     -19.061  39.815 -11.703  0.00  0.00    +0.000 A 
ATOM     17  C   UNL     1     -17.699  39.767 -11.453  0.00  0.00    +0.000 A 
BRANCH  14  18
ATOM     18  N   UNL     1     -16.396  42.575 -13.277  0.00  0.00    +0.000 N 
ATOM     19  H   UNL     1     -16.150  42.506 -14.257  0.00  0.00    +0.000 HD
ATOM     20  H   UNL     1     -15.697  42.943 -12.642  0.00  0.00    +0.000 HD
ENDBRANCH  14  18
ENDBRANCH   3  13
TORSDOF 3
ENDMDL
MODEL 3
REMARK VINA RESULT:    -6.056      2.899      6.564
REMARK INTER + INTRA:          -7.488
REMARK INTER:                  -6.913
REMARK INTRA:                  -0.575
REMARK UNBOUND:                -0.547
REMARK  Name = 55136663
REMARK  3 active torsions:
REMARK  status: ('A' for Active; 'I' for Inactive)
REMARK    1  A    between atoms: N_3  and  C_7
REMARK    2  A    between atoms: N_5  and  C_9
REMARK    3  A    between atoms: C_6  and  C_8
REMARK                            x       y       z     vdW  Elec       q    Type
REMARK                         _______ _______ _______ _____ _____    ______ ____
ROOT
ATOM      1  O   UNL     1     -19.239  44.223 -13.433  0.00  0.00    +0.000 OA
ATOM      2  N   UNL     1     -19.155  41.972 -14.104  0.00  0.00    +0.000 N 
ATOM      3  C   UNL     1     -19.398  43.342 -14.271  0.00  0.00    +0.000 C 
ATOM      4  H   UNL     1     -19.331  41.373 -14.909  0.00  0.00    +0.000 HD
ENDROOT
BRANCH   2   6
ATOM      5  F   UNL     1     -19.967  39.893  -9.872  0.00  0.00    +0.000 F 
ATOM      6  C   UNL     1     -18.686  41.314 -12.967  0.00  0.00    +0.000 A 
ATOM      7  C   UNL     1     -19.579  40.924 -11.969  0.00  0.00    +0.000 A 
ATOM      8  C   UNL     1     -17.323  41.049 -12.827  0.00  0.00    +0.000 A 
ATOM      9  C   UNL     1     -19.109  40.267 -10.831  0.00  0.00    +0.000 A 
ATOM     10  C   UNL     1     -16.854  40.393 -11.689  0.00  0.00    +0.000 A 
ATOM     11  C   UNL     1     -17.747  40.002 -10.691  0.00  0.00    +0.000 A 
ENDBRANCH   2   6
BRANCH   3  13
ATOM     12  N   UNL     1     -19.643  45.101 -17.609  0.00  0.00    +0.000 NA
ATOM     13  C   UNL     1     -19.872  43.746 -15.620  0.00  0.00    +0.000 A 
ATOM     14  C   UNL     1     -19.234  44.711 -16.381  0.00  0.00    +0.000 A 
ATOM     15  C   UNL     1     -21.005  43.140 -16.154  0.00  0.00    +0.000 A 
ATOM     16  C   UNL     1     -21.457  43.514 -17.414  0.00  0.00    +0.000 A 
ATOM     17  C   UNL     1     -20.748  44.490 -18.095  0.00  0.00    +0.000 A 
BRANCH  14  18
ATOM     18  N   UNL     1     -18.080  45.335 -15.843  0.00  0.00    +0.000 N 
ATOM     19  H   UNL     1     -17.545  45.959 -16.435  0.00  0.00    +0.000 HD
ATOM     20  H   UNL     1     -17.578  44.820 -15.129  0.00  0.00    +0.000 HD
ENDBRANCH  14  18
ENDBRANCH   3  13
TORSDOF 3
ENDMDL
MODEL 4
REMARK VINA RESULT:    -5.985      3.428      6.432
REMARK INTER + INTRA:          -7.407
REMARK INTER:                  -6.924
REMARK INTRA:                  -0.483
REMARK UNBOUND:                -0.547
REMARK  Name = 55136663
REMARK  3 active torsions:
REMARK  status: ('A' for Active; 'I' for Inactive)
REMARK    1  A    between atoms: N_3  and  C_7
REMARK    2  A    between atoms: N_5  and  C_9
REMARK    3  A    between atoms: C_6  and  C_8
REMARK                            x       y       z     vdW  Elec       q    Type
REMARK                         _______ _______ _______ _____ _____    ______ ____
ROOT
ATOM      1  O   UNL     1     -20.519  42.374 -14.656  0.00  0.00    +0.000 OA
ATOM      2  N   UNL     1     -18.754  43.924 -14.740  0.00  0.00    +0.000 N 
ATOM      3  C   UNL     1     -19.887  43.257 -15.225  0.00  0.00    +0.000 C 
ATOM      4  H   UNL     1     -18.353  44.644 -15.339  0.00  0.00    +0.000 HD
ENDROOT
BRANCH   2   6
ATOM      5  F   UNL     1     -16.201  41.172 -11.775  0.00  0.00    +0.000 F 
ATOM      6  C   UNL     1     -18.101  43.735 -13.522  0.00  0.00    +0.000 A 
ATOM      7  C   UNL     1     -17.464  42.524 -13.252  0.00  0.00    +0.000 A 
ATOM      8  C   UNL     1     -18.087  44.758 -12.572  0.00  0.00    +0.000 A 
ATOM      9  C   UNL     1     -16.812  42.335 -12.034  0.00  0.00    +0.000 A 
ATOM     10  C   UNL     1     -17.436  44.568 -11.353  0.00  0.00    +0.000 A 
ATOM     11  C   UNL     1     -16.798  43.357 -11.085  0.00  0.00    +0.000 A 
ENDBRANCH   2   6
BRANCH   3  13
ATOM     12  N   UNL     1     -22.167  44.387 -18.023  0.00  0.00    +0.000 NA
ATOM     13  C   UNL     1     -20.368  43.704 -16.558  0.00  0.00    +0.000 A 
ATOM     14  C   UNL     1     -21.700  43.981 -16.820  0.00  0.00    +0.000 A 
ATOM     15  C   UNL     1     -19.456  43.854 -17.597  0.00  0.00    +0.000 A 
ATOM     16  C   UNL     1     -19.896  44.268 -18.848  0.00  0.00    +0.000 A 
ATOM     17  C   UNL     1     -21.250  44.520 -19.009  0.00  0.00    +0.000 A 
BRANCH  14  18
ATOM     18  N   UNL     1     -22.637  43.830 -15.768  0.00  0.00    +0.000 N 
ATOM     19  H   UNL     1     -23.596  43.603 -16.001  0.00  0.00    +0.000 HD
ATOM     20  H   UNL     1     -22.474  44.382 -14.934  0.00  0.00    +0.000 HD
ENDBRANCH  14  18
ENDBRANCH   3  13
TORSDOF 3
ENDMDL
MODEL 5
REMARK VINA RESULT:    -5.908      1.514      1.899
REMARK INTER + INTRA:          -7.319
REMARK INTER:                  -6.746
REMARK INTRA:                  -0.573
REMARK UNBOUND:                -0.547
REMARK  Name = 55136663
REMARK  3 active torsions:
REMARK  status: ('A' for Active; 'I' for Inactive)
REMARK    1  A    between atoms: N_3  and  C_7
REMARK    2  A    between atoms: N_5  and  C_9
REMARK    3  A    between atoms: C_6  and  C_8
REMARK                            x       y       z     vdW  Elec       q    Type
REMARK                         _______ _______ _______ _____ _____    ______ ____
ROOT
ATOM      1  O   UNL     1     -17.235  41.442 -13.020  0.00  0.00    +0.000 OA
ATOM      2  N   UNL     1     -18.180  43.487 -12.347  0.00  0.00    +0.000 N 
ATOM      3  C   UNL     1     -17.901  42.118 -12.242  0.00  0.00    +0.000 C 
ATOM      4  H   UNL     1     -18.744  43.899 -11.606  0.00  0.00    +0.000 HD
ENDROOT
BRANCH   2   6
ATOM      5  F   UNL     1     -19.142  46.085 -16.248  0.00  0.00    +0.000 F 
ATOM      6  C   UNL     1     -17.773  44.373 -13.344  0.00  0.00    +0.000 A 
ATOM      7  C   UNL     1     -18.679  44.795 -14.317  0.00  0.00    +0.000 A 
ATOM      8  C   UNL     1     -16.456  44.836 -13.370  0.00  0.00    +0.000 A 
ATOM      9  C   UNL     1     -18.271  45.680 -15.314  0.00  0.00    +0.000 A 
ATOM     10  C   UNL     1     -16.048  45.721 -14.369  0.00  0.00    +0.000 A 
ATOM     11  C   UNL     1     -16.956  46.143 -15.340  0.00  0.00    +0.000 A 
ENDBRANCH   2   6
BRANCH   3  13
ATOM     12  N   UNL     1     -19.779  39.684 -10.040  0.00  0.00    +0.000 NA
ATOM     13  C   UNL     1     -18.457  41.444 -11.040  0.00  0.00    +0.000 A 
ATOM     14  C   UNL     1     -19.257  40.316 -11.116  0.00  0.00    +0.000 A 
ATOM     15  C   UNL     1     -18.172  41.957  -9.779  0.00  0.00    +0.000 A 
ATOM     16  C   UNL     1     -18.690  41.336  -8.648  0.00  0.00    +0.000 A 
ATOM     17  C   UNL     1     -19.481  40.212  -8.830  0.00  0.00    +0.000 A 
BRANCH  14  18
ATOM     18  N   UNL     1     -19.554  39.789 -12.397  0.00  0.00    +0.000 N 
ATOM     19  H   UNL     1     -19.528  38.785 -12.527  0.00  0.00    +0.000 HD
ATOM     20  H   UNL     1     -19.318  40.371 -13.192  0.00  0.00    +0.000 HD
ENDBRANCH  14  18
ENDBRANCH   3  13
TORSDOF 3
ENDMDL
