MODEL 1
REMARK VINA RESULT:    -6.853      0.000      0.000
REMARK INTER + INTRA:          -9.609
REMARK INTER:                  -8.856
REMARK INTRA:                  -0.753
REMARK UNBOUND:                -0.753
REMARK  Name = 55140555
REMARK  5 active torsions:
REMARK  status: ('A' for Active; 'I' for Inactive)
REMARK    1  A    between atoms: N_2  and  C_10
REMARK    2  A    between atoms: N_3  and  C_12
REMARK    3  A    between atoms: C_10  and  C_11
REMARK    4  A    between atoms: C_11  and  C_12
REMARK    5  A    between atoms: C_13  and  C_14
REMARK                            x       y       z     vdW  Elec       q    Type
REMARK                         _______ _______ _______ _____ _____    ______ ____
ROOT
ATOM      1  O   UNL     1     -19.411  39.084 -10.824  0.00  0.00    +0.000 OA
ATOM      2  N   UNL     1     -17.673  40.619 -10.788  0.00  0.00    +0.000 N 
ATOM      3  C   UNL     1     -18.855  40.057 -10.322  0.00  0.00    +0.000 C 
ATOM      4  H   UNL     1     -17.297  41.457 -10.357  0.00  0.00    +0.000 HD
ENDROOT
BRANCH   3   7
ATOM      5  N   UNL     1     -19.259  42.244  -7.282  0.00  0.00    +0.000 NA
ATOM      6  N   UNL     1     -21.127  42.619  -5.851  0.00  0.00    +0.000 N 
ATOM      7  C   UNL     1     -19.476  40.721  -9.146  0.00  0.00    +0.000 A 
ATOM      8  C   UNL     1     -20.800  40.473  -8.799  0.00  0.00    +0.000 A 
ATOM      9  C   UNL     1     -18.756  41.607  -8.363  0.00  0.00    +0.000 A 
ATOM     10  C   UNL     1     -21.354  41.109  -7.694  0.00  0.00    +0.000 A 
ATOM     11  C   UNL     1     -20.549  41.978  -6.974  0.00  0.00    +0.000 A 
ATOM     12  H   UNL     1     -20.537  43.257  -5.332  0.00  0.00    +0.000 HD
ATOM     13  H   UNL     1     -22.126  42.782  -5.851  0.00  0.00    +0.000 HD
ENDBRANCH   3   7
BRANCH   2  14
ATOM     14  C   UNL     1     -16.967  40.106 -11.930  0.00  0.00    +0.000 C 
BRANCH  14  15
ATOM     15  C   UNL     1     -16.860  41.126 -13.060  0.00  0.00    +0.000 C 
BRANCH  15  16
ATOM     16  C   UNL     1     -18.104  42.011 -13.164  0.00  0.00    +0.000 C 
BRANCH  16  17
ATOM     17  N   UNL     1     -17.905  43.247 -12.421  0.00  0.00    +0.000 NA
ATOM     18  C   UNL     1     -16.521  43.714 -12.475  0.00  0.00    +0.000 C 
ATOM     19  C   UNL     1     -18.700  44.353 -12.955  0.00  0.00    +0.000 C 
ATOM     20  C   UNL     1     -16.628  45.155 -11.997  0.00  0.00    +0.000 C 
ATOM     21  C   UNL     1     -18.061  45.573 -12.310  0.00  0.00    +0.000 C 
ENDBRANCH  16  17
ENDBRANCH  15  16
ENDBRANCH  14  15
ENDBRANCH   2  14
TORSDOF 5
ENDMDL
MODEL 2
REMARK VINA RESULT:    -6.004      2.530      6.909
REMARK INTER + INTRA:          -8.512
REMARK INTER:                  -8.164
REMARK INTRA:                  -0.348
REMARK UNBOUND:                -0.753
REMARK  Name = 55140555
REMARK  5 active torsions:
REMARK  status: ('A' for Active; 'I' for Inactive)
REMARK    1  A    between atoms: N_2  and  C_10
REMARK    2  A    between atoms: N_3  and  C_12
REMARK    3  A    between atoms: C_10  and  C_11
REMARK    4  A    between atoms: C_11  and  C_12
REMARK    5  A    between atoms: C_13  and  C_14
REMARK                            x       y       z     vdW  Elec       q    Type
REMARK                         _______ _______ _______ _____ _____    ______ ____
ROOT
ATOM      1  O   UNL     1     -17.731  44.043 -11.595  0.00  0.00    +0.000 OA
ATOM      2  N   UNL     1     -18.614  41.907 -11.796  0.00  0.00    +0.000 N 
ATOM      3  C   UNL     1     -18.330  43.191 -12.246  0.00  0.00    +0.000 C 
ATOM      4  H   UNL     1     -19.160  41.271 -12.366  0.00  0.00    +0.000 HD
ENDROOT
BRANCH   3   7
ATOM      5  N   UNL     1     -20.103  42.897 -15.556  0.00  0.00    +0.000 NA
ATOM      6  N   UNL     1     -20.244  44.394 -17.404  0.00  0.00    +0.000 N 
ATOM      7  C   UNL     1     -18.823  43.530 -13.606  0.00  0.00    +0.000 A 
ATOM      8  C   UNL     1     -18.498  44.743 -14.204  0.00  0.00    +0.000 A 
ATOM      9  C   UNL     1     -19.622  42.650 -14.317  0.00  0.00    +0.000 A 
ATOM     10  C   UNL     1     -18.974  45.033 -15.479  0.00  0.00    +0.000 A 
ATOM     11  C   UNL     1     -19.766  44.084 -16.107  0.00  0.00    +0.000 A 
ATOM     12  H   UNL     1     -20.827  43.701 -17.856  0.00  0.00    +0.000 HD
ATOM     13  H   UNL     1     -20.378  45.367 -17.648  0.00  0.00    +0.000 HD
ENDBRANCH   3   7
BRANCH   2  14
ATOM     14  C   UNL     1     -18.225  41.438 -10.493  0.00  0.00    +0.000 C 
BRANCH  14  15
ATOM     15  C   UNL     1     -19.296  40.567  -9.841  0.00  0.00    +0.000 C 
BRANCH  15  16
ATOM     16  C   UNL     1     -19.322  40.719  -8.319  0.00  0.00    +0.000 C 
BRANCH  16  17
ATOM     17  N   UNL     1     -20.475  41.509  -7.912  0.00  0.00    +0.000 NA
ATOM     18  C   UNL     1     -21.721  40.745  -7.966  0.00  0.00    +0.000 C 
ATOM     19  C   UNL     1     -20.373  41.972  -6.528  0.00  0.00    +0.000 C 
ATOM     20  C   UNL     1     -22.681  41.602  -7.153  0.00  0.00    +0.000 C 
ATOM     21  C   UNL     1     -21.795  42.410  -6.211  0.00  0.00    +0.000 C 
ENDBRANCH  16  17
ENDBRANCH  15  16
ENDBRANCH  14  15
ENDBRANCH   2  14
TORSDOF 5
ENDMDL
MODEL 3
REMARK VINA RESULT:    -5.997      1.987      5.806
REMARK INTER + INTRA:          -8.502
REMARK INTER:                  -7.928
REMARK INTRA:                  -0.575
REMARK UNBOUND:                -0.753
REMARK  Name = 55140555
REMARK  5 active torsions:
REMARK  status: ('A' for Active; 'I' for Inactive)
REMARK    1  A    between atoms: N_2  and  C_10
REMARK    2  A    between atoms: N_3  and  C_12
REMARK    3  A    between atoms: C_10  and  C_11
REMARK    4  A    between atoms: C_11  and  C_12
REMARK    5  A    between atoms: C_13  and  C_14
REMARK                            x       y       z     vdW  Elec       q    Type
REMARK                         _______ _______ _______ _____ _____    ______ ____
ROOT
ATOM      1  O   UNL     1     -19.499  42.007 -13.842  0.00  0.00    +0.000 OA
ATOM      2  N   UNL     1     -17.523  41.657 -12.680  0.00  0.00    +0.000 N 
ATOM      3  C   UNL     1     -18.511  42.444 -13.259  0.00  0.00    +0.000 C 
ATOM      4  H   UNL     1     -16.705  42.085 -12.260  0.00  0.00    +0.000 HD
ENDROOT
BRANCH   3   7
ATOM      5  N   UNL     1     -18.484  46.088 -14.211  0.00  0.00    +0.000 NA
ATOM      6  N   UNL     1     -17.790  48.024 -13.007  0.00  0.00    +0.000 N 
ATOM      7  C   UNL     1     -18.311  43.914 -13.170  0.00  0.00    +0.000 A 
ATOM      8  C   UNL     1     -17.790  44.497 -12.020  0.00  0.00    +0.000 A 
ATOM      9  C   UNL     1     -18.640  44.746 -14.227  0.00  0.00    +0.000 A 
ATOM     10  C   UNL     1     -17.615  45.876 -11.965  0.00  0.00    +0.000 A 
ATOM     11  C   UNL     1     -17.974  46.620 -13.078  0.00  0.00    +0.000 A 
ATOM     12  H   UNL     1     -18.059  48.564 -13.819  0.00  0.00    +0.000 HD
ATOM     13  H   UNL     1     -17.831  48.469 -12.099  0.00  0.00    +0.000 HD
ENDBRANCH   3   7
BRANCH   2  14
ATOM     14  C   UNL     1     -17.560  40.220 -12.706  0.00  0.00    +0.000 C 
BRANCH  14  15
ATOM     15  C   UNL     1     -17.985  39.621 -11.367  0.00  0.00    +0.000 C 
BRANCH  15  16
ATOM     16  C   UNL     1     -17.636  40.529 -10.187  0.00  0.00    +0.000 C 
BRANCH  16  17
ATOM     17  N   UNL     1     -18.660  40.431  -9.157  0.00  0.00    +0.000 NA
ATOM     18  C   UNL     1     -18.856  41.691  -8.443  0.00  0.00    +0.000 C 
ATOM     19  C   UNL     1     -19.974  40.098  -9.707  0.00  0.00    +0.000 C 
ATOM     20  C   UNL     1     -20.183  41.477  -7.730  0.00  0.00    +0.000 C 
ATOM     21  C   UNL     1     -20.916  40.428  -8.559  0.00  0.00    +0.000 C 
ENDBRANCH  16  17
ENDBRANCH  15  16
ENDBRANCH  14  15
ENDBRANCH   2  14
TORSDOF 5
ENDMDL
MODEL 4
REMARK VINA RESULT:    -5.992      1.918      6.305
REMARK INTER + INTRA:          -8.496
REMARK INTER:                  -8.070
REMARK INTRA:                  -0.425
REMARK UNBOUND:                -0.753
REMARK  Name = 55140555
REMARK  5 active torsions:
REMARK  status: ('A' for Active; 'I' for Inactive)
REMARK    1  A    between atoms: N_2  and  C_10
REMARK    2  A    between atoms: N_3  and  C_12
REMARK    3  A    between atoms: C_10  and  C_11
REMARK    4  A    between atoms: C_11  and  C_12
REMARK    5  A    between atoms: C_13  and  C_14
REMARK                            x       y       z     vdW  Elec       q    Type
REMARK                         _______ _______ _______ _____ _____    ______ ____
ROOT
ATOM      1  O   UNL     1     -17.746  41.623 -13.207  0.00  0.00    +0.000 OA
ATOM      2  N   UNL     1     -18.367  41.989 -11.003  0.00  0.00    +0.000 N 
ATOM      3  C   UNL     1     -18.030  42.388 -12.290  0.00  0.00    +0.000 C 
ATOM      4  H   UNL     1     -18.539  42.678 -10.279  0.00  0.00    +0.000 HD
ENDROOT
BRANCH   3   7
ATOM      5  N   UNL     1     -18.507  45.720 -13.981  0.00  0.00    +0.000 NA
ATOM      6  N   UNL     1     -17.948  47.931 -13.288  0.00  0.00    +0.000 N 
ATOM      7  C   UNL     1     -17.997  43.854 -12.532  0.00  0.00    +0.000 A 
ATOM      8  C   UNL     1     -17.456  44.724 -11.591  0.00  0.00    +0.000 A 
ATOM      9  C   UNL     1     -18.506  44.398 -13.700  0.00  0.00    +0.000 A 
ATOM     10  C   UNL     1     -17.439  46.091 -11.844  0.00  0.00    +0.000 A 
ATOM     11  C   UNL     1     -17.972  46.535 -13.044  0.00  0.00    +0.000 A 
ATOM     12  H   UNL     1     -18.344  48.251 -14.163  0.00  0.00    +0.000 HD
ATOM     13  H   UNL     1     -17.968  48.558 -12.495  0.00  0.00    +0.000 HD
ENDBRANCH   3   7
BRANCH   2  14
ATOM     14  C   UNL     1     -18.418  40.607 -10.607  0.00  0.00    +0.000 C 
BRANCH  14  15
ATOM     15  C   UNL     1     -18.748  40.434  -9.127  0.00  0.00    +0.000 C 
BRANCH  15  16
ATOM     16  C   UNL     1     -20.225  40.110  -8.895  0.00  0.00    +0.000 C 
BRANCH  16  17
ATOM     17  N   UNL     1     -20.876  41.207  -8.192  0.00  0.00    +0.000 NA
ATOM     18  C   UNL     1     -22.221  40.859  -7.739  0.00  0.00    +0.000 C 
ATOM     19  C   UNL     1     -20.156  41.597  -6.980  0.00  0.00    +0.000 C 
ATOM     20  C   UNL     1     -22.536  41.955  -6.731  0.00  0.00    +0.000 C 
ATOM     21  C   UNL     1     -21.178  42.442  -6.235  0.00  0.00    +0.000 C 
ENDBRANCH  16  17
ENDBRANCH  15  16
ENDBRANCH  14  15
ENDBRANCH   2  14
TORSDOF 5
ENDMDL
MODEL 5
REMARK VINA RESULT:    -5.871      4.021      7.672
REMARK INTER + INTRA:          -8.340
REMARK INTER:                  -8.012
REMARK INTRA:                  -0.328
REMARK UNBOUND:                -0.753
REMARK  Name = 55140555
REMARK  5 active torsions:
REMARK  status: ('A' for Active; 'I' for Inactive)
REMARK    1  A    between atoms: N_2  and  C_10
REMARK    2  A    between atoms: N_3  and  C_12
REMARK    3  A    between atoms: C_10  and  C_11
REMARK    4  A    between atoms: C_11  and  C_12
REMARK    5  A    between atoms: C_13  and  C_14
REMARK                            x       y       z     vdW  Elec       q    Type
REMARK                         _______ _______ _______ _____ _____    ______ ____
ROOT
ATOM      1  O   UNL     1     -18.921  44.398 -14.128  0.00  0.00    +0.000 OA
ATOM      2  N   UNL     1     -19.201  42.104 -14.331  0.00  0.00    +0.000 N 
ATOM      3  C   UNL     1     -19.273  43.418 -14.779  0.00  0.00    +0.000 C 
ATOM      4  H   UNL     1     -19.560  41.346 -14.901  0.00  0.00    +0.000 HD
ENDROOT
BRANCH   3   7
ATOM      5  N   UNL     1     -19.653  44.597 -18.336  0.00  0.00    +0.000 NA
ATOM      6  N   UNL     1     -21.369  44.217 -19.945  0.00  0.00    +0.000 N 
ATOM      7  C   UNL     1     -19.846  43.615 -16.136  0.00  0.00    +0.000 A 
ATOM      8  C   UNL     1     -21.060  43.037 -16.492  0.00  0.00    +0.000 A 
ATOM      9  C   UNL     1     -19.188  44.378 -17.086  0.00  0.00    +0.000 A 
ATOM     10  C   UNL     1     -21.571  43.239 -17.770  0.00  0.00    +0.000 A 
ATOM     11  C   UNL     1     -20.836  44.020 -18.647  0.00  0.00    +0.000 A 
ATOM     12  H   UNL     1     -20.825  44.783 -20.584  0.00  0.00    +0.000 HD
ATOM     13  H   UNL     1     -21.971  43.501 -20.331  0.00  0.00    +0.000 HD
ENDBRANCH   3   7
BRANCH   2  14
ATOM     14  C   UNL     1     -18.695  41.754 -13.032  0.00  0.00    +0.000 C 
BRANCH  14  15
ATOM     15  C   UNL     1     -19.596  40.764 -12.299  0.00  0.00    +0.000 C 
BRANCH  15  16
ATOM     16  C   UNL     1     -18.980  40.279 -10.986  0.00  0.00    +0.000 C 
BRANCH  16  17
ATOM     17  N   UNL     1     -19.558  41.001  -9.862  0.00  0.00    +0.000 NA
ATOM     18  C   UNL     1     -20.395  40.147  -9.020  0.00  0.00    +0.000 C 
ATOM     19  C   UNL     1     -18.539  41.540  -8.962  0.00  0.00    +0.000 C 
ATOM     20  C   UNL     1     -20.555  40.971  -7.751  0.00  0.00    +0.000 C 
ATOM     21  C   UNL     1     -19.337  41.889  -7.715  0.00  0.00    +0.000 C 
ENDBRANCH  16  17
ENDBRANCH  15  16
ENDBRANCH  14  15
ENDBRANCH   2  14
TORSDOF 5
ENDMDL
