MODEL 1
REMARK VINA RESULT:    -6.252      0.000      0.000
REMARK INTER + INTRA:          -8.621
REMARK INTER:                  -8.079
REMARK INTRA:                  -0.541
REMARK UNBOUND:                -0.541
REMARK  Name = 55167267
REMARK  6 active torsions:
REMARK  status: ('A' for Active; 'I' for Inactive)
REMARK    1  A    between atoms: N_5  and  C_8
REMARK    2  A    between atoms: N_6  and  C_13
REMARK    3  A    between atoms: N_6  and  C_17
REMARK    4  A    between atoms: C_8  and  C_9
REMARK    5  A    between atoms: C_9  and  C_12
REMARK    6  A    between atoms: C_10  and  C_11
REMARK                            x       y       z     vdW  Elec       q    Type
REMARK                         _______ _______ _______ _____ _____    ______ ____
ROOT
ATOM      1  O   UNL     1     -18.691  39.328 -10.880  0.00  0.00    +0.000 OA
ATOM      2  N   UNL     1     -19.894  40.999  -9.811  0.00  0.00    +0.000 N 
ATOM      3  C   UNL     1     -19.118  40.479 -10.841  0.00  0.00    +0.000 C 
ATOM      4  H   UNL     1     -20.202  41.966  -9.860  0.00  0.00    +0.000 HD
ENDROOT
BRANCH   3   6
ATOM      5  N   UNL     1     -17.187  42.842 -13.073  0.00  0.00    +0.000 NA
ATOM      6  C   UNL     1     -18.779  41.416 -11.943  0.00  0.00    +0.000 A 
ATOM      7  C   UNL     1     -17.522  41.984 -12.084  0.00  0.00    +0.000 A 
ATOM      8  C   UNL     1     -19.753  41.751 -12.877  0.00  0.00    +0.000 A 
ATOM      9  C   UNL     1     -19.446  42.629 -13.909  0.00  0.00    +0.000 A 
ATOM     10  C   UNL     1     -18.159  43.144 -13.963  0.00  0.00    +0.000 A 
BRANCH   7  11
ATOM     11  N   UNL     1     -16.525  41.651 -11.133  0.00  0.00    +0.000 N 
ATOM     12  C   UNL     1     -15.252  42.292 -11.097  0.00  0.00    +0.000 C 
ATOM     13  H   UNL     1     -16.824  41.154 -10.301  0.00  0.00    +0.000 HD
ENDBRANCH   7  11
ENDBRANCH   3   6
BRANCH   2  14
ATOM     14  C   UNL     1     -20.283  40.226  -8.665  0.00  0.00    +0.000 C 
BRANCH  14  15
ATOM     15  C   UNL     1     -21.408  40.881  -7.872  0.00  0.00    +0.000 C 
BRANCH  15  19
ATOM     16  F   UNL     1     -21.167  41.513  -5.596  0.00  0.00    +0.000 F 
ATOM     17  F   UNL     1     -19.586  42.104  -6.983  0.00  0.00    +0.000 F 
ATOM     18  F   UNL     1     -21.530  43.088  -7.057  0.00  0.00    +0.000 F 
ATOM     19  C   UNL     1     -20.916  41.899  -6.864  0.00  0.00    +0.000 C 
ENDBRANCH  15  19
ENDBRANCH  14  15
ENDBRANCH   2  14
TORSDOF 5
ENDMDL
MODEL 2
REMARK VINA RESULT:    -6.239      1.387      2.682
REMARK INTER + INTRA:          -8.604
REMARK INTER:                  -7.968
REMARK INTRA:                  -0.637
REMARK UNBOUND:                -0.541
REMARK  Name = 55167267
REMARK  6 active torsions:
REMARK  status: ('A' for Active; 'I' for Inactive)
REMARK    1  A    between atoms: N_5  and  C_8
REMARK    2  A    between atoms: N_6  and  C_13
REMARK    3  A    between atoms: N_6  and  C_17
REMARK    4  A    between atoms: C_8  and  C_9
REMARK    5  A    between atoms: C_9  and  C_12
REMARK    6  A    between atoms: C_10  and  C_11
REMARK                            x       y       z     vdW  Elec       q    Type
REMARK                         _______ _______ _______ _____ _____    ______ ____
ROOT
ATOM      1  O   UNL     1     -19.659  40.755 -12.240  0.00  0.00    +0.000 OA
ATOM      2  N   UNL     1     -18.881  41.302 -10.124  0.00  0.00    +0.000 N 
ATOM      3  C   UNL     1     -18.917  41.406 -11.510  0.00  0.00    +0.000 C 
ATOM      4  H   UNL     1     -18.231  41.879  -9.598  0.00  0.00    +0.000 HD
ENDROOT
BRANCH   3   6
ATOM      5  N   UNL     1     -17.479  44.160 -13.666  0.00  0.00    +0.000 NA
ATOM      6  C   UNL     1     -17.959  42.365 -12.118  0.00  0.00    +0.000 A 
ATOM      7  C   UNL     1     -18.330  43.279 -13.092  0.00  0.00    +0.000 A 
ATOM      8  C   UNL     1     -16.631  42.355 -11.708  0.00  0.00    +0.000 A 
ATOM      9  C   UNL     1     -15.726  43.246 -12.274  0.00  0.00    +0.000 A 
ATOM     10  C   UNL     1     -16.196  44.121 -13.241  0.00  0.00    +0.000 A 
BRANCH   7  11
ATOM     11  N   UNL     1     -19.681  43.293 -13.519  0.00  0.00    +0.000 N 
ATOM     12  C   UNL     1     -20.058  43.130 -14.885  0.00  0.00    +0.000 C 
ATOM     13  H   UNL     1     -20.392  43.136 -12.814  0.00  0.00    +0.000 HD
ENDBRANCH   7  11
ENDBRANCH   3   6
BRANCH   2  14
ATOM     14  C   UNL     1     -19.727  40.401  -9.392  0.00  0.00    +0.000 C 
BRANCH  14  15
ATOM     15  C   UNL     1     -19.526  40.506  -7.883  0.00  0.00    +0.000 C 
BRANCH  15  19
ATOM     16  F   UNL     1     -21.376  41.995  -7.891  0.00  0.00    +0.000 F 
ATOM     17  F   UNL     1     -20.472  41.515  -5.960  0.00  0.00    +0.000 F 
ATOM     18  F   UNL     1     -19.420  42.803  -7.371  0.00  0.00    +0.000 F 
ATOM     19  C   UNL     1     -20.211  41.711  -7.271  0.00  0.00    +0.000 C 
ENDBRANCH  15  19
ENDBRANCH  14  15
ENDBRANCH   2  14
TORSDOF 5
ENDMDL
MODEL 3
REMARK VINA RESULT:    -6.000      5.028      6.804
REMARK INTER + INTRA:          -8.295
REMARK INTER:                  -7.671
REMARK INTRA:                  -0.625
REMARK UNBOUND:                -0.541
REMARK  Name = 55167267
REMARK  6 active torsions:
REMARK  status: ('A' for Active; 'I' for Inactive)
REMARK    1  A    between atoms: N_5  and  C_8
REMARK    2  A    between atoms: N_6  and  C_13
REMARK    3  A    between atoms: N_6  and  C_17
REMARK    4  A    between atoms: C_8  and  C_9
REMARK    5  A    between atoms: C_9  and  C_12
REMARK    6  A    between atoms: C_10  and  C_11
REMARK                            x       y       z     vdW  Elec       q    Type
REMARK                         _______ _______ _______ _____ _____    ______ ____
ROOT
ATOM      1  O   UNL     1     -18.850  44.120 -13.165  0.00  0.00    +0.000 OA
ATOM      2  N   UNL     1     -19.305  42.738 -14.973  0.00  0.00    +0.000 N 
ATOM      3  C   UNL     1     -18.908  43.000 -13.666  0.00  0.00    +0.000 C 
ATOM      4  H   UNL     1     -19.320  41.779 -15.306  0.00  0.00    +0.000 HD
ENDROOT
BRANCH   3   6
ATOM      5  N   UNL     1     -16.800  40.496 -11.774  0.00  0.00    +0.000 NA
ATOM      6  C   UNL     1     -18.509  41.821 -12.855  0.00  0.00    +0.000 A 
ATOM      7  C   UNL     1     -17.193  41.562 -12.506  0.00  0.00    +0.000 A 
ATOM      8  C   UNL     1     -19.484  40.928 -12.425  0.00  0.00    +0.000 A 
ATOM      9  C   UNL     1     -19.120  39.820 -11.669  0.00  0.00    +0.000 A 
ATOM     10  C   UNL     1     -17.776  39.650 -11.373  0.00  0.00    +0.000 A 
BRANCH   7  11
ATOM     11  N   UNL     1     -16.193  42.465 -12.944  0.00  0.00    +0.000 N 
ATOM     12  C   UNL     1     -15.438  43.274 -12.044  0.00  0.00    +0.000 C 
ATOM     13  H   UNL     1     -15.819  42.327 -13.877  0.00  0.00    +0.000 HD
ENDBRANCH   7  11
ENDBRANCH   3   6
BRANCH   2  14
ATOM     14  C   UNL     1     -19.695  43.776 -15.887  0.00  0.00    +0.000 C 
BRANCH  14  15
ATOM     15  C   UNL     1     -19.903  43.256 -17.306  0.00  0.00    +0.000 C 
BRANCH  15  19
ATOM     16  F   UNL     1     -21.525  41.633 -17.915  0.00  0.00    +0.000 F 
ATOM     17  F   UNL     1     -22.158  43.244 -16.582  0.00  0.00    +0.000 F 
ATOM     18  F   UNL     1     -21.769  43.656 -18.687  0.00  0.00    +0.000 F 
ATOM     19  C   UNL     1     -21.351  42.938 -17.621  0.00  0.00    +0.000 C 
ENDBRANCH  15  19
ENDBRANCH  14  15
ENDBRANCH   2  14
TORSDOF 5
ENDMDL
MODEL 4
REMARK VINA RESULT:    -5.927      3.005      4.628
REMARK INTER + INTRA:          -8.200
REMARK INTER:                  -7.393
REMARK INTRA:                  -0.807
REMARK UNBOUND:                -0.541
REMARK  Name = 55167267
REMARK  6 active torsions:
REMARK  status: ('A' for Active; 'I' for Inactive)
REMARK    1  A    between atoms: N_5  and  C_8
REMARK    2  A    between atoms: N_6  and  C_13
REMARK    3  A    between atoms: N_6  and  C_17
REMARK    4  A    between atoms: C_8  and  C_9
REMARK    5  A    between atoms: C_9  and  C_12
REMARK    6  A    between atoms: C_10  and  C_11
REMARK                            x       y       z     vdW  Elec       q    Type
REMARK                         _______ _______ _______ _____ _____    ______ ____
ROOT
ATOM      1  O   UNL     1     -19.829  41.506 -13.304  0.00  0.00    +0.000 OA
ATOM      2  N   UNL     1     -17.512  41.575 -13.209  0.00  0.00    +0.000 N 
ATOM      3  C   UNL     1     -18.769  42.090 -13.510  0.00  0.00    +0.000 C 
ATOM      4  H   UNL     1     -16.686  42.127 -13.418  0.00  0.00    +0.000 HD
ENDROOT
BRANCH   3   6
ATOM      5  N   UNL     1     -19.477  44.890 -15.950  0.00  0.00    +0.000 NA
ATOM      6  C   UNL     1     -18.791  43.431 -14.148  0.00  0.00    +0.000 A 
ATOM      7  C   UNL     1     -19.444  43.682 -15.345  0.00  0.00    +0.000 A 
ATOM      8  C   UNL     1     -18.130  44.489 -13.534  0.00  0.00    +0.000 A 
ATOM      9  C   UNL     1     -18.142  45.747 -14.124  0.00  0.00    +0.000 A 
ATOM     10  C   UNL     1     -18.824  45.894 -15.323  0.00  0.00    +0.000 A 
BRANCH   7  11
ATOM     11  N   UNL     1     -20.116  42.608 -15.980  0.00  0.00    +0.000 N 
ATOM     12  C   UNL     1     -20.704  42.725 -17.274  0.00  0.00    +0.000 C 
ATOM     13  H   UNL     1     -19.931  41.673 -15.631  0.00  0.00    +0.000 HD
ENDBRANCH   7  11
ENDBRANCH   3   6
BRANCH   2  14
ATOM     14  C   UNL     1     -17.326  40.281 -12.615  0.00  0.00    +0.000 C 
BRANCH  14  15
ATOM     15  C   UNL     1     -16.926  40.365 -11.145  0.00  0.00    +0.000 C 
BRANCH  15  19
ATOM     16  F   UNL     1     -17.751  40.255  -8.922  0.00  0.00    +0.000 F 
ATOM     17  F   UNL     1     -18.712  41.663 -10.289  0.00  0.00    +0.000 F 
ATOM     18  F   UNL     1     -19.035  39.519 -10.521  0.00  0.00    +0.000 F 
ATOM     19  C   UNL     1     -18.112  40.456 -10.206  0.00  0.00    +0.000 C 
ENDBRANCH  15  19
ENDBRANCH  14  15
ENDBRANCH   2  14
TORSDOF 5
ENDMDL
MODEL 5
REMARK VINA RESULT:    -5.899      1.787      2.039
REMARK INTER + INTRA:          -8.164
REMARK INTER:                  -7.582
REMARK INTRA:                  -0.582
REMARK UNBOUND:                -0.541
REMARK  Name = 55167267
REMARK  6 active torsions:
REMARK  status: ('A' for Active; 'I' for Inactive)
REMARK    1  A    between atoms: N_5  and  C_8
REMARK    2  A    between atoms: N_6  and  C_13
REMARK    3  A    between atoms: N_6  and  C_17
REMARK    4  A    between atoms: C_8  and  C_9
REMARK    5  A    between atoms: C_9  and  C_12
REMARK    6  A    between atoms: C_10  and  C_11
REMARK                            x       y       z     vdW  Elec       q    Type
REMARK                         _______ _______ _______ _____ _____    ______ ____
ROOT
ATOM      1  O   UNL     1     -18.107  42.134  -8.666  0.00  0.00    +0.000 OA
ATOM      2  N   UNL     1     -19.535  40.371  -9.151  0.00  0.00    +0.000 N 
ATOM      3  C   UNL     1     -18.522  41.278  -9.442  0.00  0.00    +0.000 C 
ATOM      4  H   UNL     1     -19.818  39.697  -9.856  0.00  0.00    +0.000 HD
ENDROOT
BRANCH   3   6
ATOM      5  N   UNL     1     -17.047  42.263 -12.782  0.00  0.00    +0.000 NA
ATOM      6  C   UNL     1     -17.940  41.191 -10.806  0.00  0.00    +0.000 A 
ATOM      7  C   UNL     1     -17.575  42.311 -11.538  0.00  0.00    +0.000 A 
ATOM      8  C   UNL     1     -17.750  39.944 -11.389  0.00  0.00    +0.000 A 
ATOM      9  C   UNL     1     -17.210  39.853 -12.667  0.00  0.00    +0.000 A 
ATOM     10  C   UNL     1     -16.878  41.032 -13.316  0.00  0.00    +0.000 A 
BRANCH   7  11
ATOM     11  N   UNL     1     -17.768  43.587 -10.952  0.00  0.00    +0.000 N 
ATOM     12  C   UNL     1     -17.424  44.800 -11.619  0.00  0.00    +0.000 C 
ATOM     13  H   UNL     1     -18.413  43.647 -10.172  0.00  0.00    +0.000 HD
ENDBRANCH   7  11
ENDBRANCH   3   6
BRANCH   2  14
ATOM     14  C   UNL     1     -20.213  40.346  -7.884  0.00  0.00    +0.000 C 
BRANCH  14  15
ATOM     15  C   UNL     1     -21.482  41.193  -7.884  0.00  0.00    +0.000 C 
BRANCH  15  19
ATOM     16  F   UNL     1     -22.085  41.597  -5.624  0.00  0.00    +0.000 F 
ATOM     17  F   UNL     1     -20.326  42.634  -6.402  0.00  0.00    +0.000 F 
ATOM     18  F   UNL     1     -22.323  43.228  -7.048  0.00  0.00    +0.000 F 
ATOM     19  C   UNL     1     -21.552  42.166  -6.725  0.00  0.00    +0.000 C 
ENDBRANCH  15  19
ENDBRANCH  14  15
ENDBRANCH   2  14
TORSDOF 5
ENDMDL
