MODEL 1
REMARK VINA RESULT:    -6.485      0.000      0.000
REMARK INTER + INTRA:          -8.758
REMARK INTER:                  -8.381
REMARK INTRA:                  -0.377
REMARK UNBOUND:                -0.377
REMARK  Name = 55174569
REMARK  6 active torsions:
REMARK  status: ('A' for Active; 'I' for Inactive)
REMARK    1  A    between atoms: N_5  and  C_8
REMARK    2  A    between atoms: N_6  and  C_16
REMARK    3  A    between atoms: C_8  and  C_9
REMARK    4  A    between atoms: C_9  and  C_12
REMARK    5  A    between atoms: C_10  and  C_11
REMARK    6  A    between atoms: C_16  and  C_18
REMARK                            x       y       z     vdW  Elec       q    Type
REMARK                         _______ _______ _______ _____ _____    ______ ____
ROOT
ATOM      1  N   UNL     1     -18.141  44.172 -14.736  0.00  0.00    +0.000 N 
ATOM      2  N   UNL     1     -19.108  42.200 -13.814  0.00  0.00    +0.000 NA
ATOM      3  C   UNL     1     -18.741  41.674 -11.482  0.00  0.00    +0.000 A 
ATOM      4  C   UNL     1     -18.355  43.308 -13.634  0.00  0.00    +0.000 A 
ATOM      5  C   UNL     1     -17.973  42.824 -11.337  0.00  0.00    +0.000 A 
ATOM      6  C   UNL     1     -17.771  43.662 -12.428  0.00  0.00    +0.000 A 
ATOM      7  C   UNL     1     -19.282  41.410 -12.731  0.00  0.00    +0.000 A 
ATOM      8  H   UNL     1     -18.574  43.902 -15.612  0.00  0.00    +0.000 HD
ENDROOT
BRANCH   3  11
ATOM      9  O   UNL     1     -18.884  39.546 -10.508  0.00  0.00    +0.000 OA
ATOM     10  N   UNL     1     -19.265  41.364  -9.119  0.00  0.00    +0.000 N 
ATOM     11  C   UNL     1     -18.975  40.759 -10.336  0.00  0.00    +0.000 C 
ATOM     12  H   UNL     1     -19.276  42.375  -9.036  0.00  0.00    +0.000 HD
BRANCH  10  13
ATOM     13  C   UNL     1     -19.492  40.615  -7.914  0.00  0.00    +0.000 C 
BRANCH  13  14
ATOM     14  C   UNL     1     -20.121  41.457  -6.810  0.00  0.00    +0.000 C 
BRANCH  14  18
ATOM     15  F   UNL     1     -21.885  42.955  -7.312  0.00  0.00    +0.000 F 
ATOM     16  F   UNL     1     -22.075  40.896  -8.001  0.00  0.00    +0.000 F 
ATOM     17  F   UNL     1     -22.305  41.356  -5.884  0.00  0.00    +0.000 F 
ATOM     18  C   UNL     1     -21.610  41.671  -6.996  0.00  0.00    +0.000 C 
ENDBRANCH  14  18
ENDBRANCH  13  14
ENDBRANCH  10  13
ENDBRANCH   3  11
BRANCH   1  19
ATOM     19  C   UNL     1     -17.361  45.363 -14.641  0.00  0.00    +0.000 C 
ATOM     20  C   UNL     1     -18.248  46.582 -14.814  0.00  0.00    +0.000 C 
ENDBRANCH   1  19
TORSDOF 5
ENDMDL
MODEL 2
REMARK VINA RESULT:    -6.366      1.824      2.176
REMARK INTER + INTRA:          -8.603
REMARK INTER:                  -8.169
REMARK INTRA:                  -0.434
REMARK UNBOUND:                -0.377
REMARK  Name = 55174569
REMARK  6 active torsions:
REMARK  status: ('A' for Active; 'I' for Inactive)
REMARK    1  A    between atoms: N_5  and  C_8
REMARK    2  A    between atoms: N_6  and  C_16
REMARK    3  A    between atoms: C_8  and  C_9
REMARK    4  A    between atoms: C_9  and  C_12
REMARK    5  A    between atoms: C_10  and  C_11
REMARK    6  A    between atoms: C_16  and  C_18
REMARK                            x       y       z     vdW  Elec       q    Type
REMARK                         _______ _______ _______ _____ _____    ______ ____
ROOT
ATOM      1  N   UNL     1     -19.840  43.807 -16.047  0.00  0.00    +0.000 N 
ATOM      2  N   UNL     1     -19.813  42.228 -14.263  0.00  0.00    +0.000 NA
ATOM      3  C   UNL     1     -18.446  42.657 -12.315  0.00  0.00    +0.000 A 
ATOM      4  C   UNL     1     -19.372  43.400 -14.772  0.00  0.00    +0.000 A 
ATOM      5  C   UNL     1     -18.016  43.856 -12.873  0.00  0.00    +0.000 A 
ATOM      6  C   UNL     1     -18.483  44.242 -14.124  0.00  0.00    +0.000 A 
ATOM      7  C   UNL     1     -19.338  41.887 -13.045  0.00  0.00    +0.000 A 
ATOM      8  H   UNL     1     -20.491  43.183 -16.509  0.00  0.00    +0.000 HD
ENDROOT
BRANCH   3  11
ATOM      9  O   UNL     1     -16.950  42.723 -10.512  0.00  0.00    +0.000 OA
ATOM     10  N   UNL     1     -18.738  41.257 -10.338  0.00  0.00    +0.000 N 
ATOM     11  C   UNL     1     -17.966  42.217 -10.981  0.00  0.00    +0.000 C 
ATOM     12  H   UNL     1     -19.595  40.917 -10.761  0.00  0.00    +0.000 HD
BRANCH  10  13
ATOM     13  C   UNL     1     -18.417  40.749  -9.033  0.00  0.00    +0.000 C 
BRANCH  13  14
ATOM     14  C   UNL     1     -19.659  40.444  -8.202  0.00  0.00    +0.000 C 
BRANCH  14  18
ATOM     15  F   UNL     1     -21.373  42.045  -7.879  0.00  0.00    +0.000 F 
ATOM     16  F   UNL     1     -20.308  41.329  -6.117  0.00  0.00    +0.000 F 
ATOM     17  F   UNL     1     -19.319  42.688  -7.504  0.00  0.00    +0.000 F 
ATOM     18  C   UNL     1     -20.167  41.642  -7.425  0.00  0.00    +0.000 C 
ENDBRANCH  14  18
ENDBRANCH  13  14
ENDBRANCH  10  13
ENDBRANCH   3  11
BRANCH   1  19
ATOM     19  C   UNL     1     -19.431  45.027 -16.663  0.00  0.00    +0.000 C 
ATOM     20  C   UNL     1     -20.644  45.866 -17.017  0.00  0.00    +0.000 C 
ENDBRANCH   1  19
TORSDOF 5
ENDMDL
MODEL 3
REMARK VINA RESULT:    -6.230      4.694      7.270
REMARK INTER + INTRA:          -8.428
REMARK INTER:                  -7.802
REMARK INTRA:                  -0.626
REMARK UNBOUND:                -0.377
REMARK  Name = 55174569
REMARK  6 active torsions:
REMARK  status: ('A' for Active; 'I' for Inactive)
REMARK    1  A    between atoms: N_5  and  C_8
REMARK    2  A    between atoms: N_6  and  C_16
REMARK    3  A    between atoms: C_8  and  C_9
REMARK    4  A    between atoms: C_9  and  C_12
REMARK    5  A    between atoms: C_10  and  C_11
REMARK    6  A    between atoms: C_16  and  C_18
REMARK                            x       y       z     vdW  Elec       q    Type
REMARK                         _______ _______ _______ _____ _____    ______ ____
ROOT
ATOM      1  N   UNL     1     -17.746  41.773  -9.747  0.00  0.00    +0.000 N 
ATOM      2  N   UNL     1     -17.578  43.468 -11.413  0.00  0.00    +0.000 NA
ATOM      3  C   UNL     1     -18.736  43.186 -13.517  0.00  0.00    +0.000 A 
ATOM      4  C   UNL     1     -18.075  42.269 -11.033  0.00  0.00    +0.000 A 
ATOM      5  C   UNL     1     -19.228  41.958 -13.089  0.00  0.00    +0.000 A 
ATOM      6  C   UNL     1     -18.896  41.484 -11.825  0.00  0.00    +0.000 A 
ATOM      7  C   UNL     1     -17.923  43.896 -12.647  0.00  0.00    +0.000 A 
ATOM      8  H   UNL     1     -17.147  42.358  -9.177  0.00  0.00    +0.000 HD
ENDROOT
BRANCH   3  11
ATOM      9  O   UNL     1     -18.933  44.920 -15.082  0.00  0.00    +0.000 OA
ATOM     10  N   UNL     1     -19.508  42.791 -15.798  0.00  0.00    +0.000 N 
ATOM     11  C   UNL     1     -19.072  43.720 -14.861  0.00  0.00    +0.000 C 
ATOM     12  H   UNL     1     -19.553  41.805 -15.563  0.00  0.00    +0.000 HD
BRANCH  10  13
ATOM     13  C   UNL     1     -19.848  43.149 -17.147  0.00  0.00    +0.000 C 
BRANCH  13  14
ATOM     14  C   UNL     1     -21.326  42.937 -17.455  0.00  0.00    +0.000 C 
BRANCH  14  18
ATOM     15  F   UNL     1     -22.609  43.576 -15.570  0.00  0.00    +0.000 F 
ATOM     16  F   UNL     1     -21.574  45.146 -16.673  0.00  0.00    +0.000 F 
ATOM     17  F   UNL     1     -23.337  44.198 -17.534  0.00  0.00    +0.000 F 
ATOM     18  C   UNL     1     -22.226  43.969 -16.804  0.00  0.00    +0.000 C 
ENDBRANCH  14  18
ENDBRANCH  13  14
ENDBRANCH  10  13
ENDBRANCH   3  11
BRANCH   1  19
ATOM     19  C   UNL     1     -18.224  40.520  -9.260  0.00  0.00    +0.000 C 
ATOM     20  C   UNL     1     -19.220  40.741  -8.137  0.00  0.00    +0.000 C 
ENDBRANCH   1  19
TORSDOF 5
ENDMDL
MODEL 4
REMARK VINA RESULT:    -5.502      4.156      5.409
REMARK INTER + INTRA:          -7.486
REMARK INTER:                  -6.921
REMARK INTRA:                  -0.565
REMARK UNBOUND:                -0.377
REMARK  Name = 55174569
REMARK  6 active torsions:
REMARK  status: ('A' for Active; 'I' for Inactive)
REMARK    1  A    between atoms: N_5  and  C_8
REMARK    2  A    between atoms: N_6  and  C_16
REMARK    3  A    between atoms: C_8  and  C_9
REMARK    4  A    between atoms: C_9  and  C_12
REMARK    5  A    between atoms: C_10  and  C_11
REMARK    6  A    between atoms: C_16  and  C_18
REMARK                            x       y       z     vdW  Elec       q    Type
REMARK                         _______ _______ _______ _____ _____    ______ ____
ROOT
ATOM      1  N   UNL     1     -20.290  45.260 -18.147  0.00  0.00    +0.000 N 
ATOM      2  N   UNL     1     -19.154  45.292 -16.053  0.00  0.00    +0.000 NA
ATOM      3  C   UNL     1     -19.402  43.424 -14.538  0.00  0.00    +0.000 A 
ATOM      4  C   UNL     1     -19.977  44.646 -16.909  0.00  0.00    +0.000 A 
ATOM      5  C   UNL     1     -20.245  42.791 -15.445  0.00  0.00    +0.000 A 
ATOM      6  C   UNL     1     -20.543  43.407 -16.656  0.00  0.00    +0.000 A 
ATOM      7  C   UNL     1     -18.887  44.662 -14.888  0.00  0.00    +0.000 A 
ATOM      8  H   UNL     1     -19.869  46.165 -18.321  0.00  0.00    +0.000 HD
ENDROOT
BRANCH   3  11
ATOM      9  O   UNL     1     -18.345  43.396 -12.446  0.00  0.00    +0.000 OA
ATOM     10  N   UNL     1     -19.624  41.542 -12.999  0.00  0.00    +0.000 N 
ATOM     11  C   UNL     1     -19.064  42.793 -13.237  0.00  0.00    +0.000 C 
ATOM     12  H   UNL     1     -20.251  41.122 -13.676  0.00  0.00    +0.000 HD
BRANCH  10  13
ATOM     13  C   UNL     1     -19.411  40.816 -11.778  0.00  0.00    +0.000 C 
BRANCH  13  14
ATOM     14  C   UNL     1     -18.440  39.653 -11.951  0.00  0.00    +0.000 C 
BRANCH  14  18
ATOM     15  F   UNL     1     -16.151  39.076 -11.761  0.00  0.00    +0.000 F 
ATOM     16  F   UNL     1     -16.712  40.511 -13.304  0.00  0.00    +0.000 F 
ATOM     17  F   UNL     1     -16.719  41.112 -11.210  0.00  0.00    +0.000 F 
ATOM     18  C   UNL     1     -16.992  40.092 -12.049  0.00  0.00    +0.000 C 
ENDBRANCH  14  18
ENDBRANCH  13  14
ENDBRANCH  10  13
ENDBRANCH   3  11
BRANCH   1  19
ATOM     19  C   UNL     1     -21.149  44.654 -19.112  0.00  0.00    +0.000 C 
ATOM     20  C   UNL     1     -20.578  44.837 -20.506  0.00  0.00    +0.000 C 
ENDBRANCH   1  19
TORSDOF 5
ENDMDL
MODEL 5
REMARK VINA RESULT:    -5.460      3.152      4.363
REMARK INTER + INTRA:          -7.432
REMARK INTER:                  -6.828
REMARK INTRA:                  -0.604
REMARK UNBOUND:                -0.377
REMARK  Name = 55174569
REMARK  6 active torsions:
REMARK  status: ('A' for Active; 'I' for Inactive)
REMARK    1  A    between atoms: N_5  and  C_8
REMARK    2  A    between atoms: N_6  and  C_16
REMARK    3  A    between atoms: C_8  and  C_9
REMARK    4  A    between atoms: C_9  and  C_12
REMARK    5  A    between atoms: C_10  and  C_11
REMARK    6  A    between atoms: C_16  and  C_18
REMARK                            x       y       z     vdW  Elec       q    Type
REMARK                         _______ _______ _______ _____ _____    ______ ____
ROOT
ATOM      1  N   UNL     1     -20.940  45.102 -17.243  0.00  0.00    +0.000 N 
ATOM      2  N   UNL     1     -19.147  45.274 -15.683  0.00  0.00    +0.000 NA
ATOM      3  C   UNL     1     -18.783  43.494 -14.088  0.00  0.00    +0.000 A 
ATOM      4  C   UNL     1     -20.193  44.566 -16.165  0.00  0.00    +0.000 A 
ATOM      5  C   UNL     1     -19.866  42.795 -14.611  0.00  0.00    +0.000 A 
ATOM      6  C   UNL     1     -20.589  43.334 -15.669  0.00  0.00    +0.000 A 
ATOM      7  C   UNL     1     -18.468  44.718 -14.656  0.00  0.00    +0.000 A 
ATOM      8  H   UNL     1     -20.639  46.002 -17.597  0.00  0.00    +0.000 HD
ENDROOT
BRANCH   3  11
ATOM      9  O   UNL     1     -17.643  43.695 -12.050  0.00  0.00    +0.000 OA
ATOM     10  N   UNL     1     -17.716  41.583 -13.008  0.00  0.00    +0.000 N 
ATOM     11  C   UNL     1     -17.991  42.945 -12.959  0.00  0.00    +0.000 C 
ATOM     12  H   UNL     1     -18.077  41.012 -13.764  0.00  0.00    +0.000 HD
BRANCH  10  13
ATOM     13  C   UNL     1     -16.982  40.902 -11.978  0.00  0.00    +0.000 C 
BRANCH  13  14
ATOM     14  C   UNL     1     -17.846  39.921 -11.194  0.00  0.00    +0.000 C 
BRANCH  14  18
ATOM     15  F   UNL     1     -18.310  41.707  -9.710  0.00  0.00    +0.000 F 
ATOM     16  F   UNL     1     -19.936  40.984 -10.970  0.00  0.00    +0.000 F 
ATOM     17  F   UNL     1     -19.253  39.782  -9.286  0.00  0.00    +0.000 F 
ATOM     18  C   UNL     1     -18.841  40.601 -10.276  0.00  0.00    +0.000 C 
ENDBRANCH  14  18
ENDBRANCH  13  14
ENDBRANCH  10  13
ENDBRANCH   3  11
BRANCH   1  19
ATOM     19  C   UNL     1     -22.058  44.426 -17.816  0.00  0.00    +0.000 C 
ATOM     20  C   UNL     1     -23.352  45.011 -17.281  0.00  0.00    +0.000 C 
ENDBRANCH   1  19
TORSDOF 5
ENDMDL
