MODEL 1
REMARK VINA RESULT:    -5.766      0.000      0.000
REMARK INTER + INTRA:          -7.459
REMARK INTER:                  -7.283
REMARK INTRA:                  -0.175
REMARK UNBOUND:                -0.175
REMARK  Name = 56744367
REMARK  8 active torsions:
REMARK  status: ('A' for Active; 'I' for Inactive)
REMARK    1  A    between atoms: O_1  and  C_6
REMARK    2  A    between atoms: N_3  and  C_8
REMARK    3  A    between atoms: N_3  and  C_12
REMARK    4  A    between atoms: C_6  and  C_7
REMARK    5  A    between atoms: C_6  and  C_9
REMARK    6  A    between atoms: C_6  and  C_10
REMARK    7  A    between atoms: C_7  and  C_8
REMARK    8  A    between atoms: C_11  and  C_13
REMARK                            x       y       z     vdW  Elec       q    Type
REMARK                         _______ _______ _______ _____ _____    ______ ____
ROOT
ATOM      1  O   UNL     1     -18.862  41.264 -13.860  0.00  0.00    +0.000 OA
ATOM      2  N   UNL     1     -18.501  40.608 -11.624  0.00  0.00    +0.000 N 
ATOM      3  C   UNL     1     -18.388  41.464 -12.743  0.00  0.00    +0.000 C 
ATOM      4  C   UNL     1     -19.231  39.338 -11.696  0.00  0.00    +0.000 C 
ENDROOT
BRANCH   3   7
ATOM      5  N   UNL     1     -15.483  43.834 -12.563  0.00  0.00    +0.000 NA
ATOM      6  N   UNL     1     -15.391  46.172 -12.110  0.00  0.00    +0.000 N 
ATOM      7  C   UNL     1     -17.624  42.710 -12.572  0.00  0.00    +0.000 A 
ATOM      8  C   UNL     1     -18.263  43.907 -12.272  0.00  0.00    +0.000 A 
ATOM      9  C   UNL     1     -16.245  42.726 -12.706  0.00  0.00    +0.000 A 
ATOM     10  C   UNL     1     -17.515  45.069 -12.117  0.00  0.00    +0.000 A 
ATOM     11  C   UNL     1     -16.140  44.980 -12.271  0.00  0.00    +0.000 A 
ATOM     12  H   UNL     1     -14.388  46.103 -12.229  0.00  0.00    +0.000 HD
ATOM     13  H   UNL     1     -15.840  47.055 -12.319  0.00  0.00    +0.000 HD
ENDBRANCH   3   7
BRANCH   2  14
ATOM     14  C   UNL     1     -17.908  40.936 -10.356  0.00  0.00    +0.000 C 
BRANCH  14  15
ATOM     15  C   UNL     1     -18.843  41.803  -9.512  0.00  0.00    +0.000 C 
BRANCH  15  16
ATOM     16  C   UNL     1     -19.463  41.077  -8.302  0.00  0.00    +0.000 C 
ATOM     17  C   UNL     1     -20.770  40.366  -8.654  0.00  0.00    +0.000 C 
ATOM     18  C   UNL     1     -19.701  42.080  -7.167  0.00  0.00    +0.000 C 
BRANCH  16  19
ATOM     19  O   UNL     1     -18.528  40.102  -7.835  0.00  0.00    +0.000 OA
ATOM     20  H   UNL     1     -17.643  40.362  -8.142  0.00  0.00    +0.000 HD
ENDBRANCH  16  19
ENDBRANCH  15  16
ENDBRANCH  14  15
ENDBRANCH   2  14
TORSDOF 5
ENDMDL
MODEL 2
REMARK VINA RESULT:    -5.602      2.818      5.705
REMARK INTER + INTRA:          -7.251
REMARK INTER:                  -6.862
REMARK INTRA:                  -0.389
REMARK UNBOUND:                -0.175
REMARK  Name = 56744367
REMARK  8 active torsions:
REMARK  status: ('A' for Active; 'I' for Inactive)
REMARK    1  A    between atoms: O_1  and  C_6
REMARK    2  A    between atoms: N_3  and  C_8
REMARK    3  A    between atoms: N_3  and  C_12
REMARK    4  A    between atoms: C_6  and  C_7
REMARK    5  A    between atoms: C_6  and  C_9
REMARK    6  A    between atoms: C_6  and  C_10
REMARK    7  A    between atoms: C_7  and  C_8
REMARK    8  A    between atoms: C_11  and  C_13
REMARK                            x       y       z     vdW  Elec       q    Type
REMARK                         _______ _______ _______ _____ _____    ______ ____
ROOT
ATOM      1  O   UNL     1     -18.372  45.393 -12.362  0.00  0.00    +0.000 OA
ATOM      2  N   UNL     1     -16.173  44.552 -12.478  0.00  0.00    +0.000 N 
ATOM      3  C   UNL     1     -17.580  44.453 -12.412  0.00  0.00    +0.000 C 
ATOM      4  C   UNL     1     -15.491  45.851 -12.495  0.00  0.00    +0.000 C 
ENDROOT
BRANCH   3   7
ATOM      5  N   UNL     1     -19.168  41.265 -13.597  0.00  0.00    +0.000 NA
ATOM      6  N   UNL     1     -19.835  39.308 -12.412  0.00  0.00    +0.000 N 
ATOM      7  C   UNL     1     -18.168  43.104 -12.387  0.00  0.00    +0.000 A 
ATOM      8  C   UNL     1     -18.288  42.396 -11.196  0.00  0.00    +0.000 A 
ATOM      9  C   UNL     1     -18.619  42.499 -13.549  0.00  0.00    +0.000 A 
ATOM     10  C   UNL     1     -18.847  41.123 -11.204  0.00  0.00    +0.000 A 
ATOM     11  C   UNL     1     -19.267  40.606 -12.419  0.00  0.00    +0.000 A 
ATOM     12  H   UNL     1     -20.135  38.934 -13.302  0.00  0.00    +0.000 HD
ATOM     13  H   UNL     1     -19.543  38.659 -11.691  0.00  0.00    +0.000 HD
ENDBRANCH   3   7
BRANCH   2  14
ATOM     14  C   UNL     1     -15.333  43.386 -12.534  0.00  0.00    +0.000 C 
BRANCH  14  15
ATOM     15  C   UNL     1     -14.636  43.139 -11.196  0.00  0.00    +0.000 C 
BRANCH  15  16
ATOM     16  C   UNL     1     -13.105  42.986 -11.295  0.00  0.00    +0.000 C 
ATOM     17  C   UNL     1     -12.611  41.665 -10.703  0.00  0.00    +0.000 C 
ATOM     18  C   UNL     1     -12.423  44.164 -10.590  0.00  0.00    +0.000 C 
BRANCH  16  19
ATOM     19  O   UNL     1     -12.737  43.029 -12.675  0.00  0.00    +0.000 OA
ATOM     20  H   UNL     1     -13.491  43.384 -13.177  0.00  0.00    +0.000 HD
ENDBRANCH  16  19
ENDBRANCH  15  16
ENDBRANCH  14  15
ENDBRANCH   2  14
TORSDOF 5
ENDMDL
MODEL 3
REMARK VINA RESULT:    -5.307      3.000      6.437
REMARK INTER + INTRA:          -6.879
REMARK INTER:                  -6.624
REMARK INTRA:                  -0.255
REMARK UNBOUND:                -0.175
REMARK  Name = 56744367
REMARK  8 active torsions:
REMARK  status: ('A' for Active; 'I' for Inactive)
REMARK    1  A    between atoms: O_1  and  C_6
REMARK    2  A    between atoms: N_3  and  C_8
REMARK    3  A    between atoms: N_3  and  C_12
REMARK    4  A    between atoms: C_6  and  C_7
REMARK    5  A    between atoms: C_6  and  C_9
REMARK    6  A    between atoms: C_6  and  C_10
REMARK    7  A    between atoms: C_7  and  C_8
REMARK    8  A    between atoms: C_11  and  C_13
REMARK                            x       y       z     vdW  Elec       q    Type
REMARK                         _______ _______ _______ _____ _____    ______ ____
ROOT
ATOM      1  O   UNL     1     -15.615  43.315 -12.297  0.00  0.00    +0.000 OA
ATOM      2  N   UNL     1     -17.305  44.271 -13.635  0.00  0.00    +0.000 N 
ATOM      3  C   UNL     1     -16.741  43.288 -12.791  0.00  0.00    +0.000 C 
ATOM      4  C   UNL     1     -16.561  45.475 -14.019  0.00  0.00    +0.000 C 
ENDROOT
BRANCH   3   7
ATOM      5  N   UNL     1     -18.348  39.910 -13.102  0.00  0.00    +0.000 NA
ATOM      6  N   UNL     1     -19.852  38.749 -11.665  0.00  0.00    +0.000 N 
ATOM      7  C   UNL     1     -17.564  42.109 -12.474  0.00  0.00    +0.000 A 
ATOM      8  C   UNL     1     -18.315  42.052 -11.306  0.00  0.00    +0.000 A 
ATOM      9  C   UNL     1     -17.614  41.022 -13.332  0.00  0.00    +0.000 A 
ATOM     10  C   UNL     1     -19.083  40.925 -11.034  0.00  0.00    +0.000 A 
ATOM     11  C   UNL     1     -19.065  39.890 -11.955  0.00  0.00    +0.000 A 
ATOM     12  H   UNL     1     -19.831  37.993 -12.338  0.00  0.00    +0.000 HD
ATOM     13  H   UNL     1     -20.032  38.522 -10.694  0.00  0.00    +0.000 HD
ENDBRANCH   3   7
BRANCH   2  14
ATOM     14  C   UNL     1     -18.637  44.144 -14.161  0.00  0.00    +0.000 C 
BRANCH  14  15
ATOM     15  C   UNL     1     -18.923  45.215 -15.214  0.00  0.00    +0.000 C 
BRANCH  15  16
ATOM     16  C   UNL     1     -19.682  44.702 -16.453  0.00  0.00    +0.000 C 
ATOM     17  C   UNL     1     -19.915  43.191 -16.411  0.00  0.00    +0.000 C 
ATOM     18  C   UNL     1     -18.910  45.078 -17.723  0.00  0.00    +0.000 C 
BRANCH  16  19
ATOM     19  O   UNL     1     -20.953  45.355 -16.504  0.00  0.00    +0.000 OA
ATOM     20  H   UNL     1     -21.307  45.255 -17.404  0.00  0.00    +0.000 HD
ENDBRANCH  16  19
ENDBRANCH  15  16
ENDBRANCH  14  15
ENDBRANCH   2  14
TORSDOF 5
ENDMDL
MODEL 4
REMARK VINA RESULT:    -5.217      2.582      6.010
REMARK INTER + INTRA:          -6.765
REMARK INTER:                  -6.336
REMARK INTRA:                  -0.429
REMARK UNBOUND:                -0.175
REMARK  Name = 56744367
REMARK  8 active torsions:
REMARK  status: ('A' for Active; 'I' for Inactive)
REMARK    1  A    between atoms: O_1  and  C_6
REMARK    2  A    between atoms: N_3  and  C_8
REMARK    3  A    between atoms: N_3  and  C_12
REMARK    4  A    between atoms: C_6  and  C_7
REMARK    5  A    between atoms: C_6  and  C_9
REMARK    6  A    between atoms: C_6  and  C_10
REMARK    7  A    between atoms: C_7  and  C_8
REMARK    8  A    between atoms: C_11  and  C_13
REMARK                            x       y       z     vdW  Elec       q    Type
REMARK                         _______ _______ _______ _____ _____    ______ ____
ROOT
ATOM      1  O   UNL     1     -15.017  43.050 -11.697  0.00  0.00    +0.000 OA
ATOM      2  N   UNL     1     -16.648  44.715 -12.053  0.00  0.00    +0.000 N 
ATOM      3  C   UNL     1     -16.181  43.390 -11.900  0.00  0.00    +0.000 C 
ATOM      4  C   UNL     1     -15.741  45.865 -11.981  0.00  0.00    +0.000 C 
ENDROOT
BRANCH   3   7
ATOM      5  N   UNL     1     -18.201  40.570 -13.335  0.00  0.00    +0.000 NA
ATOM      6  N   UNL     1     -19.925  39.230 -12.381  0.00  0.00    +0.000 N 
ATOM      7  C   UNL     1     -17.169  42.304 -12.002  0.00  0.00    +0.000 A 
ATOM      8  C   UNL     1     -17.987  41.975 -10.927  0.00  0.00    +0.000 A 
ATOM      9  C   UNL     1     -17.315  41.578 -13.173  0.00  0.00    +0.000 A 
ATOM     10  C   UNL     1     -18.911  40.944 -11.053  0.00  0.00    +0.000 A 
ATOM     11  C   UNL     1     -18.978  40.278 -12.267  0.00  0.00    +0.000 A 
ATOM     12  H   UNL     1     -19.965  38.743 -13.267  0.00  0.00    +0.000 HD
ATOM     13  H   UNL     1     -20.188  38.725 -11.543  0.00  0.00    +0.000 HD
ENDBRANCH   3   7
BRANCH   2  14
ATOM     14  C   UNL     1     -18.036  45.007 -12.287  0.00  0.00    +0.000 C 
BRANCH  14  15
ATOM     15  C   UNL     1     -18.203  46.131 -13.309  0.00  0.00    +0.000 C 
BRANCH  15  16
ATOM     16  C   UNL     1     -18.319  45.651 -14.769  0.00  0.00    +0.000 C 
ATOM     17  C   UNL     1     -19.041  46.662 -15.661  0.00  0.00    +0.000 C 
ATOM     18  C   UNL     1     -19.046  44.302 -14.812  0.00  0.00    +0.000 C 
BRANCH  16  19
ATOM     19  O   UNL     1     -17.000  45.454 -15.284  0.00  0.00    +0.000 OA
ATOM     20  H   UNL     1     -16.945  45.897 -16.148  0.00  0.00    +0.000 HD
ENDBRANCH  16  19
ENDBRANCH  15  16
ENDBRANCH  14  15
ENDBRANCH   2  14
TORSDOF 5
ENDMDL
MODEL 5
REMARK VINA RESULT:    -5.210      3.696      6.788
REMARK INTER + INTRA:          -6.756
REMARK INTER:                  -6.478
REMARK INTRA:                  -0.278
REMARK UNBOUND:                -0.175
REMARK  Name = 56744367
REMARK  8 active torsions:
REMARK  status: ('A' for Active; 'I' for Inactive)
REMARK    1  A    between atoms: O_1  and  C_6
REMARK    2  A    between atoms: N_3  and  C_8
REMARK    3  A    between atoms: N_3  and  C_12
REMARK    4  A    between atoms: C_6  and  C_7
REMARK    5  A    between atoms: C_6  and  C_9
REMARK    6  A    between atoms: C_6  and  C_10
REMARK    7  A    between atoms: C_7  and  C_8
REMARK    8  A    between atoms: C_11  and  C_13
REMARK                            x       y       z     vdW  Elec       q    Type
REMARK                         _______ _______ _______ _____ _____    ______ ____
ROOT
ATOM      1  O   UNL     1     -18.170  45.144 -12.553  0.00  0.00    +0.000 OA
ATOM      2  N   UNL     1     -18.826  44.509 -14.726  0.00  0.00    +0.000 N 
ATOM      3  C   UNL     1     -18.456  44.282 -13.382  0.00  0.00    +0.000 C 
ATOM      4  C   UNL     1     -18.906  45.862 -15.286  0.00  0.00    +0.000 C 
ENDROOT
BRANCH   3   7
ATOM      5  N   UNL     1     -19.555  40.909 -12.154  0.00  0.00    +0.000 NA
ATOM      6  N   UNL     1     -18.307  38.954 -11.608  0.00  0.00    +0.000 N 
ATOM      7  C   UNL     1     -18.392  42.886 -12.920  0.00  0.00    +0.000 A 
ATOM      8  C   UNL     1     -17.175  42.224 -12.804  0.00  0.00    +0.000 A 
ATOM      9  C   UNL     1     -19.543  42.191 -12.585  0.00  0.00    +0.000 A 
ATOM     10  C   UNL     1     -17.146  40.905 -12.365  0.00  0.00    +0.000 A 
ATOM     11  C   UNL     1     -18.353  40.298 -12.055  0.00  0.00    +0.000 A 
ATOM     12  H   UNL     1     -19.192  38.514 -11.389  0.00  0.00    +0.000 HD
ATOM     13  H   UNL     1     -17.543  38.368 -11.922  0.00  0.00    +0.000 HD
ENDBRANCH   3   7
BRANCH   2  14
ATOM     14  C   UNL     1     -19.144  43.426 -15.618  0.00  0.00    +0.000 C 
BRANCH  14  15
ATOM     15  C   UNL     1     -20.562  43.561 -16.173  0.00  0.00    +0.000 C 
BRANCH  15  16
ATOM     16  C   UNL     1     -20.682  43.291 -17.685  0.00  0.00    +0.000 C 
ATOM     17  C   UNL     1     -19.382  43.588 -18.436  0.00  0.00    +0.000 C 
ATOM     18  C   UNL     1     -21.827  44.126 -18.269  0.00  0.00    +0.000 C 
BRANCH  16  19
ATOM     19  O   UNL     1     -21.007  41.911 -17.871  0.00  0.00    +0.000 OA
ATOM     20  H   UNL     1     -20.758  41.432 -17.062  0.00  0.00    +0.000 HD
ENDBRANCH  16  19
ENDBRANCH  15  16
ENDBRANCH  14  15
ENDBRANCH   2  14
TORSDOF 5
ENDMDL
