MODEL 1
REMARK VINA RESULT:    -6.237      0.000      0.000
REMARK INTER + INTRA:          -6.853
REMARK INTER:                  -6.784
REMARK INTRA:                  -0.069
REMARK UNBOUND:                -0.069
REMARK  Name = 57012646
REMARK  2 active torsions:
REMARK  status: ('A' for Active; 'I' for Inactive)
REMARK    1  A    between atoms: S_1  and  N_4
REMARK    2  A    between atoms: C_6  and  C_11
REMARK                            x       y       z     vdW  Elec       q    Type
REMARK                         _______ _______ _______ _____ _____    ______ ____
ROOT
ATOM      1  N   UNL     1     -19.264  42.314  -7.305  0.00  0.00    +0.000 NA
ATOM      2  N   UNL     1     -21.255  42.651  -6.038  0.00  0.00    +0.000 N 
ATOM      3  C   UNL     1     -19.275  40.735  -9.136  0.00  0.00    +0.000 A 
ATOM      4  C   UNL     1     -20.611  40.444  -8.888  0.00  0.00    +0.000 A 
ATOM      5  C   UNL     1     -21.275  41.086  -7.849  0.00  0.00    +0.000 A 
ATOM      6  C   UNL     1     -18.653  41.670  -8.323  0.00  0.00    +0.000 A 
ATOM      7  C   UNL     1     -20.564  42.004  -7.093  0.00  0.00    +0.000 A 
ATOM      8  H   UNL     1     -22.256  42.774  -6.123  0.00  0.00    +0.000 HD
ATOM      9  H   UNL     1     -20.733  43.325  -5.493  0.00  0.00    +0.000 HD
ENDROOT
BRANCH   3  12
ATOM     10  O   UNL     1     -19.122  39.232 -10.923  0.00  0.00    +0.000 OA
ATOM     11  N   UNL     1     -17.222  40.471 -10.408  0.00  0.00    +0.000 N 
ATOM     12  C   UNL     1     -18.553  40.081 -10.214  0.00  0.00    +0.000 C 
ATOM     13  H   UNL     1     -16.803  41.205  -9.844  0.00  0.00    +0.000 HD
BRANCH  11  14
ATOM     14  S   UNL     1     -16.258  39.841 -11.649  0.00  0.00    +0.000 S 
ATOM     15  H   UNL     1     -15.107  40.438 -11.307  0.00  0.00    +0.000 HD
ENDBRANCH  11  14
ENDBRANCH   3  12
TORSDOF 2
ENDMDL
MODEL 2
REMARK VINA RESULT:    -5.887      1.862      2.264
REMARK INTER + INTRA:          -6.472
REMARK INTER:                  -6.406
REMARK INTRA:                  -0.065
REMARK UNBOUND:                -0.069
REMARK  Name = 57012646
REMARK  2 active torsions:
REMARK  status: ('A' for Active; 'I' for Inactive)
REMARK    1  A    between atoms: S_1  and  N_4
REMARK    2  A    between atoms: C_6  and  C_11
REMARK                            x       y       z     vdW  Elec       q    Type
REMARK                         _______ _______ _______ _____ _____    ______ ____
ROOT
ATOM      1  N   UNL     1     -22.277  41.325  -7.369  0.00  0.00    +0.000 NA
ATOM      2  N   UNL     1     -22.567  42.761  -5.488  0.00  0.00    +0.000 N 
ATOM      3  C   UNL     1     -20.081  41.080  -8.349  0.00  0.00    +0.000 A 
ATOM      4  C   UNL     1     -19.555  41.960  -7.411  0.00  0.00    +0.000 A 
ATOM      5  C   UNL     1     -20.389  42.523  -6.451  0.00  0.00    +0.000 A 
ATOM      6  C   UNL     1     -21.436  40.797  -8.285  0.00  0.00    +0.000 A 
ATOM      7  C   UNL     1     -21.730  42.178  -6.473  0.00  0.00    +0.000 A 
ATOM      8  H   UNL     1     -22.155  43.025  -4.602  0.00  0.00    +0.000 HD
ATOM      9  H   UNL     1     -23.545  42.500  -5.504  0.00  0.00    +0.000 HD
ENDROOT
BRANCH   3  12
ATOM     10  O   UNL     1     -18.014  40.347  -9.166  0.00  0.00    +0.000 OA
ATOM     11  N   UNL     1     -19.871  40.040 -10.534  0.00  0.00    +0.000 N 
ATOM     12  C   UNL     1     -19.236  40.474  -9.364  0.00  0.00    +0.000 C 
ATOM     13  H   UNL     1     -20.878  40.112 -10.642  0.00  0.00    +0.000 HD
BRANCH  11  14
ATOM     14  S   UNL     1     -19.039  39.272 -11.793  0.00  0.00    +0.000 S 
ATOM     15  H   UNL     1     -19.788  39.724 -12.810  0.00  0.00    +0.000 HD
ENDBRANCH  11  14
ENDBRANCH   3  12
TORSDOF 2
ENDMDL
MODEL 3
REMARK VINA RESULT:    -5.824      3.204      5.013
REMARK INTER + INTRA:          -6.403
REMARK INTER:                  -6.340
REMARK INTRA:                  -0.063
REMARK UNBOUND:                -0.069
REMARK  Name = 57012646
REMARK  2 active torsions:
REMARK  status: ('A' for Active; 'I' for Inactive)
REMARK    1  A    between atoms: S_1  and  N_4
REMARK    2  A    between atoms: C_6  and  C_11
REMARK                            x       y       z     vdW  Elec       q    Type
REMARK                         _______ _______ _______ _____ _____    ______ ____
ROOT
ATOM      1  N   UNL     1     -19.027  39.390 -10.854  0.00  0.00    +0.000 NA
ATOM      2  N   UNL     1     -17.211  39.496 -12.396  0.00  0.00    +0.000 N 
ATOM      3  C   UNL     1     -19.213  41.066  -9.122  0.00  0.00    +0.000 A 
ATOM      4  C   UNL     1     -18.059  41.686  -9.587  0.00  0.00    +0.000 A 
ATOM      5  C   UNL     1     -17.388  41.160 -10.684  0.00  0.00    +0.000 A 
ATOM      6  C   UNL     1     -19.651  39.931  -9.785  0.00  0.00    +0.000 A 
ATOM      7  C   UNL     1     -17.907  40.020 -11.278  0.00  0.00    +0.000 A 
ATOM      8  H   UNL     1     -16.676  40.133 -12.971  0.00  0.00    +0.000 HD
ATOM      9  H   UNL     1     -17.598  38.667 -12.829  0.00  0.00    +0.000 HD
ENDROOT
BRANCH   3  12
ATOM     10  O   UNL     1     -19.332  42.219  -7.089  0.00  0.00    +0.000 OA
ATOM     11  N   UNL     1     -21.319  41.368  -7.950  0.00  0.00    +0.000 N 
ATOM     12  C   UNL     1     -19.937  41.591  -7.977  0.00  0.00    +0.000 C 
ATOM     13  H   UNL     1     -21.789  40.896  -8.717  0.00  0.00    +0.000 HD
BRANCH  11  14
ATOM     14  S   UNL     1     -22.315  41.955  -6.712  0.00  0.00    +0.000 S 
ATOM     15  H   UNL     1     -21.719  43.145  -6.548  0.00  0.00    +0.000 HD
ENDBRANCH  11  14
ENDBRANCH   3  12
TORSDOF 2
ENDMDL
MODEL 4
REMARK VINA RESULT:    -5.502      2.707      4.847
REMARK INTER + INTRA:          -6.054
REMARK INTER:                  -5.990
REMARK INTRA:                  -0.064
REMARK UNBOUND:                -0.069
REMARK  Name = 57012646
REMARK  2 active torsions:
REMARK  status: ('A' for Active; 'I' for Inactive)
REMARK    1  A    between atoms: S_1  and  N_4
REMARK    2  A    between atoms: C_6  and  C_11
REMARK                            x       y       z     vdW  Elec       q    Type
REMARK                         _______ _______ _______ _____ _____    ______ ____
ROOT
ATOM      1  N   UNL     1     -16.889  40.469 -10.921  0.00  0.00    +0.000 NA
ATOM      2  N   UNL     1     -16.476  39.748 -13.156  0.00  0.00    +0.000 N 
ATOM      3  C   UNL     1     -19.118  40.281 -10.006  0.00  0.00    +0.000 A 
ATOM      4  C   UNL     1     -19.572  39.736 -11.202  0.00  0.00    +0.000 A 
ATOM      5  C   UNL     1     -18.686  39.558 -12.257  0.00  0.00    +0.000 A 
ATOM      6  C   UNL     1     -17.779  40.627  -9.918  0.00  0.00    +0.000 A 
ATOM      7  C   UNL     1     -17.366  39.937 -12.070  0.00  0.00    +0.000 A 
ATOM      8  H   UNL     1     -16.671  39.004 -13.814  0.00  0.00    +0.000 HD
ATOM      9  H   UNL     1     -15.512  40.020 -13.011  0.00  0.00    +0.000 HD
ENDROOT
BRANCH   3  12
ATOM     10  O   UNL     1     -20.988  39.717  -8.716  0.00  0.00    +0.000 OA
ATOM     11  N   UNL     1     -19.724  41.543  -8.021  0.00  0.00    +0.000 N 
ATOM     12  C   UNL     1     -20.019  40.481  -8.884  0.00  0.00    +0.000 C 
ATOM     13  H   UNL     1     -18.896  42.115  -8.157  0.00  0.00    +0.000 HD
BRANCH  11  14
ATOM     14  S   UNL     1     -20.646  41.881  -6.641  0.00  0.00    +0.000 S 
ATOM     15  H   UNL     1     -19.904  42.894  -6.170  0.00  0.00    +0.000 HD
ENDBRANCH  11  14
ENDBRANCH   3  12
TORSDOF 2
ENDMDL
MODEL 5
REMARK VINA RESULT:    -4.837      4.615      5.025
REMARK INTER + INTRA:          -5.330
REMARK INTER:                  -5.271
REMARK INTRA:                  -0.059
REMARK UNBOUND:                -0.069
REMARK  Name = 57012646
REMARK  2 active torsions:
REMARK  status: ('A' for Active; 'I' for Inactive)
REMARK    1  A    between atoms: S_1  and  N_4
REMARK    2  A    between atoms: C_6  and  C_11
REMARK                            x       y       z     vdW  Elec       q    Type
REMARK                         _______ _______ _______ _____ _____    ______ ____
ROOT
ATOM      1  N   UNL     1     -18.777  40.943 -13.112  0.00  0.00    +0.000 NA
ATOM      2  N   UNL     1     -19.973  38.981 -12.479  0.00  0.00    +0.000 N 
ATOM      3  C   UNL     1     -16.903  41.676 -11.771  0.00  0.00    +0.000 A 
ATOM      4  C   UNL     1     -17.090  40.602 -10.909  0.00  0.00    +0.000 A 
ATOM      5  C   UNL     1     -18.119  39.698 -11.146  0.00  0.00    +0.000 A 
ATOM      6  C   UNL     1     -17.766  41.800 -12.849  0.00  0.00    +0.000 A 
ATOM      7  C   UNL     1     -18.928  39.911 -12.251  0.00  0.00    +0.000 A 
ATOM      8  H   UNL     1     -19.852  38.031 -12.150  0.00  0.00    +0.000 HD
ATOM      9  H   UNL     1     -20.557  39.137 -13.290  0.00  0.00    +0.000 HD
ENDROOT
BRANCH   3  12
ATOM     10  O   UNL     1     -16.061  43.857 -11.661  0.00  0.00    +0.000 OA
ATOM     11  N   UNL     1     -14.585  42.120 -11.198  0.00  0.00    +0.000 N 
ATOM     12  C   UNL     1     -15.837  42.638 -11.551  0.00  0.00    +0.000 C 
ATOM     13  H   UNL     1     -14.448  41.122 -11.066  0.00  0.00    +0.000 HD
BRANCH  11  14
ATOM     14  S   UNL     1     -13.250  43.107 -10.861  0.00  0.00    +0.000 S 
ATOM     15  H   UNL     1     -13.919  44.247 -10.638  0.00  0.00    +0.000 HD
ENDBRANCH  11  14
ENDBRANCH   3  12
TORSDOF 2
ENDMDL
