MODEL 1
REMARK VINA RESULT:    -6.966      0.000      0.000
REMARK INTER + INTRA:          -6.953
REMARK INTER:                  -7.373
REMARK INTRA:                   0.419
REMARK UNBOUND:                 0.419
REMARK  Name = 57035832
REMARK  1 active torsions:
REMARK  status: ('A' for Active; 'I' for Inactive)
REMARK    1  A    between atoms: C_9  and  C_10
REMARK                            x       y       z     vdW  Elec       q    Type
REMARK                         _______ _______ _______ _____ _____    ______ ____
ROOT
ATOM      1  N   UNL     1     -19.186  42.125  -7.213  0.00  0.00    +0.000 NA
ATOM      2  N   UNL     1     -20.931  42.469  -5.629  0.00  0.00    +0.000 N 
ATOM      3  C   UNL     1     -19.635  40.847  -9.217  0.00  0.00    +0.000 A 
ATOM      4  C   UNL     1     -20.951  40.658  -8.811  0.00  0.00    +0.000 A 
ATOM      5  C   UNL     1     -18.800  41.582  -8.390  0.00  0.00    +0.000 A 
ATOM      6  C   UNL     1     -21.387  41.202  -7.607  0.00  0.00    +0.000 A 
ATOM      7  C   UNL     1     -20.473  41.921  -6.852  0.00  0.00    +0.000 A 
ATOM      8  H   UNL     1     -21.912  42.704  -5.543  0.00  0.00    +0.000 HD
ATOM      9  H   UNL     1     -20.262  42.998  -5.083  0.00  0.00    +0.000 HD
ENDROOT
BRANCH   3  16
ATOM     10  O   UNL     1     -19.400  39.104 -10.716  0.00  0.00    +0.000 OA
ATOM     11  N   UNL     1     -18.438  41.127 -11.330  0.00  0.00    +0.000 N 
ATOM     12  C   UNL     1     -17.095  41.813 -13.138  0.00  0.00    +0.000 C 
ATOM     13  C   UNL     1     -17.702  43.046 -12.481  0.00  0.00    +0.000 C 
ATOM     14  C   UNL     1     -17.996  40.691 -12.646  0.00  0.00    +0.000 C 
ATOM     15  C   UNL     1     -18.106  42.532 -11.106  0.00  0.00    +0.000 C 
ATOM     16  C   UNL     1     -19.144  40.284 -10.485  0.00  0.00    +0.000 C 
ENDBRANCH   3  16
TORSDOF 1
ENDMDL
MODEL 2
REMARK VINA RESULT:    -6.227      1.533      1.903
REMARK INTER + INTRA:          -6.172
REMARK INTER:                  -6.144
REMARK INTRA:                  -0.027
REMARK UNBOUND:                 0.419
REMARK  Name = 57035832
REMARK  1 active torsions:
REMARK  status: ('A' for Active; 'I' for Inactive)
REMARK    1  A    between atoms: C_9  and  C_10
REMARK                            x       y       z     vdW  Elec       q    Type
REMARK                         _______ _______ _______ _____ _____    ______ ____
ROOT
ATOM      1  N   UNL     1     -21.001  40.552  -8.895  0.00  0.00    +0.000 NA
ATOM      2  N   UNL     1     -21.972  41.473  -6.925  0.00  0.00    +0.000 N 
ATOM      3  C   UNL     1     -18.734  41.146  -9.492  0.00  0.00    +0.000 A 
ATOM      4  C   UNL     1     -18.643  41.958  -8.368  0.00  0.00    +0.000 A 
ATOM      5  C   UNL     1     -19.925  40.470  -9.709  0.00  0.00    +0.000 A 
ATOM      6  C   UNL     1     -19.729  42.068  -7.506  0.00  0.00    +0.000 A 
ATOM      7  C   UNL     1     -20.874  41.351  -7.811  0.00  0.00    +0.000 A 
ATOM      8  H   UNL     1     -21.785  41.683  -5.951  0.00  0.00    +0.000 HD
ATOM      9  H   UNL     1     -22.805  40.942  -7.148  0.00  0.00    +0.000 HD
ENDROOT
BRANCH   3  16
ATOM     10  O   UNL     1     -16.952  39.966 -10.372  0.00  0.00    +0.000 OA
ATOM     11  N   UNL     1     -17.361  42.057 -11.297  0.00  0.00    +0.000 N 
ATOM     12  C   UNL     1     -16.248  43.379 -12.897  0.00  0.00    +0.000 C 
ATOM     13  C   UNL     1     -17.676  43.888 -12.746  0.00  0.00    +0.000 C 
ATOM     14  C   UNL     1     -16.328  41.975 -12.319  0.00  0.00    +0.000 C 
ATOM     15  C   UNL     1     -18.100  43.314 -11.401  0.00  0.00    +0.000 C 
ATOM     16  C   UNL     1     -17.604  41.009 -10.424  0.00  0.00    +0.000 C 
ENDBRANCH   3  16
TORSDOF 1
ENDMDL
MODEL 3
REMARK VINA RESULT:    -5.969      2.253      5.356
REMARK INTER + INTRA:          -5.899
REMARK INTER:                  -5.842
REMARK INTRA:                  -0.057
REMARK UNBOUND:                 0.419
REMARK  Name = 57035832
REMARK  1 active torsions:
REMARK  status: ('A' for Active; 'I' for Inactive)
REMARK    1  A    between atoms: C_9  and  C_10
REMARK                            x       y       z     vdW  Elec       q    Type
REMARK                         _______ _______ _______ _____ _____    ______ ____
ROOT
ATOM      1  N   UNL     1     -15.394  43.054 -12.242  0.00  0.00    +0.000 NA
ATOM      2  N   UNL     1     -14.824  45.286 -12.846  0.00  0.00    +0.000 N 
ATOM      3  C   UNL     1     -17.724  42.423 -12.088  0.00  0.00    +0.000 A 
ATOM      4  C   UNL     1     -18.104  43.711 -12.442  0.00  0.00    +0.000 A 
ATOM      5  C   UNL     1     -16.368  42.146 -12.002  0.00  0.00    +0.000 A 
ATOM      6  C   UNL     1     -17.132  44.673 -12.697  0.00  0.00    +0.000 A 
ATOM      7  C   UNL     1     -15.803  44.296 -12.584  0.00  0.00    +0.000 A 
ATOM      8  H   UNL     1     -15.055  46.036 -13.487  0.00  0.00    +0.000 HD
ATOM      9  H   UNL     1     -13.854  45.005 -12.769  0.00  0.00    +0.000 HD
ENDROOT
BRANCH   3  16
ATOM     10  O   UNL     1     -19.235  40.816 -12.778  0.00  0.00    +0.000 OA
ATOM     11  N   UNL     1     -19.022  41.112 -10.485  0.00  0.00    +0.000 N 
ATOM     12  C   UNL     1     -20.138  40.218  -8.614  0.00  0.00    +0.000 C 
ATOM     13  C   UNL     1     -18.815  40.816  -8.156  0.00  0.00    +0.000 C 
ATOM     14  C   UNL     1     -19.928  40.037 -10.108  0.00  0.00    +0.000 C 
ATOM     15  C   UNL     1     -18.452  41.752  -9.301  0.00  0.00    +0.000 C 
ATOM     16  C   UNL     1     -18.728  41.383 -11.812  0.00  0.00    +0.000 C 
ENDBRANCH   3  16
TORSDOF 1
ENDMDL
MODEL 4
REMARK VINA RESULT:    -5.846      2.395      3.362
REMARK INTER + INTRA:          -5.768
REMARK INTER:                  -5.666
REMARK INTRA:                  -0.103
REMARK UNBOUND:                 0.419
REMARK  Name = 57035832
REMARK  1 active torsions:
REMARK  status: ('A' for Active; 'I' for Inactive)
REMARK    1  A    between atoms: C_9  and  C_10
REMARK                            x       y       z     vdW  Elec       q    Type
REMARK                         _______ _______ _______ _____ _____    ______ ____
ROOT
ATOM      1  N   UNL     1     -19.124  41.454  -9.011  0.00  0.00    +0.000 NA
ATOM      2  N   UNL     1     -20.743  39.708  -8.957  0.00  0.00    +0.000 N 
ATOM      3  C   UNL     1     -17.602  41.606 -10.884  0.00  0.00    +0.000 A 
ATOM      4  C   UNL     1     -18.187  40.485 -11.461  0.00  0.00    +0.000 A 
ATOM      5  C   UNL     1     -18.102  42.047  -9.669  0.00  0.00    +0.000 A 
ATOM      6  C   UNL     1     -19.242  39.848 -10.815  0.00  0.00    +0.000 A 
ATOM      7  C   UNL     1     -19.669  40.367  -9.603  0.00  0.00    +0.000 A 
ATOM      8  H   UNL     1     -21.416  39.209  -9.527  0.00  0.00    +0.000 HD
ATOM      9  H   UNL     1     -21.056  40.094  -8.075  0.00  0.00    +0.000 HD
ENDROOT
BRANCH   3  16
ATOM     10  O   UNL     1     -15.348  41.900 -11.301  0.00  0.00    +0.000 OA
ATOM     11  N   UNL     1     -16.795  43.353 -12.392  0.00  0.00    +0.000 N 
ATOM     12  C   UNL     1     -16.484  45.233 -13.775  0.00  0.00    +0.000 C 
ATOM     13  C   UNL     1     -17.905  44.716 -13.960  0.00  0.00    +0.000 C 
ATOM     14  C   UNL     1     -15.769  44.040 -13.162  0.00  0.00    +0.000 C 
ATOM     15  C   UNL     1     -18.123  43.871 -12.713  0.00  0.00    +0.000 C 
ATOM     16  C   UNL     1     -16.485  42.302 -11.542  0.00  0.00    +0.000 C 
ENDBRANCH   3  16
TORSDOF 1
ENDMDL
MODEL 5
REMARK VINA RESULT:    -5.686      3.405      4.802
REMARK INTER + INTRA:          -5.599
REMARK INTER:                  -5.492
REMARK INTRA:                  -0.106
REMARK UNBOUND:                 0.419
REMARK  Name = 57035832
REMARK  1 active torsions:
REMARK  status: ('A' for Active; 'I' for Inactive)
REMARK    1  A    between atoms: C_9  and  C_10
REMARK                            x       y       z     vdW  Elec       q    Type
REMARK                         _______ _______ _______ _____ _____    ______ ____
ROOT
ATOM      1  N   UNL     1     -18.529  40.375 -10.556  0.00  0.00    +0.000 NA
ATOM      2  N   UNL     1     -19.679  38.671 -11.760  0.00  0.00    +0.000 N 
ATOM      3  C   UNL     1     -17.050  41.877 -11.742  0.00  0.00    +0.000 A 
ATOM      4  C   UNL     1     -17.336  41.227 -12.937  0.00  0.00    +0.000 A 
ATOM      5  C   UNL     1     -17.667  41.417 -10.589  0.00  0.00    +0.000 A 
ATOM      6  C   UNL     1     -18.218  40.151 -12.944  0.00  0.00    +0.000 A 
ATOM      7  C   UNL     1     -18.782  39.768 -11.738  0.00  0.00    +0.000 A 
ATOM      8  H   UNL     1     -20.199  38.491 -12.610  0.00  0.00    +0.000 HD
ATOM      9  H   UNL     1     -20.094  38.398 -10.877  0.00  0.00    +0.000 HD
ENDROOT
BRANCH   3  16
ATOM     10  O   UNL     1     -14.933  42.771 -11.499  0.00  0.00    +0.000 OA
ATOM     11  N   UNL     1     -16.650  44.282 -11.905  0.00  0.00    +0.000 N 
ATOM     12  C   UNL     1     -16.768  46.633 -11.989  0.00  0.00    +0.000 C 
ATOM     13  C   UNL     1     -17.992  46.054 -12.687  0.00  0.00    +0.000 C 
ATOM     14  C   UNL     1     -15.800  45.461 -11.979  0.00  0.00    +0.000 C 
ATOM     15  C   UNL     1     -18.048  44.631 -12.148  0.00  0.00    +0.000 C 
ATOM     16  C   UNL     1     -16.121  43.017 -11.702  0.00  0.00    +0.000 C 
ENDBRANCH   3  16
TORSDOF 1
ENDMDL
