MODEL 1
REMARK VINA RESULT:    -6.234      0.000      0.000
REMARK INTER + INTRA:          -7.074
REMARK INTER:                  -6.963
REMARK INTRA:                  -0.111
REMARK UNBOUND:                -0.111
REMARK  Name = 57066748
REMARK  3 active torsions:
REMARK  status: ('A' for Active; 'I' for Inactive)
REMARK    1  A    between atoms: N_3  and  C_8
REMARK    2  A    between atoms: N_4  and  C_11
REMARK    3  A    between atoms: C_5  and  C_10
REMARK                            x       y       z     vdW  Elec       q    Type
REMARK                         _______ _______ _______ _____ _____    ______ ____
ROOT
ATOM      1  N   UNL     1     -18.653  41.798  -8.009  0.00  0.00    +0.000 NA
ATOM      2  C   UNL     1     -20.961  41.560  -7.325  0.00  0.00    +0.000 A 
ATOM      3  C   UNL     1     -21.158  40.591  -8.302  0.00  0.00    +0.000 A 
ATOM      4  C   UNL     1     -20.105  40.224  -9.133  0.00  0.00    +0.000 A 
ATOM      5  C   UNL     1     -18.884  40.852  -8.947  0.00  0.00    +0.000 A 
ATOM      6  C   UNL     1     -19.701  42.128  -7.220  0.00  0.00    +0.000 A 
ENDROOT
BRANCH   5   7
ATOM      7  N   UNL     1     -17.794  40.516  -9.756  0.00  0.00    +0.000 NA
ATOM      8  N   UNL     1     -18.199  40.058 -10.849  0.00  0.00    +0.000 NA
ATOM      9  C   UNL     1     -17.093  39.693 -11.732  0.00  0.00    +0.000 C 
ENDBRANCH   5   7
BRANCH   2  11
ATOM     10  O   UNL     1     -22.964  42.702  -6.798  0.00  0.00    +0.000 OA
ATOM     11  C   UNL     1     -22.040  41.965  -6.441  0.00  0.00    +0.000 C 
ENDBRANCH   2  11
TORSDOF 2
ENDMDL
MODEL 2
REMARK VINA RESULT:    -5.412      2.838      4.799
REMARK INTER + INTRA:          -6.155
REMARK INTER:                  -6.041
REMARK INTRA:                  -0.114
REMARK UNBOUND:                -0.111
REMARK  Name = 57066748
REMARK  3 active torsions:
REMARK  status: ('A' for Active; 'I' for Inactive)
REMARK    1  A    between atoms: N_3  and  C_8
REMARK    2  A    between atoms: N_4  and  C_11
REMARK    3  A    between atoms: C_5  and  C_10
REMARK                            x       y       z     vdW  Elec       q    Type
REMARK                         _______ _______ _______ _____ _____    ______ ____
ROOT
ATOM      1  N   UNL     1     -18.236  42.211  -9.025  0.00  0.00    +0.000 NA
ATOM      2  C   UNL     1     -18.578  40.656 -10.845  0.00  0.00    +0.000 A 
ATOM      3  C   UNL     1     -19.558  40.000 -10.109  0.00  0.00    +0.000 A 
ATOM      4  C   UNL     1     -19.878  40.447  -8.832  0.00  0.00    +0.000 A 
ATOM      5  C   UNL     1     -19.194  41.548  -8.341  0.00  0.00    +0.000 A 
ATOM      6  C   UNL     1     -17.952  41.747 -10.263  0.00  0.00    +0.000 A 
ENDROOT
BRANCH   5   7
ATOM      7  N   UNL     1     -19.482  42.036  -7.062  0.00  0.00    +0.000 NA
ATOM      8  N   UNL     1     -20.670  41.778  -6.763  0.00  0.00    +0.000 NA
ATOM      9  C   UNL     1     -21.017  42.269  -5.431  0.00  0.00    +0.000 C 
ENDBRANCH   5   7
BRANCH   2  11
ATOM     10  O   UNL     1     -19.007  39.623 -12.929  0.00  0.00    +0.000 OA
ATOM     11  C   UNL     1     -18.221  40.213 -12.181  0.00  0.00    +0.000 C 
ENDBRANCH   2  11
TORSDOF 2
ENDMDL
MODEL 3
REMARK VINA RESULT:    -5.015      3.798      4.944
REMARK INTER + INTRA:          -5.713
REMARK INTER:                  -5.610
REMARK INTRA:                  -0.103
REMARK UNBOUND:                -0.111
REMARK  Name = 57066748
REMARK  3 active torsions:
REMARK  status: ('A' for Active; 'I' for Inactive)
REMARK    1  A    between atoms: N_3  and  C_8
REMARK    2  A    between atoms: N_4  and  C_11
REMARK    3  A    between atoms: C_5  and  C_10
REMARK                            x       y       z     vdW  Elec       q    Type
REMARK                         _______ _______ _______ _____ _____    ______ ____
ROOT
ATOM      1  N   UNL     1     -19.574  40.852 -12.788  0.00  0.00    +0.000 NA
ATOM      2  C   UNL     1     -18.563  41.164 -10.614  0.00  0.00    +0.000 A 
ATOM      3  C   UNL     1     -17.934  42.319 -11.064  0.00  0.00    +0.000 A 
ATOM      4  C   UNL     1     -18.124  42.742 -12.375  0.00  0.00    +0.000 A 
ATOM      5  C   UNL     1     -18.947  41.979 -13.189  0.00  0.00    +0.000 A 
ATOM      6  C   UNL     1     -19.365  40.472 -11.507  0.00  0.00    +0.000 A 
ENDROOT
BRANCH   5   7
ATOM      7  N   UNL     1     -19.170  42.365 -14.515  0.00  0.00    +0.000 NA
ATOM      8  N   UNL     1     -20.328  42.825 -14.637  0.00  0.00    +0.000 NA
ATOM      9  C   UNL     1     -20.608  43.243 -16.009  0.00  0.00    +0.000 C 
ENDBRANCH   5   7
BRANCH   2  11
ATOM     10  O   UNL     1     -18.392  41.449  -8.272  0.00  0.00    +0.000 OA
ATOM     11  C   UNL     1     -18.384  40.696  -9.250  0.00  0.00    +0.000 C 
ENDBRANCH   2  11
TORSDOF 2
ENDMDL
MODEL 4
REMARK VINA RESULT:    -4.400      2.722      3.652
REMARK INTER + INTRA:          -5.025
REMARK INTER:                  -4.915
REMARK INTRA:                  -0.111
REMARK UNBOUND:                -0.111
REMARK  Name = 57066748
REMARK  3 active torsions:
REMARK  status: ('A' for Active; 'I' for Inactive)
REMARK    1  A    between atoms: N_3  and  C_8
REMARK    2  A    between atoms: N_4  and  C_11
REMARK    3  A    between atoms: C_5  and  C_10
REMARK                            x       y       z     vdW  Elec       q    Type
REMARK                         _______ _______ _______ _____ _____    ______ ____
ROOT
ATOM      1  N   UNL     1     -18.037  40.600 -11.539  0.00  0.00    +0.000 NA
ATOM      2  C   UNL     1     -19.101  40.740  -9.372  0.00  0.00    +0.000 A 
ATOM      3  C   UNL     1     -18.464  41.952  -9.129  0.00  0.00    +0.000 A 
ATOM      4  C   UNL     1     -17.613  42.488 -10.089  0.00  0.00    +0.000 A 
ATOM      5  C   UNL     1     -17.436  41.779 -11.267  0.00  0.00    +0.000 A 
ATOM      6  C   UNL     1     -18.857  40.109 -10.581  0.00  0.00    +0.000 A 
ENDROOT
BRANCH   5   7
ATOM      7  N   UNL     1     -16.591  42.279 -12.263  0.00  0.00    +0.000 NA
ATOM      8  N   UNL     1     -16.517  43.525 -12.175  0.00  0.00    +0.000 NA
ATOM      9  C   UNL     1     -15.641  44.095 -13.198  0.00  0.00    +0.000 C 
ENDBRANCH   5   7
BRANCH   2  11
ATOM     10  O   UNL     1     -21.144  39.786  -8.655  0.00  0.00    +0.000 OA
ATOM     11  C   UNL     1     -19.996  40.153  -8.389  0.00  0.00    +0.000 C 
ENDBRANCH   2  11
TORSDOF 2
ENDMDL
MODEL 5
REMARK VINA RESULT:    -4.277      4.013      5.885
REMARK INTER + INTRA:          -4.888
REMARK INTER:                  -4.775
REMARK INTRA:                  -0.112
REMARK UNBOUND:                -0.111
REMARK  Name = 57066748
REMARK  3 active torsions:
REMARK  status: ('A' for Active; 'I' for Inactive)
REMARK    1  A    between atoms: N_3  and  C_8
REMARK    2  A    between atoms: N_4  and  C_11
REMARK    3  A    between atoms: C_5  and  C_10
REMARK                            x       y       z     vdW  Elec       q    Type
REMARK                         _______ _______ _______ _____ _____    ______ ____
ROOT
ATOM      1  N   UNL     1     -18.238  41.245 -12.541  0.00  0.00    +0.000 NA
ATOM      2  C   UNL     1     -16.559  42.979 -12.394  0.00  0.00    +0.000 A 
ATOM      3  C   UNL     1     -16.833  43.139 -11.041  0.00  0.00    +0.000 A 
ATOM      4  C   UNL     1     -17.808  42.355 -10.436  0.00  0.00    +0.000 A 
ATOM      5  C   UNL     1     -18.476  41.430 -11.223  0.00  0.00    +0.000 A 
ATOM      6  C   UNL     1     -17.283  42.026 -13.094  0.00  0.00    +0.000 A 
ENDROOT
BRANCH   5   7
ATOM      7  N   UNL     1     -19.464  40.617 -10.660  0.00  0.00    +0.000 NA
ATOM      8  N   UNL     1     -19.596  40.883  -9.444  0.00  0.00    +0.000 NA
ATOM      9  C   UNL     1     -20.622  40.057  -8.810  0.00  0.00    +0.000 C 
ENDBRANCH   5   7
BRANCH   2  11
ATOM     10  O   UNL     1     -15.816  44.744 -13.782  0.00  0.00    +0.000 OA
ATOM     11  C   UNL     1     -15.546  43.783 -13.055  0.00  0.00    +0.000 C 
ENDBRANCH   2  11
TORSDOF 2
ENDMDL
