MODEL 1
REMARK VINA RESULT:    -5.635      0.000      0.000
REMARK INTER + INTRA:          -6.188
REMARK INTER:                  -6.129
REMARK INTRA:                  -0.059
REMARK UNBOUND:                -0.059
REMARK  Name = 57214035
REMARK  2 active torsions:
REMARK  status: ('A' for Active; 'I' for Inactive)
REMARK    1  A    between atoms: S_1  and  N_4
REMARK    2  A    between atoms: C_5  and  C_8
REMARK                            x       y       z     vdW  Elec       q    Type
REMARK                         _______ _______ _______ _____ _____    ______ ____
ROOT
ATOM      1  N   UNL     1     -19.337  42.274  -7.261  0.00  0.00    +0.000 NA
ATOM      2  C   UNL     1     -19.334  40.726  -9.118  0.00  0.00    +0.000 A 
ATOM      3  C   UNL     1     -20.675  40.438  -8.891  0.00  0.00    +0.000 A 
ATOM      4  C   UNL     1     -18.717  41.642  -8.282  0.00  0.00    +0.000 A 
ATOM      5  C   UNL     1     -21.349  41.068  -7.849  0.00  0.00    +0.000 A 
ATOM      6  C   UNL     1     -20.641  41.969  -7.070  0.00  0.00    +0.000 A 
ENDROOT
BRANCH   2   9
ATOM      7  O   UNL     1     -19.166  39.239 -10.918  0.00  0.00    +0.000 OA
ATOM      8  N   UNL     1     -17.275  40.483 -10.382  0.00  0.00    +0.000 N 
ATOM      9  C   UNL     1     -18.604  40.085 -10.198  0.00  0.00    +0.000 C 
ATOM     10  H   UNL     1     -16.862  41.213  -9.810  0.00  0.00    +0.000 HD
BRANCH   8  11
ATOM     11  S   UNL     1     -16.301  39.868 -11.623  0.00  0.00    +0.000 S 
ATOM     12  H   UNL     1     -16.375  40.920 -12.451  0.00  0.00    +0.000 HD
ENDBRANCH   8  11
ENDBRANCH   2   9
TORSDOF 2
ENDMDL
MODEL 2
REMARK VINA RESULT:    -5.615      1.977      2.445
REMARK INTER + INTRA:          -6.166
REMARK INTER:                  -6.109
REMARK INTRA:                  -0.057
REMARK UNBOUND:                -0.059
REMARK  Name = 57214035
REMARK  2 active torsions:
REMARK  status: ('A' for Active; 'I' for Inactive)
REMARK    1  A    between atoms: S_1  and  N_4
REMARK    2  A    between atoms: C_5  and  C_8
REMARK                            x       y       z     vdW  Elec       q    Type
REMARK                         _______ _______ _______ _____ _____    ______ ____
ROOT
ATOM      1  N   UNL     1     -22.594  41.171  -7.343  0.00  0.00    +0.000 NA
ATOM      2  C   UNL     1     -20.301  41.015  -8.096  0.00  0.00    +0.000 A 
ATOM      3  C   UNL     1     -19.884  41.768  -7.005  0.00  0.00    +0.000 A 
ATOM      4  C   UNL     1     -21.655  40.746  -8.219  0.00  0.00    +0.000 A 
ATOM      5  C   UNL     1     -20.820  42.223  -6.081  0.00  0.00    +0.000 A 
ATOM      6  C   UNL     1     -22.150  41.900  -6.295  0.00  0.00    +0.000 A 
ENDROOT
BRANCH   2   9
ATOM      7  O   UNL     1     -18.135  40.477  -8.799  0.00  0.00    +0.000 OA
ATOM      8  N   UNL     1     -19.869  40.107 -10.306  0.00  0.00    +0.000 N 
ATOM      9  C   UNL     1     -19.348  40.525  -9.076  0.00  0.00    +0.000 C 
ATOM     10  H   UNL     1     -20.868  40.111 -10.482  0.00  0.00    +0.000 HD
BRANCH   8  11
ATOM     11  S   UNL     1     -18.899  39.468 -11.539  0.00  0.00    +0.000 S 
ATOM     12  H   UNL     1     -19.883  39.094 -12.369  0.00  0.00    +0.000 HD
ENDBRANCH   8  11
ENDBRANCH   2   9
TORSDOF 2
ENDMDL
MODEL 3
REMARK VINA RESULT:    -5.508      0.938      1.530
REMARK INTER + INTRA:          -6.049
REMARK INTER:                  -5.990
REMARK INTRA:                  -0.059
REMARK UNBOUND:                -0.059
REMARK  Name = 57214035
REMARK  2 active torsions:
REMARK  status: ('A' for Active; 'I' for Inactive)
REMARK    1  A    between atoms: S_1  and  N_4
REMARK    2  A    between atoms: C_5  and  C_8
REMARK                            x       y       z     vdW  Elec       q    Type
REMARK                         _______ _______ _______ _____ _____    ______ ____
ROOT
ATOM      1  N   UNL     1     -21.534  40.831  -7.919  0.00  0.00    +0.000 NA
ATOM      2  C   UNL     1     -19.417  40.690  -9.077  0.00  0.00    +0.000 A 
ATOM      3  C   UNL     1     -18.876  41.641  -8.220  0.00  0.00    +0.000 A 
ATOM      4  C   UNL     1     -20.739  40.323  -8.886  0.00  0.00    +0.000 A 
ATOM      5  C   UNL     1     -19.662  42.188  -7.211  0.00  0.00    +0.000 A 
ATOM      6  C   UNL     1     -20.973  41.753  -7.104  0.00  0.00    +0.000 A 
ENDROOT
BRANCH   2   9
ATOM      7  O   UNL     1     -19.122  39.251 -10.900  0.00  0.00    +0.000 OA
ATOM      8  N   UNL     1     -17.301  40.551 -10.260  0.00  0.00    +0.000 N 
ATOM      9  C   UNL     1     -18.621  40.101 -10.140  0.00  0.00    +0.000 C 
ATOM     10  H   UNL     1     -16.938  41.282  -9.657  0.00  0.00    +0.000 HD
BRANCH   8  11
ATOM     11  S   UNL     1     -16.255  39.999 -11.473  0.00  0.00    +0.000 S 
ATOM     12  H   UNL     1     -16.074  41.169 -12.103  0.00  0.00    +0.000 HD
ENDBRANCH   8  11
ENDBRANCH   2   9
TORSDOF 2
ENDMDL
MODEL 4
REMARK VINA RESULT:    -4.931      3.250      4.350
REMARK INTER + INTRA:          -5.422
REMARK INTER:                  -5.370
REMARK INTRA:                  -0.052
REMARK UNBOUND:                -0.059
REMARK  Name = 57214035
REMARK  2 active torsions:
REMARK  status: ('A' for Active; 'I' for Inactive)
REMARK    1  A    between atoms: S_1  and  N_4
REMARK    2  A    between atoms: C_5  and  C_8
REMARK                            x       y       z     vdW  Elec       q    Type
REMARK                         _______ _______ _______ _____ _____    ______ ____
ROOT
ATOM      1  N   UNL     1     -17.460  41.381 -10.531  0.00  0.00    +0.000 NA
ATOM      2  C   UNL     1     -19.318  41.187  -8.997  0.00  0.00    +0.000 A 
ATOM      3  C   UNL     1     -19.783  40.075  -9.689  0.00  0.00    +0.000 A 
ATOM      4  C   UNL     1     -18.163  41.798  -9.454  0.00  0.00    +0.000 A 
ATOM      5  C   UNL     1     -19.088  39.613 -10.802  0.00  0.00    +0.000 A 
ATOM      6  C   UNL     1     -17.943  40.296 -11.178  0.00  0.00    +0.000 A 
ENDROOT
BRANCH   2   9
ATOM      7  O   UNL     1     -19.387  42.191  -6.884  0.00  0.00    +0.000 OA
ATOM      8  N   UNL     1     -21.419  41.597  -7.849  0.00  0.00    +0.000 N 
ATOM      9  C   UNL     1     -20.022  41.691  -7.830  0.00  0.00    +0.000 C 
ATOM     10  H   UNL     1     -21.909  41.230  -8.658  0.00  0.00    +0.000 HD
BRANCH   8  11
ATOM     11  S   UNL     1     -22.390  42.179  -6.590  0.00  0.00    +0.000 S 
ATOM     12  H   UNL     1     -22.013  43.464  -6.648  0.00  0.00    +0.000 HD
ENDBRANCH   8  11
ENDBRANCH   2   9
TORSDOF 2
ENDMDL
MODEL 5
REMARK VINA RESULT:    -4.549      2.554      3.035
REMARK INTER + INTRA:          -5.006
REMARK INTER:                  -4.968
REMARK INTRA:                  -0.038
REMARK UNBOUND:                -0.059
REMARK  Name = 57214035
REMARK  2 active torsions:
REMARK  status: ('A' for Active; 'I' for Inactive)
REMARK    1  A    between atoms: S_1  and  N_4
REMARK    2  A    between atoms: C_5  and  C_8
REMARK                            x       y       z     vdW  Elec       q    Type
REMARK                         _______ _______ _______ _____ _____    ______ ____
ROOT
ATOM      1  N   UNL     1     -19.527  39.744 -10.042  0.00  0.00    +0.000 NA
ATOM      2  C   UNL     1     -18.192  41.760 -10.042  0.00  0.00    +0.000 A 
ATOM      3  C   UNL     1     -18.543  42.002  -8.720  0.00  0.00    +0.000 A 
ATOM      4  C   UNL     1     -18.706  40.627 -10.652  0.00  0.00    +0.000 A 
ATOM      5  C   UNL     1     -19.386  41.116  -8.056  0.00  0.00    +0.000 A 
ATOM      6  C   UNL     1     -19.846  40.012  -8.756  0.00  0.00    +0.000 A 
ENDROOT
BRANCH   2   9
ATOM      7  O   UNL     1     -17.769  43.705 -11.274  0.00  0.00    +0.000 OA
ATOM      8  N   UNL     1     -15.959  42.314 -10.821  0.00  0.00    +0.000 N 
ATOM      9  C   UNL     1     -17.313  42.666 -10.761  0.00  0.00    +0.000 C 
ATOM     10  H   UNL     1     -15.611  41.486 -10.348  0.00  0.00    +0.000 HD
BRANCH   8  11
ATOM     11  S   UNL     1     -14.797  43.284 -11.580  0.00  0.00    +0.000 S 
ATOM     12  H   UNL     1     -15.424  44.461 -11.442  0.00  0.00    +0.000 HD
ENDBRANCH   8  11
ENDBRANCH   2   9
TORSDOF 2
ENDMDL
