MODEL 1
REMARK VINA RESULT:    -6.194      0.000      0.000
REMARK INTER + INTRA:          -6.100
REMARK INTER:                  -6.557
REMARK INTRA:                   0.456
REMARK UNBOUND:                 0.456
REMARK  Name = 57504532
REMARK  3 active torsions:
REMARK  status: ('A' for Active; 'I' for Inactive)
REMARK    1  A    between atoms: N_2  and  C_8
REMARK    2  A    between atoms: N_2  and  C_9
REMARK    3  A    between atoms: C_5  and  C_6
REMARK                            x       y       z     vdW  Elec       q    Type
REMARK                         _______ _______ _______ _____ _____    ______ ____
ROOT
ATOM      1  N   UNL     1     -18.887  41.957  -7.545  0.00  0.00    +0.000 NA
ATOM      2  N   UNL     1     -20.612  42.342  -5.947  0.00  0.00    +0.000 N 
ATOM      3  C   UNL     1     -19.385  40.707  -9.553  0.00  0.00    +0.000 A 
ATOM      4  C   UNL     1     -20.703  40.554  -9.140  0.00  0.00    +0.000 A 
ATOM      5  C   UNL     1     -18.523  41.410  -8.727  0.00  0.00    +0.000 A 
ATOM      6  C   UNL     1     -21.115  41.102  -7.931  0.00  0.00    +0.000 A 
ATOM      7  C   UNL     1     -20.177  41.788  -7.177  0.00  0.00    +0.000 A 
ATOM      8  H   UNL     1     -21.585  42.606  -5.854  0.00  0.00    +0.000 HD
ATOM      9  H   UNL     1     -19.924  42.847  -5.402  0.00  0.00    +0.000 HD
ENDROOT
BRANCH   3  12
ATOM     10  O   UNL     1     -19.111  38.933 -10.990  0.00  0.00    +0.000 OA
ATOM     11  N   UNL     1     -18.313  40.993 -11.755  0.00  0.00    +0.000 N 
ATOM     12  C   UNL     1     -18.918  40.138 -10.828  0.00  0.00    +0.000 C 
ATOM     13  C   UNL     1     -18.120  42.417 -11.489  0.00  0.00    +0.000 C 
ATOM     14  C   UNL     1     -17.836  40.522 -13.047  0.00  0.00    +0.000 C 
ENDBRANCH   3  12
TORSDOF 1
ENDMDL
MODEL 2
REMARK VINA RESULT:    -5.574      1.937      4.898
REMARK INTER + INTRA:          -5.444
REMARK INTER:                  -5.617
REMARK INTRA:                   0.173
REMARK UNBOUND:                 0.456
REMARK  Name = 57504532
REMARK  3 active torsions:
REMARK  status: ('A' for Active; 'I' for Inactive)
REMARK    1  A    between atoms: N_2  and  C_8
REMARK    2  A    between atoms: N_2  and  C_9
REMARK    3  A    between atoms: C_5  and  C_6
REMARK                            x       y       z     vdW  Elec       q    Type
REMARK                         _______ _______ _______ _____ _____    ______ ____
ROOT
ATOM      1  N   UNL     1     -16.726  40.008 -11.207  0.00  0.00    +0.000 NA
ATOM      2  N   UNL     1     -16.943  39.619 -13.548  0.00  0.00    +0.000 N 
ATOM      3  C   UNL     1     -18.467  41.209 -10.037  0.00  0.00    +0.000 A 
ATOM      4  C   UNL     1     -19.181  41.343 -11.222  0.00  0.00    +0.000 A 
ATOM      5  C   UNL     1     -17.255  40.539 -10.082  0.00  0.00    +0.000 A 
ATOM      6  C   UNL     1     -18.671  40.810 -12.399  0.00  0.00    +0.000 A 
ATOM      7  C   UNL     1     -17.451  40.157 -12.340  0.00  0.00    +0.000 A 
ATOM      8  H   UNL     1     -17.600  39.337 -14.264  0.00  0.00    +0.000 HD
ATOM      9  H   UNL     1     -16.053  39.138 -13.498  0.00  0.00    +0.000 HD
ENDROOT
BRANCH   3  12
ATOM     10  O   UNL     1     -18.390  42.748  -8.330  0.00  0.00    +0.000 OA
ATOM     11  N   UNL     1     -20.092  41.152  -8.184  0.00  0.00    +0.000 N 
ATOM     12  C   UNL     1     -18.981  41.763  -8.773  0.00  0.00    +0.000 C 
ATOM     13  C   UNL     1     -20.741  39.982  -8.773  0.00  0.00    +0.000 C 
ATOM     14  C   UNL     1     -20.678  41.640  -6.944  0.00  0.00    +0.000 C 
ENDBRANCH   3  12
TORSDOF 1
ENDMDL
MODEL 3
REMARK VINA RESULT:    -5.494      2.329      3.006
REMARK INTER + INTRA:          -5.359
REMARK INTER:                  -5.453
REMARK INTRA:                   0.094
REMARK UNBOUND:                 0.456
REMARK  Name = 57504532
REMARK  3 active torsions:
REMARK  status: ('A' for Active; 'I' for Inactive)
REMARK    1  A    between atoms: N_2  and  C_8
REMARK    2  A    between atoms: N_2  and  C_9
REMARK    3  A    between atoms: C_5  and  C_6
REMARK                            x       y       z     vdW  Elec       q    Type
REMARK                         _______ _______ _______ _____ _____    ______ ____
ROOT
ATOM      1  N   UNL     1     -19.529  39.607 -10.494  0.00  0.00    +0.000 NA
ATOM      2  N   UNL     1     -21.097  39.684  -8.701  0.00  0.00    +0.000 N 
ATOM      3  C   UNL     1     -17.744  41.235 -10.581  0.00  0.00    +0.000 A 
ATOM      4  C   UNL     1     -18.210  41.820  -9.410  0.00  0.00    +0.000 A 
ATOM      5  C   UNL     1     -18.433  40.140 -11.079  0.00  0.00    +0.000 A 
ATOM      6  C   UNL     1     -19.334  41.300  -8.779  0.00  0.00    +0.000 A 
ATOM      7  C   UNL     1     -19.952  40.203  -9.355  0.00  0.00    +0.000 A 
ATOM      8  H   UNL     1     -21.175  39.804  -7.699  0.00  0.00    +0.000 HD
ATOM      9  H   UNL     1     -21.542  38.879  -9.123  0.00  0.00    +0.000 HD
ENDROOT
BRANCH   3  12
ATOM     10  O   UNL     1     -15.514  41.124 -11.128  0.00  0.00    +0.000 OA
ATOM     11  N   UNL     1     -16.696  42.921 -12.044  0.00  0.00    +0.000 N 
ATOM     12  C   UNL     1     -16.556  41.762 -11.273  0.00  0.00    +0.000 C 
ATOM     13  C   UNL     1     -17.971  43.624 -12.168  0.00  0.00    +0.000 C 
ATOM     14  C   UNL     1     -15.581  43.505 -12.775  0.00  0.00    +0.000 C 
ENDBRANCH   3  12
TORSDOF 1
ENDMDL
MODEL 4
REMARK VINA RESULT:    -5.260      2.773      5.362
REMARK INTER + INTRA:          -5.112
REMARK INTER:                  -5.159
REMARK INTRA:                   0.047
REMARK UNBOUND:                 0.456
REMARK  Name = 57504532
REMARK  3 active torsions:
REMARK  status: ('A' for Active; 'I' for Inactive)
REMARK    1  A    between atoms: N_2  and  C_8
REMARK    2  A    between atoms: N_2  and  C_9
REMARK    3  A    between atoms: C_5  and  C_6
REMARK                            x       y       z     vdW  Elec       q    Type
REMARK                         _______ _______ _______ _____ _____    ______ ____
ROOT
ATOM      1  N   UNL     1     -15.399  43.367 -12.409  0.00  0.00    +0.000 NA
ATOM      2  N   UNL     1     -15.479  44.926 -14.210  0.00  0.00    +0.000 N 
ATOM      3  C   UNL     1     -17.419  42.870 -11.178  0.00  0.00    +0.000 A 
ATOM      4  C   UNL     1     -18.134  43.751 -11.980  0.00  0.00    +0.000 A 
ATOM      5  C   UNL     1     -16.066  42.714 -11.431  0.00  0.00    +0.000 A 
ATOM      6  C   UNL     1     -17.484  44.441 -12.997  0.00  0.00    +0.000 A 
ATOM      7  C   UNL     1     -16.128  44.216 -13.169  0.00  0.00    +0.000 A 
ATOM      8  H   UNL     1     -16.024  45.202 -15.017  0.00  0.00    +0.000 HD
ATOM      9  H   UNL     1     -14.490  44.754 -14.335  0.00  0.00    +0.000 HD
ENDROOT
BRANCH   3  12
ATOM     10  O   UNL     1     -18.003  42.619  -8.968  0.00  0.00    +0.000 OA
ATOM     11  N   UNL     1     -18.746  40.937 -10.413  0.00  0.00    +0.000 N 
ATOM     12  C   UNL     1     -18.079  42.125 -10.093  0.00  0.00    +0.000 C 
ATOM     13  C   UNL     1     -18.792  40.414 -11.776  0.00  0.00    +0.000 C 
ATOM     14  C   UNL     1     -19.439  40.143  -9.409  0.00  0.00    +0.000 C 
ENDBRANCH   3  12
TORSDOF 1
ENDMDL
MODEL 5
REMARK VINA RESULT:    -5.106      3.980      5.192
REMARK INTER + INTRA:          -4.948
REMARK INTER:                  -4.992
REMARK INTRA:                   0.044
REMARK UNBOUND:                 0.456
REMARK  Name = 57504532
REMARK  3 active torsions:
REMARK  status: ('A' for Active; 'I' for Inactive)
REMARK    1  A    between atoms: N_2  and  C_8
REMARK    2  A    between atoms: N_2  and  C_9
REMARK    3  A    between atoms: C_5  and  C_6
REMARK                            x       y       z     vdW  Elec       q    Type
REMARK                         _______ _______ _______ _____ _____    ______ ____
ROOT
ATOM      1  N   UNL     1     -19.226  41.397 -13.545  0.00  0.00    +0.000 NA
ATOM      2  N   UNL     1     -19.669  39.350 -12.407  0.00  0.00    +0.000 N 
ATOM      3  C   UNL     1     -18.169  43.214 -12.351  0.00  0.00    +0.000 A 
ATOM      4  C   UNL     1     -18.121  42.439 -11.198  0.00  0.00    +0.000 A 
ATOM      5  C   UNL     1     -18.726  42.652 -13.488  0.00  0.00    +0.000 A 
ATOM      6  C   UNL     1     -18.623  41.143 -11.217  0.00  0.00    +0.000 A 
ATOM      7  C   UNL     1     -19.160  40.673 -12.404  0.00  0.00    +0.000 A 
ATOM      8  H   UNL     1     -19.268  38.678 -11.765  0.00  0.00    +0.000 HD
ATOM      9  H   UNL     1     -20.055  39.009 -13.279  0.00  0.00    +0.000 HD
ENDROOT
BRANCH   3  12
ATOM     10  O   UNL     1     -18.466  45.487 -12.172  0.00  0.00    +0.000 OA
ATOM     11  N   UNL     1     -16.275  44.776 -12.574  0.00  0.00    +0.000 N 
ATOM     12  C   UNL     1     -17.645  44.590 -12.364  0.00  0.00    +0.000 C 
ATOM     13  C   UNL     1     -15.362  43.657 -12.794  0.00  0.00    +0.000 C 
ATOM     14  C   UNL     1     -15.666  46.099 -12.587  0.00  0.00    +0.000 C 
ENDBRANCH   3  12
TORSDOF 1
ENDMDL
