MODEL 1
REMARK VINA RESULT:    -6.542      0.000      0.000
REMARK INTER + INTRA:          -7.519
REMARK INTER:                  -7.306
REMARK INTRA:                  -0.213
REMARK UNBOUND:                -0.213
REMARK  Name = 57697946
REMARK  4 active torsions:
REMARK  status: ('A' for Active; 'I' for Inactive)
REMARK    1  A    between atoms: N_2  and  C_5
REMARK    2  A    between atoms: C_5  and  C_6
REMARK    3  A    between atoms: C_5  and  C_7
REMARK    4  A    between atoms: C_8  and  C_9
REMARK                            x       y       z     vdW  Elec       q    Type
REMARK                         _______ _______ _______ _____ _____    ______ ____
ROOT
ATOM      1  N   UNL     1     -19.328  42.232  -7.152  0.00  0.00    +0.000 NA
ATOM      2  N   UNL     1     -21.134  42.586  -5.639  0.00  0.00    +0.000 N 
ATOM      3  C   UNL     1     -19.653  40.810  -9.079  0.00  0.00    +0.000 A 
ATOM      4  C   UNL     1     -20.970  40.582  -8.697  0.00  0.00    +0.000 A 
ATOM      5  C   UNL     1     -18.880  41.636  -8.279  0.00  0.00    +0.000 A 
ATOM      6  C   UNL     1     -21.468  41.177  -7.543  0.00  0.00    +0.000 A 
ATOM      7  C   UNL     1     -20.613  41.987  -6.812  0.00  0.00    +0.000 A 
ATOM      8  H   UNL     1     -22.127  42.777  -5.595  0.00  0.00    +0.000 HD
ATOM      9  H   UNL     1     -20.508  43.182  -5.110  0.00  0.00    +0.000 HD
ENDROOT
BRANCH   3  12
ATOM     10  O   UNL     1     -19.545  39.117 -10.697  0.00  0.00    +0.000 OA
ATOM     11  N   UNL     1     -18.087  40.903 -10.942  0.00  0.00    +0.000 N 
ATOM     12  C   UNL     1     -19.092  40.189 -10.307  0.00  0.00    +0.000 C 
ATOM     13  H   UNL     1     -17.838  41.832 -10.617  0.00  0.00    +0.000 HD
BRANCH  11  14
ATOM     14  C   UNL     1     -17.458  40.444 -12.157  0.00  0.00    +0.000 C 
ATOM     15  C   UNL     1     -17.192  41.615 -13.096  0.00  0.00    +0.000 C 
ATOM     16  C   UNL     1     -16.174  39.689 -11.837  0.00  0.00    +0.000 C 
ENDBRANCH  11  14
ENDBRANCH   3  12
TORSDOF 2
ENDMDL
MODEL 2
REMARK VINA RESULT:    -5.919      1.485      5.403
REMARK INTER + INTRA:          -6.823
REMARK INTER:                  -6.619
REMARK INTRA:                  -0.204
REMARK UNBOUND:                -0.213
REMARK  Name = 57697946
REMARK  4 active torsions:
REMARK  status: ('A' for Active; 'I' for Inactive)
REMARK    1  A    between atoms: N_2  and  C_5
REMARK    2  A    between atoms: C_5  and  C_6
REMARK    3  A    between atoms: C_5  and  C_7
REMARK    4  A    between atoms: C_8  and  C_9
REMARK                            x       y       z     vdW  Elec       q    Type
REMARK                         _______ _______ _______ _____ _____    ______ ____
ROOT
ATOM      1  N   UNL     1     -17.425  42.062 -10.609  0.00  0.00    +0.000 NA
ATOM      2  N   UNL     1     -16.403  41.497 -12.685  0.00  0.00    +0.000 N 
ATOM      3  C   UNL     1     -19.314  40.774  -9.824  0.00  0.00    +0.000 A 
ATOM      4  C   UNL     1     -19.248  39.973 -10.959  0.00  0.00    +0.000 A 
ATOM      5  C   UNL     1     -18.387  41.797  -9.698  0.00  0.00    +0.000 A 
ATOM      6  C   UNL     1     -18.271  40.215 -11.919  0.00  0.00    +0.000 A 
ATOM      7  C   UNL     1     -17.392  41.263 -11.698  0.00  0.00    +0.000 A 
ATOM      8  H   UNL     1     -16.084  40.715 -13.244  0.00  0.00    +0.000 HD
ATOM      9  H   UNL     1     -15.757  42.260 -12.517  0.00  0.00    +0.000 HD
ENDROOT
BRANCH   3  12
ATOM     10  O   UNL     1     -20.990  39.497  -8.796  0.00  0.00    +0.000 OA
ATOM     11  N   UNL     1     -20.485  41.544  -7.832  0.00  0.00    +0.000 N 
ATOM     12  C   UNL     1     -20.346  40.541  -8.780  0.00  0.00    +0.000 C 
ATOM     13  H   UNL     1     -19.843  42.331  -7.825  0.00  0.00    +0.000 HD
BRANCH  11  14
ATOM     14  C   UNL     1     -21.425  41.456  -6.742  0.00  0.00    +0.000 C 
ATOM     15  C   UNL     1     -20.889  42.182  -5.513  0.00  0.00    +0.000 C 
ATOM     16  C   UNL     1     -22.780  42.010  -7.164  0.00  0.00    +0.000 C 
ENDBRANCH  11  14
ENDBRANCH   3  12
TORSDOF 2
ENDMDL
MODEL 3
REMARK VINA RESULT:    -5.310      3.720      5.178
REMARK INTER + INTRA:          -6.143
REMARK INTER:                  -5.900
REMARK INTRA:                  -0.243
REMARK UNBOUND:                -0.213
REMARK  Name = 57697946
REMARK  4 active torsions:
REMARK  status: ('A' for Active; 'I' for Inactive)
REMARK    1  A    between atoms: N_2  and  C_5
REMARK    2  A    between atoms: C_5  and  C_6
REMARK    3  A    between atoms: C_5  and  C_7
REMARK    4  A    between atoms: C_8  and  C_9
REMARK                            x       y       z     vdW  Elec       q    Type
REMARK                         _______ _______ _______ _____ _____    ______ ____
ROOT
ATOM      1  N   UNL     1     -17.669  42.328 -10.707  0.00  0.00    +0.000 NA
ATOM      2  N   UNL     1     -17.970  40.414  -9.321  0.00  0.00    +0.000 N 
ATOM      3  C   UNL     1     -18.913  42.509 -12.772  0.00  0.00    +0.000 A 
ATOM      4  C   UNL     1     -19.523  41.285 -12.520  0.00  0.00    +0.000 A 
ATOM      5  C   UNL     1     -18.001  42.983 -11.842  0.00  0.00    +0.000 A 
ATOM      6  C   UNL     1     -19.207  40.582 -11.362  0.00  0.00    +0.000 A 
ATOM      7  C   UNL     1     -18.282  41.142 -10.496  0.00  0.00    +0.000 A 
ATOM      8  H   UNL     1     -18.674  39.798  -8.935  0.00  0.00    +0.000 HD
ATOM      9  H   UNL     1     -17.298  40.831  -8.687  0.00  0.00    +0.000 HD
ENDROOT
BRANCH   3  12
ATOM     10  O   UNL     1     -18.556  44.274 -14.273  0.00  0.00    +0.000 OA
ATOM     11  N   UNL     1     -20.275  42.799 -14.771  0.00  0.00    +0.000 N 
ATOM     12  C   UNL     1     -19.229  43.284 -14.000  0.00  0.00    +0.000 C 
ATOM     13  H   UNL     1     -20.716  41.916 -14.533  0.00  0.00    +0.000 HD
BRANCH  11  14
ATOM     14  C   UNL     1     -20.687  43.427 -16.003  0.00  0.00    +0.000 C 
ATOM     15  C   UNL     1     -20.030  42.744 -17.196  0.00  0.00    +0.000 C 
ATOM     16  C   UNL     1     -22.205  43.412 -16.124  0.00  0.00    +0.000 C 
ENDBRANCH  11  14
ENDBRANCH   3  12
TORSDOF 2
ENDMDL
MODEL 4
REMARK VINA RESULT:    -5.302      2.382      5.633
REMARK INTER + INTRA:          -6.134
REMARK INTER:                  -5.943
REMARK INTRA:                  -0.191
REMARK UNBOUND:                -0.213
REMARK  Name = 57697946
REMARK  4 active torsions:
REMARK  status: ('A' for Active; 'I' for Inactive)
REMARK    1  A    between atoms: N_2  and  C_5
REMARK    2  A    between atoms: C_5  and  C_6
REMARK    3  A    between atoms: C_5  and  C_7
REMARK    4  A    between atoms: C_8  and  C_9
REMARK                            x       y       z     vdW  Elec       q    Type
REMARK                         _______ _______ _______ _____ _____    ______ ____
ROOT
ATOM      1  N   UNL     1     -16.907  42.443 -13.300  0.00  0.00    +0.000 NA
ATOM      2  N   UNL     1     -16.172  44.612 -13.955  0.00  0.00    +0.000 N 
ATOM      3  C   UNL     1     -17.757  42.100 -11.063  0.00  0.00    +0.000 A 
ATOM      4  C   UNL     1     -17.544  43.442 -10.769  0.00  0.00    +0.000 A 
ATOM      5  C   UNL     1     -17.424  41.654 -12.332  0.00  0.00    +0.000 A 
ATOM      6  C   UNL     1     -17.012  44.286 -11.739  0.00  0.00    +0.000 A 
ATOM      7  C   UNL     1     -16.713  43.741 -12.977  0.00  0.00    +0.000 A 
ATOM      8  H   UNL     1     -16.411  45.595 -13.910  0.00  0.00    +0.000 HD
ATOM      9  H   UNL     1     -15.961  44.212 -14.861  0.00  0.00    +0.000 HD
ENDROOT
BRANCH   3  12
ATOM     10  O   UNL     1     -18.050  39.979 -10.110  0.00  0.00    +0.000 OA
ATOM     11  N   UNL     1     -19.121  41.755  -9.074  0.00  0.00    +0.000 N 
ATOM     12  C   UNL     1     -18.323  41.174 -10.049  0.00  0.00    +0.000 C 
ATOM     13  H   UNL     1     -19.215  42.765  -9.030  0.00  0.00    +0.000 HD
BRANCH  11  14
ATOM     14  C   UNL     1     -19.723  40.993  -8.008  0.00  0.00    +0.000 C 
ATOM     15  C   UNL     1     -19.969  41.878  -6.792  0.00  0.00    +0.000 C 
ATOM     16  C   UNL     1     -21.013  40.340  -8.487  0.00  0.00    +0.000 C 
ENDBRANCH  11  14
ENDBRANCH   3  12
TORSDOF 2
ENDMDL
MODEL 5
REMARK VINA RESULT:    -4.810      4.345      5.573
REMARK INTER + INTRA:          -5.585
REMARK INTER:                  -5.377
REMARK INTRA:                  -0.208
REMARK UNBOUND:                -0.213
REMARK  Name = 57697946
REMARK  4 active torsions:
REMARK  status: ('A' for Active; 'I' for Inactive)
REMARK    1  A    between atoms: N_2  and  C_5
REMARK    2  A    between atoms: C_5  and  C_6
REMARK    3  A    between atoms: C_5  and  C_7
REMARK    4  A    between atoms: C_8  and  C_9
REMARK                            x       y       z     vdW  Elec       q    Type
REMARK                         _______ _______ _______ _____ _____    ______ ____
ROOT
ATOM      1  N   UNL     1     -19.707  40.810 -12.784  0.00  0.00    +0.000 NA
ATOM      2  N   UNL     1     -19.769  38.624 -11.838  0.00  0.00    +0.000 N 
ATOM      3  C   UNL     1     -17.715  42.157 -12.536  0.00  0.00    +0.000 A 
ATOM      4  C   UNL     1     -17.104  41.134 -11.821  0.00  0.00    +0.000 A 
ATOM      5  C   UNL     1     -19.008  41.947 -12.992  0.00  0.00    +0.000 A 
ATOM      6  C   UNL     1     -17.792  39.948 -11.587  0.00  0.00    +0.000 A 
ATOM      7  C   UNL     1     -19.080  39.837 -12.085  0.00  0.00    +0.000 A 
ATOM      8  H   UNL     1     -19.226  37.777 -11.723  0.00  0.00    +0.000 HD
ATOM      9  H   UNL     1     -20.708  38.545 -12.209  0.00  0.00    +0.000 HD
ENDROOT
BRANCH   3  12
ATOM     10  O   UNL     1     -15.818  43.411 -13.104  0.00  0.00    +0.000 OA
ATOM     11  N   UNL     1     -17.777  44.586 -12.709  0.00  0.00    +0.000 N 
ATOM     12  C   UNL     1     -17.007  43.436 -12.803  0.00  0.00    +0.000 C 
ATOM     13  H   UNL     1     -18.779  44.517 -12.558  0.00  0.00    +0.000 HD
BRANCH  11  14
ATOM     14  C   UNL     1     -17.241  45.901 -12.963  0.00  0.00    +0.000 C 
ATOM     15  C   UNL     1     -18.166  46.686 -13.886  0.00  0.00    +0.000 C 
ATOM     16  C   UNL     1     -17.010  46.641 -11.652  0.00  0.00    +0.000 C 
ENDBRANCH  11  14
ENDBRANCH   3  12
TORSDOF 2
ENDMDL
