MODEL 1
REMARK VINA RESULT:    -6.833      0.000      0.000
REMARK INTER + INTRA:          -7.040
REMARK INTER:                  -7.232
REMARK INTRA:                   0.192
REMARK UNBOUND:                 0.192
REMARK  Name = 57781845
REMARK  2 active torsions:
REMARK  status: ('A' for Active; 'I' for Inactive)
REMARK    1  A    between atoms: N_2  and  C_10
REMARK    2  A    between atoms: C_11  and  C_12
REMARK                            x       y       z     vdW  Elec       q    Type
REMARK                         _______ _______ _______ _____ _____    ______ ____
ROOT
ATOM      1  O   UNL     1     -18.944  39.291 -10.676  0.00  0.00    +0.000 OA
ATOM      2  N   UNL     1     -16.629  43.146 -12.854  0.00  0.00    +0.000 NA
ATOM      3  N   UNL     1     -18.422  41.453 -11.396  0.00  0.00    +0.000 N 
ATOM      4  C   UNL     1     -18.477  42.909 -11.224  0.00  0.00    +0.000 C 
ATOM      5  C   UNL     1     -17.847  41.010 -12.665  0.00  0.00    +0.000 C 
ATOM      6  C   UNL     1     -17.121  43.551 -11.529  0.00  0.00    +0.000 C 
ATOM      7  C   UNL     1     -16.501  41.683 -12.929  0.00  0.00    +0.000 C 
ATOM      8  C   UNL     1     -15.349  43.789 -13.146  0.00  0.00    +0.000 C 
ATOM      9  C   UNL     1     -18.930  40.509 -10.501  0.00  0.00    +0.000 C 
ENDROOT
BRANCH   9  12
ATOM     10  N   UNL     1     -19.241  42.247  -7.191  0.00  0.00    +0.000 NA
ATOM     11  N   UNL     1     -21.059  42.392  -5.659  0.00  0.00    +0.000 N 
ATOM     12  C   UNL     1     -19.508  40.990  -9.239  0.00  0.00    +0.000 A 
ATOM     13  C   UNL     1     -20.815  40.675  -8.884  0.00  0.00    +0.000 A 
ATOM     14  C   UNL     1     -18.769  41.772  -8.366  0.00  0.00    +0.000 A 
ATOM     15  C   UNL     1     -21.336  41.145  -7.683  0.00  0.00    +0.000 A 
ATOM     16  C   UNL     1     -20.515  41.920  -6.880  0.00  0.00    +0.000 A 
ATOM     17  H   UNL     1     -20.458  42.963  -5.078  0.00  0.00    +0.000 HD
ATOM     18  H   UNL     1     -22.060  42.536  -5.602  0.00  0.00    +0.000 HD
ENDBRANCH   9  12
TORSDOF 1
ENDMDL
MODEL 2
REMARK VINA RESULT:    -6.752      1.578      5.684
REMARK INTER + INTRA:          -6.955
REMARK INTER:                  -6.860
REMARK INTRA:                  -0.095
REMARK UNBOUND:                 0.192
REMARK  Name = 57781845
REMARK  2 active torsions:
REMARK  status: ('A' for Active; 'I' for Inactive)
REMARK    1  A    between atoms: N_2  and  C_10
REMARK    2  A    between atoms: C_11  and  C_12
REMARK                            x       y       z     vdW  Elec       q    Type
REMARK                         _______ _______ _______ _____ _____    ______ ____
ROOT
ATOM      1  O   UNL     1     -19.607  39.650 -11.265  0.00  0.00    +0.000 OA
ATOM      2  N   UNL     1     -21.027  41.539  -6.863  0.00  0.00    +0.000 NA
ATOM      3  N   UNL     1     -19.549  40.570  -9.116  0.00  0.00    +0.000 N 
ATOM      4  C   UNL     1     -18.880  41.366  -8.081  0.00  0.00    +0.000 C 
ATOM      5  C   UNL     1     -20.759  39.884  -8.670  0.00  0.00    +0.000 C 
ATOM      6  C   UNL     1     -19.871  42.292  -7.373  0.00  0.00    +0.000 C 
ATOM      7  C   UNL     1     -21.713  40.845  -7.962  0.00  0.00    +0.000 C 
ATOM      8  C   UNL     1     -21.951  42.429  -6.162  0.00  0.00    +0.000 C 
ATOM      9  C   UNL     1     -19.082  40.372 -10.418  0.00  0.00    +0.000 C 
ENDROOT
BRANCH   9  12
ATOM     10  N   UNL     1     -15.477  40.994 -11.247  0.00  0.00    +0.000 NA
ATOM     11  N   UNL     1     -14.353  42.962 -11.983  0.00  0.00    +0.000 N 
ATOM     12  C   UNL     1     -17.858  41.071 -10.830  0.00  0.00    +0.000 A 
ATOM     13  C   UNL     1     -17.885  42.415 -11.186  0.00  0.00    +0.000 A 
ATOM     14  C   UNL     1     -16.640  40.412 -10.876  0.00  0.00    +0.000 A 
ATOM     15  C   UNL     1     -16.709  43.050 -11.573  0.00  0.00    +0.000 A 
ATOM     16  C   UNL     1     -15.543  42.302 -11.587  0.00  0.00    +0.000 A 
ATOM     17  H   UNL     1     -13.505  42.411 -11.997  0.00  0.00    +0.000 HD
ATOM     18  H   UNL     1     -14.427  43.747 -12.620  0.00  0.00    +0.000 HD
ENDBRANCH   9  12
TORSDOF 1
ENDMDL
MODEL 3
REMARK VINA RESULT:    -6.468      1.358      5.688
REMARK INTER + INTRA:          -6.655
REMARK INTER:                  -6.573
REMARK INTRA:                  -0.082
REMARK UNBOUND:                 0.192
REMARK  Name = 57781845
REMARK  2 active torsions:
REMARK  status: ('A' for Active; 'I' for Inactive)
REMARK    1  A    between atoms: N_2  and  C_10
REMARK    2  A    between atoms: C_11  and  C_12
REMARK                            x       y       z     vdW  Elec       q    Type
REMARK                         _______ _______ _______ _____ _____    ______ ____
ROOT
ATOM      1  O   UNL     1     -19.419  40.479 -11.967  0.00  0.00    +0.000 OA
ATOM      2  N   UNL     1     -20.396  41.348  -7.145  0.00  0.00    +0.000 NA
ATOM      3  N   UNL     1     -19.153  40.982  -9.699  0.00  0.00    +0.000 N 
ATOM      4  C   UNL     1     -18.422  41.639  -8.610  0.00  0.00    +0.000 C 
ATOM      5  C   UNL     1     -20.232  40.098  -9.263  0.00  0.00    +0.000 C 
ATOM      6  C   UNL     1     -19.385  42.304  -7.623  0.00  0.00    +0.000 C 
ATOM      7  C   UNL     1     -21.160  40.801  -8.275  0.00  0.00    +0.000 C 
ATOM      8  C   UNL     1     -21.290  41.987  -6.181  0.00  0.00    +0.000 C 
ATOM      9  C   UNL     1     -18.848  41.083 -11.058  0.00  0.00    +0.000 C 
ENDROOT
BRANCH   9  12
ATOM     10  N   UNL     1     -15.378  42.331 -11.743  0.00  0.00    +0.000 NA
ATOM     11  N   UNL     1     -14.598  44.423 -12.575  0.00  0.00    +0.000 N 
ATOM     12  C   UNL     1     -17.752  41.975 -11.460  0.00  0.00    +0.000 A 
ATOM     13  C   UNL     1     -18.008  43.260 -11.925  0.00  0.00    +0.000 A 
ATOM     14  C   UNL     1     -16.432  41.562 -11.388  0.00  0.00    +0.000 A 
ATOM     15  C   UNL     1     -16.950  44.082 -12.299  0.00  0.00    +0.000 A 
ATOM     16  C   UNL     1     -15.666  43.575 -12.190  0.00  0.00    +0.000 A 
ATOM     17  H   UNL     1     -13.662  44.046 -12.499  0.00  0.00    +0.000 HD
ATOM     18  H   UNL     1     -14.775  45.132 -13.276  0.00  0.00    +0.000 HD
ENDBRANCH   9  12
TORSDOF 1
ENDMDL
MODEL 4
REMARK VINA RESULT:    -6.156      2.269      3.310
REMARK INTER + INTRA:          -6.325
REMARK INTER:                  -6.201
REMARK INTRA:                  -0.124
REMARK UNBOUND:                 0.192
REMARK  Name = 57781845
REMARK  2 active torsions:
REMARK  status: ('A' for Active; 'I' for Inactive)
REMARK    1  A    between atoms: N_2  and  C_10
REMARK    2  A    between atoms: C_11  and  C_12
REMARK                            x       y       z     vdW  Elec       q    Type
REMARK                         _______ _______ _______ _____ _____    ______ ____
ROOT
ATOM      1  O   UNL     1     -15.481  41.814 -11.258  0.00  0.00    +0.000 OA
ATOM      2  N   UNL     1     -17.445  45.762 -13.606  0.00  0.00    +0.000 NA
ATOM      3  N   UNL     1     -16.958  43.197 -12.429  0.00  0.00    +0.000 N 
ATOM      4  C   UNL     1     -18.321  43.592 -12.802  0.00  0.00    +0.000 C 
ATOM      5  C   UNL     1     -15.900  43.894 -13.159  0.00  0.00    +0.000 C 
ATOM      6  C   UNL     1     -18.478  45.114 -12.784  0.00  0.00    +0.000 C 
ATOM      7  C   UNL     1     -16.104  45.407 -13.120  0.00  0.00    +0.000 C 
ATOM      8  C   UNL     1     -17.624  47.213 -13.605  0.00  0.00    +0.000 C 
ATOM      9  C   UNL     1     -16.623  42.191 -11.520  0.00  0.00    +0.000 C 
ENDROOT
BRANCH   9  12
ATOM     10  N   UNL     1     -19.282  39.671 -10.717  0.00  0.00    +0.000 NA
ATOM     11  N   UNL     1     -20.784  39.507  -8.874  0.00  0.00    +0.000 N 
ATOM     12  C   UNL     1     -17.711  41.506 -10.810  0.00  0.00    +0.000 A 
ATOM     13  C   UNL     1     -18.202  41.998  -9.606  0.00  0.00    +0.000 A 
ATOM     14  C   UNL     1     -18.280  40.350 -11.319  0.00  0.00    +0.000 A 
ATOM     15  C   UNL     1     -19.233  41.328  -8.956  0.00  0.00    +0.000 A 
ATOM     16  C   UNL     1     -19.734  40.179  -9.548  0.00  0.00    +0.000 A 
ATOM     17  H   UNL     1     -21.142  38.665  -9.307  0.00  0.00    +0.000 HD
ATOM     18  H   UNL     1     -20.841  39.591  -7.867  0.00  0.00    +0.000 HD
ENDBRANCH   9  12
TORSDOF 1
ENDMDL
MODEL 5
REMARK VINA RESULT:    -6.102      1.784      5.866
REMARK INTER + INTRA:          -6.267
REMARK INTER:                  -6.383
REMARK INTRA:                   0.116
REMARK UNBOUND:                 0.192
REMARK  Name = 57781845
REMARK  2 active torsions:
REMARK  status: ('A' for Active; 'I' for Inactive)
REMARK    1  A    between atoms: N_2  and  C_10
REMARK    2  A    between atoms: C_11  and  C_12
REMARK                            x       y       z     vdW  Elec       q    Type
REMARK                         _______ _______ _______ _____ _____    ______ ____
ROOT
ATOM      1  O   UNL     1     -18.997  40.955 -13.396  0.00  0.00    +0.000 OA
ATOM      2  N   UNL     1     -19.105  40.928  -8.401  0.00  0.00    +0.000 NA
ATOM      3  N   UNL     1     -18.380  41.220 -11.156  0.00  0.00    +0.000 N 
ATOM      4  C   UNL     1     -17.606  41.901 -10.112  0.00  0.00    +0.000 C 
ATOM      5  C   UNL     1     -19.111  40.040 -10.700  0.00  0.00    +0.000 C 
ATOM      6  C   UNL     1     -18.465  42.164  -8.873  0.00  0.00    +0.000 C 
ATOM      7  C   UNL     1     -19.946  40.349  -9.459  0.00  0.00    +0.000 C 
ATOM      8  C   UNL     1     -19.898  41.187  -7.200  0.00  0.00    +0.000 C 
ATOM      9  C   UNL     1     -18.401  41.567 -12.509  0.00  0.00    +0.000 C 
ENDROOT
BRANCH   9  12
ATOM     10  N   UNL     1     -15.513  43.849 -13.232  0.00  0.00    +0.000 NA
ATOM     11  N   UNL     1     -15.444  46.062 -14.110  0.00  0.00    +0.000 N 
ATOM     12  C   UNL     1     -17.648  42.754 -12.933  0.00  0.00    +0.000 A 
ATOM     13  C   UNL     1     -18.302  43.879 -13.424  0.00  0.00    +0.000 A 
ATOM     14  C   UNL     1     -16.265  42.789 -12.858  0.00  0.00    +0.000 A 
ATOM     15  C   UNL     1     -17.563  44.990 -13.819  0.00  0.00    +0.000 A 
ATOM     16  C   UNL     1     -16.184  44.924 -13.704  0.00  0.00    +0.000 A 
ATOM     17  H   UNL     1     -14.436  46.008 -14.030  0.00  0.00    +0.000 HD
ATOM     18  H   UNL     1     -15.838  46.663 -14.825  0.00  0.00    +0.000 HD
ENDBRANCH   9  12
TORSDOF 1
ENDMDL
