MODEL 1
REMARK VINA RESULT:    -6.650      0.000      0.000
REMARK INTER + INTRA:          -9.574
REMARK INTER:                  -8.982
REMARK INTRA:                  -0.591
REMARK UNBOUND:                -0.591
REMARK  Name = 58155032
REMARK  8 active torsions:
REMARK  status: ('A' for Active; 'I' for Inactive)
REMARK    1  A    between atoms: N_2  and  C_6
REMARK    2  A    between atoms: N_2  and  C_7
REMARK    3  A    between atoms: N_2  and  C_8
REMARK    4  A    between atoms: N_3  and  C_9
REMARK    5  A    between atoms: C_6  and  C_9
REMARK    6  A    between atoms: C_7  and  C_10
REMARK    7  A    between atoms: C_8  and  C_11
REMARK    8  A    between atoms: C_12  and  C_13
REMARK                            x       y       z     vdW  Elec       q    Type
REMARK                         _______ _______ _______ _____ _____    ______ ____
ROOT
ATOM      1  O   UNL     1     -19.292  39.251 -10.862  0.00  0.00    +0.000 OA
ATOM      2  N   UNL     1     -17.386  40.490 -10.404  0.00  0.00    +0.000 N 
ATOM      3  C   UNL     1     -18.699  40.087 -10.187  0.00  0.00    +0.000 C 
ATOM      4  H   UNL     1     -16.941  41.149  -9.775  0.00  0.00    +0.000 HD
ENDROOT
BRANCH   3   7
ATOM      5  N   UNL     1     -19.348  42.304  -7.212  0.00  0.00    +0.000 NA
ATOM      6  N   UNL     1     -21.316  42.659  -5.917  0.00  0.00    +0.000 N 
ATOM      7  C   UNL     1     -19.410  40.753  -9.066  0.00  0.00    +0.000 A 
ATOM      8  C   UNL     1     -20.748  40.483  -8.805  0.00  0.00    +0.000 A 
ATOM      9  C   UNL     1     -18.761  41.664  -8.248  0.00  0.00    +0.000 A 
ATOM     10  C   UNL     1     -21.389  41.123  -7.749  0.00  0.00    +0.000 A 
ATOM     11  C   UNL     1     -20.650  42.016  -6.989  0.00  0.00    +0.000 A 
ATOM     12  H   UNL     1     -20.774  43.317  -5.368  0.00  0.00    +0.000 HD
ATOM     13  H   UNL     1     -22.316  42.803  -5.987  0.00  0.00    +0.000 HD
ENDBRANCH   3   7
BRANCH   2  14
ATOM     14  C   UNL     1     -16.576  39.957 -11.465  0.00  0.00    +0.000 C 
BRANCH  14  15
ATOM     15  C   UNL     1     -16.838  40.684 -12.776  0.00  0.00    +0.000 C 
BRANCH  15  16
ATOM     16  N   UNL     1     -17.128  42.096 -12.526  0.00  0.00    +0.000 NA
BRANCH  16  17
ATOM     17  C   UNL     1     -15.899  42.886 -12.574  0.00  0.00    +0.000 C 
ATOM     18  C   UNL     1     -16.144  44.244 -13.209  0.00  0.00    +0.000 C 
ENDBRANCH  16  17
BRANCH  16  19
ATOM     19  C   UNL     1     -18.097  42.598 -13.499  0.00  0.00    +0.000 C 
ATOM     20  C   UNL     1     -19.511  42.181 -13.132  0.00  0.00    +0.000 C 
ENDBRANCH  16  19
ENDBRANCH  15  16
ENDBRANCH  14  15
ENDBRANCH   2  14
TORSDOF 6
ENDMDL
MODEL 2
REMARK VINA RESULT:    -6.649      1.655      2.495
REMARK INTER + INTRA:          -9.573
REMARK INTER:                  -9.060
REMARK INTRA:                  -0.513
REMARK UNBOUND:                -0.591
REMARK  Name = 58155032
REMARK  8 active torsions:
REMARK  status: ('A' for Active; 'I' for Inactive)
REMARK    1  A    between atoms: N_2  and  C_6
REMARK    2  A    between atoms: N_2  and  C_7
REMARK    3  A    between atoms: N_2  and  C_8
REMARK    4  A    between atoms: N_3  and  C_9
REMARK    5  A    between atoms: C_6  and  C_9
REMARK    6  A    between atoms: C_7  and  C_10
REMARK    7  A    between atoms: C_8  and  C_11
REMARK    8  A    between atoms: C_12  and  C_13
REMARK                            x       y       z     vdW  Elec       q    Type
REMARK                         _______ _______ _______ _____ _____    ______ ____
ROOT
ATOM      1  O   UNL     1     -17.993  40.150  -8.942  0.00  0.00    +0.000 OA
ATOM      2  N   UNL     1     -19.755  39.915 -10.431  0.00  0.00    +0.000 N 
ATOM      3  C   UNL     1     -19.165  40.345  -9.248  0.00  0.00    +0.000 C 
ATOM      4  H   UNL     1     -20.717  40.156 -10.643  0.00  0.00    +0.000 HD
ENDROOT
BRANCH   3   7
ATOM      5  N   UNL     1     -22.282  41.469  -7.456  0.00  0.00    +0.000 NA
ATOM      6  N   UNL     1     -22.602  43.042  -5.695  0.00  0.00    +0.000 N 
ATOM      7  C   UNL     1     -20.053  41.069  -8.301  0.00  0.00    +0.000 A 
ATOM      8  C   UNL     1     -19.537  41.991  -7.399  0.00  0.00    +0.000 A 
ATOM      9  C   UNL     1     -21.420  40.845  -8.289  0.00  0.00    +0.000 A 
ATOM     10  C   UNL     1     -20.391  42.654  -6.524  0.00  0.00    +0.000 A 
ATOM     11  C   UNL     1     -21.744  42.359  -6.592  0.00  0.00    +0.000 A 
ATOM     12  H   UNL     1     -23.589  42.819  -5.743  0.00  0.00    +0.000 HD
ATOM     13  H   UNL     1     -22.223  43.352  -4.808  0.00  0.00    +0.000 HD
ENDBRANCH   3   7
BRANCH   2  14
ATOM     14  C   UNL     1     -19.035  39.181 -11.435  0.00  0.00    +0.000 C 
BRANCH  14  15
ATOM     15  C   UNL     1     -18.934  39.973 -12.730  0.00  0.00    +0.000 C 
BRANCH  15  16
ATOM     16  N   UNL     1     -17.535  40.276 -13.034  0.00  0.00    +0.000 NA
BRANCH  16  17
ATOM     17  C   UNL     1     -17.320  41.722 -13.064  0.00  0.00    +0.000 C 
ATOM     18  C   UNL     1     -18.533  42.446 -13.621  0.00  0.00    +0.000 C 
ENDBRANCH  16  17
BRANCH  16  19
ATOM     19  C   UNL     1     -16.652  39.647 -12.052  0.00  0.00    +0.000 C 
ATOM     20  C   UNL     1     -15.731  40.670 -11.407  0.00  0.00    +0.000 C 
ENDBRANCH  16  19
ENDBRANCH  15  16
ENDBRANCH  14  15
ENDBRANCH   2  14
TORSDOF 6
ENDMDL
MODEL 3
REMARK VINA RESULT:    -6.001      1.205      2.042
REMARK INTER + INTRA:          -8.697
REMARK INTER:                  -8.379
REMARK INTRA:                  -0.318
REMARK UNBOUND:                -0.591
REMARK  Name = 58155032
REMARK  8 active torsions:
REMARK  status: ('A' for Active; 'I' for Inactive)
REMARK    1  A    between atoms: N_2  and  C_6
REMARK    2  A    between atoms: N_2  and  C_7
REMARK    3  A    between atoms: N_2  and  C_8
REMARK    4  A    between atoms: N_3  and  C_9
REMARK    5  A    between atoms: C_6  and  C_9
REMARK    6  A    between atoms: C_7  and  C_10
REMARK    7  A    between atoms: C_8  and  C_11
REMARK    8  A    between atoms: C_12  and  C_13
REMARK                            x       y       z     vdW  Elec       q    Type
REMARK                         _______ _______ _______ _____ _____    ______ ____
ROOT
ATOM      1  O   UNL     1     -18.493  39.477 -10.520  0.00  0.00    +0.000 OA
ATOM      2  N   UNL     1     -17.330  41.437 -10.090  0.00  0.00    +0.000 N 
ATOM      3  C   UNL     1     -18.377  40.540  -9.917  0.00  0.00    +0.000 C 
ATOM      4  H   UNL     1     -17.270  42.273  -9.520  0.00  0.00    +0.000 HD
ENDROOT
BRANCH   3   7
ATOM      5  N   UNL     1     -21.701  40.729  -8.154  0.00  0.00    +0.000 NA
ATOM      6  N   UNL     1     -22.406  41.993  -6.261  0.00  0.00    +0.000 N 
ATOM      7  C   UNL     1     -19.425  40.939  -8.941  0.00  0.00    +0.000 A 
ATOM      8  C   UNL     1     -19.151  41.853  -7.931  0.00  0.00    +0.000 A 
ATOM      9  C   UNL     1     -20.704  40.410  -9.009  0.00  0.00    +0.000 A 
ATOM     10  C   UNL     1     -20.152  42.208  -7.031  0.00  0.00    +0.000 A 
ATOM     11  C   UNL     1     -21.398  41.622  -7.185  0.00  0.00    +0.000 A 
ATOM     12  H   UNL     1     -23.314  41.557  -6.373  0.00  0.00    +0.000 HD
ATOM     13  H   UNL     1     -22.126  42.285  -5.333  0.00  0.00    +0.000 HD
ENDBRANCH   3   7
BRANCH   2  14
ATOM     14  C   UNL     1     -16.254  41.205 -11.015  0.00  0.00    +0.000 C 
BRANCH  14  15
ATOM     15  C   UNL     1     -15.827  42.497 -11.698  0.00  0.00    +0.000 C 
BRANCH  15  16
ATOM     16  N   UNL     1     -16.567  42.681 -12.946  0.00  0.00    +0.000 NA
BRANCH  16  17
ATOM     17  C   UNL     1     -17.423  41.525 -13.209  0.00  0.00    +0.000 C 
ATOM     18  C   UNL     1     -18.836  41.956 -13.558  0.00  0.00    +0.000 C 
ENDBRANCH  16  17
BRANCH  16  19
ATOM     19  C   UNL     1     -17.364  43.906 -12.891  0.00  0.00    +0.000 C 
ATOM     20  C   UNL     1     -17.007  44.740 -11.672  0.00  0.00    +0.000 C 
ENDBRANCH  16  19
ENDBRANCH  15  16
ENDBRANCH  14  15
ENDBRANCH   2  14
TORSDOF 6
ENDMDL
MODEL 4
REMARK VINA RESULT:    -5.664      3.870      7.268
REMARK INTER + INTRA:          -8.242
REMARK INTER:                  -7.911
REMARK INTRA:                  -0.331
REMARK UNBOUND:                -0.591
REMARK  Name = 58155032
REMARK  8 active torsions:
REMARK  status: ('A' for Active; 'I' for Inactive)
REMARK    1  A    between atoms: N_2  and  C_6
REMARK    2  A    between atoms: N_2  and  C_7
REMARK    3  A    between atoms: N_2  and  C_8
REMARK    4  A    between atoms: N_3  and  C_9
REMARK    5  A    between atoms: C_6  and  C_9
REMARK    6  A    between atoms: C_7  and  C_10
REMARK    7  A    between atoms: C_8  and  C_11
REMARK    8  A    between atoms: C_12  and  C_13
REMARK                            x       y       z     vdW  Elec       q    Type
REMARK                         _______ _______ _______ _____ _____    ______ ____
ROOT
ATOM      1  O   UNL     1     -18.943  43.976 -13.814  0.00  0.00    +0.000 OA
ATOM      2  N   UNL     1     -19.765  41.807 -13.780  0.00  0.00    +0.000 N 
ATOM      3  C   UNL     1     -19.552  43.056 -14.353  0.00  0.00    +0.000 C 
ATOM      4  H   UNL     1     -20.232  41.075 -14.303  0.00  0.00    +0.000 HD
ENDROOT
BRANCH   3   7
ATOM      5  N   UNL     1     -19.790  43.612 -18.070  0.00  0.00    +0.000 NA
ATOM      6  N   UNL     1     -21.677  43.843 -19.507  0.00  0.00    +0.000 N 
ATOM      7  C   UNL     1     -20.136  43.263 -15.704  0.00  0.00    +0.000 A 
ATOM      8  C   UNL     1     -21.512  43.303 -15.890  0.00  0.00    +0.000 A 
ATOM      9  C   UNL     1     -19.325  43.421 -16.816  0.00  0.00    +0.000 A 
ATOM     10  C   UNL     1     -22.030  43.498 -17.167  0.00  0.00    +0.000 A 
ATOM     11  C   UNL     1     -21.134  43.646 -18.214  0.00  0.00    +0.000 A 
ATOM     12  H   UNL     1     -21.019  43.944 -20.271  0.00  0.00    +0.000 HD
ATOM     13  H   UNL     1     -22.591  43.458 -19.711  0.00  0.00    +0.000 HD
ENDBRANCH   3   7
BRANCH   2  14
ATOM     14  C   UNL     1     -19.285  41.462 -12.470  0.00  0.00    +0.000 C 
BRANCH  14  15
ATOM     15  C   UNL     1     -19.133  39.956 -12.318  0.00  0.00    +0.000 C 
BRANCH  15  16
ATOM     16  N   UNL     1     -18.602  39.629 -10.994  0.00  0.00    +0.000 NA
BRANCH  16  17
ATOM     17  C   UNL     1     -17.312  40.287 -10.784  0.00  0.00    +0.000 C 
ATOM     18  C   UNL     1     -16.236  39.678 -11.665  0.00  0.00    +0.000 C 
ENDBRANCH  16  17
BRANCH  16  19
ATOM     19  C   UNL     1     -19.551  40.018  -9.952  0.00  0.00    +0.000 C 
ATOM     20  C   UNL     1     -18.848  40.726  -8.806  0.00  0.00    +0.000 C 
ENDBRANCH  16  19
ENDBRANCH  15  16
ENDBRANCH  14  15
ENDBRANCH   2  14
TORSDOF 6
ENDMDL
MODEL 5
REMARK VINA RESULT:    -5.356      4.240      5.883
REMARK INTER + INTRA:          -7.827
REMARK INTER:                  -7.452
REMARK INTRA:                  -0.375
REMARK UNBOUND:                -0.591
REMARK  Name = 58155032
REMARK  8 active torsions:
REMARK  status: ('A' for Active; 'I' for Inactive)
REMARK    1  A    between atoms: N_2  and  C_6
REMARK    2  A    between atoms: N_2  and  C_7
REMARK    3  A    between atoms: N_2  and  C_8
REMARK    4  A    between atoms: N_3  and  C_9
REMARK    5  A    between atoms: C_6  and  C_9
REMARK    6  A    between atoms: C_7  and  C_10
REMARK    7  A    between atoms: C_8  and  C_11
REMARK    8  A    between atoms: C_12  and  C_13
REMARK                            x       y       z     vdW  Elec       q    Type
REMARK                         _______ _______ _______ _____ _____    ______ ____
ROOT
ATOM      1  O   UNL     1     -18.710  44.406 -13.958  0.00  0.00    +0.000 OA
ATOM      2  N   UNL     1     -19.664  42.466 -14.799  0.00  0.00    +0.000 N 
ATOM      3  C   UNL     1     -19.037  43.231 -13.821  0.00  0.00    +0.000 C 
ATOM      4  H   UNL     1     -19.952  41.515 -14.600  0.00  0.00    +0.000 HD
ENDROOT
BRANCH   3   7
ATOM      5  N   UNL     1     -19.128  40.662 -11.069  0.00  0.00    +0.000 NA
ATOM      6  N   UNL     1     -17.952  40.532  -9.001  0.00  0.00    +0.000 N 
ATOM      7  C   UNL     1     -18.734  42.537 -12.543  0.00  0.00    +0.000 A 
ATOM      8  C   UNL     1     -17.818  43.064 -11.641  0.00  0.00    +0.000 A 
ATOM      9  C   UNL     1     -19.357  41.343 -12.213  0.00  0.00    +0.000 A 
ATOM     10  C   UNL     1     -17.555  42.391 -10.452  0.00  0.00    +0.000 A 
ATOM     11  C   UNL     1     -18.230  41.205 -10.216  0.00  0.00    +0.000 A 
ATOM     12  H   UNL     1     -18.442  39.661  -8.834  0.00  0.00    +0.000 HD
ATOM     13  H   UNL     1     -17.039  40.655  -8.580  0.00  0.00    +0.000 HD
ENDBRANCH   3   7
BRANCH   2  14
ATOM     14  C   UNL     1     -19.999  42.988 -16.095  0.00  0.00    +0.000 C 
BRANCH  14  15
ATOM     15  C   UNL     1     -21.463  43.399 -16.162  0.00  0.00    +0.000 C 
BRANCH  15  16
ATOM     16  N   UNL     1     -21.771  43.973 -17.472  0.00  0.00    +0.000 NA
BRANCH  16  17
ATOM     17  C   UNL     1     -22.378  45.295 -17.321  0.00  0.00    +0.000 C 
ATOM     18  C   UNL     1     -23.893  45.200 -17.267  0.00  0.00    +0.000 C 
ENDBRANCH  16  17
BRANCH  16  19
ATOM     19  C   UNL     1     -20.563  44.055 -18.291  0.00  0.00    +0.000 C 
ATOM     20  C   UNL     1     -20.883  44.533 -19.697  0.00  0.00    +0.000 C 
ENDBRANCH  16  19
ENDBRANCH  15  16
ENDBRANCH  14  15
ENDBRANCH   2  14
TORSDOF 6
ENDMDL
