MODEL 1
REMARK VINA RESULT:    -6.216      0.000      0.000
REMARK INTER + INTRA:          -8.229
REMARK INTER:                  -7.488
REMARK INTRA:                  -0.741
REMARK UNBOUND:                -0.741
REMARK  Name = 58207556
REMARK  7 active torsions:
REMARK  status: ('A' for Active; 'I' for Inactive)
REMARK    1  A    between atoms: N_3  and  C_10
REMARK    2  A    between atoms: C_4  and  C_6
REMARK    3  A    between atoms: C_4  and  C_9
REMARK    4  A    between atoms: C_5  and  C_6
REMARK    5  A    between atoms: C_7  and  C_8
REMARK    6  A    between atoms: C_8  and  C_12
REMARK    7  A    between atoms: C_13  and  C_16
REMARK                            x       y       z     vdW  Elec       q    Type
REMARK                         _______ _______ _______ _____ _____    ______ ____
ROOT
ATOM      1  N   UNL     1     -20.639  40.183  -9.036  0.00  0.00    +0.000 NA
ATOM      2  C   UNL     1     -18.492  41.039  -9.745  0.00  0.00    +0.000 A 
ATOM      3  C   UNL     1     -19.588  40.203  -9.886  0.00  0.00    +0.000 A 
ATOM      4  C   UNL     1     -18.475  41.912  -8.662  0.00  0.00    +0.000 A 
ATOM      5  C   UNL     1     -19.538  41.920  -7.766  0.00  0.00    +0.000 A 
ATOM      6  C   UNL     1     -20.586  41.044  -7.995  0.00  0.00    +0.000 A 
ENDROOT
BRANCH   3   7
ATOM      7  N   UNL     1     -19.614  39.312 -10.988  0.00  0.00    +0.000 N 
ATOM      8  H   UNL     1     -20.496  38.851 -11.176  0.00  0.00    +0.000 HD
ATOM      9  H   UNL     1     -19.004  39.496 -11.775  0.00  0.00    +0.000 HD
ENDBRANCH   3   7
BRANCH   2  11
ATOM     10  O   UNL     1     -16.582  40.090 -10.716  0.00  0.00    +0.000 OA
ATOM     11  C   UNL     1     -17.357  41.040 -10.694  0.00  0.00    +0.000 C 
BRANCH  11  12
ATOM     12  C   UNL     1     -17.172  42.231 -11.580  0.00  0.00    +0.000 C 
ATOM     13  C   UNL     1     -18.299  42.723 -12.127  0.00  0.00    +0.000 C 
ATOM     14  C   UNL     1     -15.773  42.688 -11.869  0.00  0.00    +0.000 C 
BRANCH  13  15
ATOM     15  C   UNL     1     -18.392  43.868 -13.019  0.00  0.00    +0.000 C 
ATOM     16  C   UNL     1     -18.847  43.527 -14.410  0.00  0.00    +0.000 C 
ATOM     17  C   UNL     1     -18.131  45.140 -12.661  0.00  0.00    +0.000 C 
ATOM     18  C   UNL     1     -17.737  45.647 -11.310  0.00  0.00    +0.000 C 
ENDBRANCH  13  15
ENDBRANCH  11  12
ENDBRANCH   2  11
TORSDOF 4
ENDMDL
MODEL 2
REMARK VINA RESULT:    -5.936      1.420      2.167
REMARK INTER + INTRA:          -7.891
REMARK INTER:                  -7.046
REMARK INTRA:                  -0.844
REMARK UNBOUND:                -0.741
REMARK  Name = 58207556
REMARK  7 active torsions:
REMARK  status: ('A' for Active; 'I' for Inactive)
REMARK    1  A    between atoms: N_3  and  C_10
REMARK    2  A    between atoms: C_4  and  C_6
REMARK    3  A    between atoms: C_4  and  C_9
REMARK    4  A    between atoms: C_5  and  C_6
REMARK    5  A    between atoms: C_7  and  C_8
REMARK    6  A    between atoms: C_8  and  C_12
REMARK    7  A    between atoms: C_13  and  C_16
REMARK                            x       y       z     vdW  Elec       q    Type
REMARK                         _______ _______ _______ _____ _____    ______ ____
ROOT
ATOM      1  N   UNL     1     -19.818  39.933 -10.104  0.00  0.00    +0.000 NA
ATOM      2  C   UNL     1     -18.237  41.332 -11.284  0.00  0.00    +0.000 A 
ATOM      3  C   UNL     1     -19.219  40.354 -11.241  0.00  0.00    +0.000 A 
ATOM      4  C   UNL     1     -17.848  41.916 -10.084  0.00  0.00    +0.000 A 
ATOM      5  C   UNL     1     -18.441  41.509  -8.894  0.00  0.00    +0.000 A 
ATOM      6  C   UNL     1     -19.411  40.522  -8.958  0.00  0.00    +0.000 A 
ENDROOT
BRANCH   3   7
ATOM      7  N   UNL     1     -19.624  39.756 -12.460  0.00  0.00    +0.000 N 
ATOM      8  H   UNL     1     -20.340  40.240 -12.985  0.00  0.00    +0.000 HD
ATOM      9  H   UNL     1     -18.947  39.212 -12.982  0.00  0.00    +0.000 HD
ENDBRANCH   3   7
BRANCH   2  11
ATOM     10  O   UNL     1     -17.299  40.945 -13.396  0.00  0.00    +0.000 OA
ATOM     11  C   UNL     1     -17.603  41.774 -12.545  0.00  0.00    +0.000 C 
BRANCH  11  12
ATOM     12  C   UNL     1     -17.316  43.232 -12.724  0.00  0.00    +0.000 C 
ATOM     13  C   UNL     1     -18.399  44.022 -12.841  0.00  0.00    +0.000 C 
ATOM     14  C   UNL     1     -15.886  43.659 -12.874  0.00  0.00    +0.000 C 
BRANCH  13  15
ATOM     15  C   UNL     1     -18.394  45.465 -13.022  0.00  0.00    +0.000 C 
ATOM     16  C   UNL     1     -18.201  46.242 -11.750  0.00  0.00    +0.000 C 
ATOM     17  C   UNL     1     -18.517  46.087 -14.210  0.00  0.00    +0.000 C 
ATOM     18  C   UNL     1     -18.647  45.460 -15.562  0.00  0.00    +0.000 C 
ENDBRANCH  13  15
ENDBRANCH  11  12
ENDBRANCH   2  11
TORSDOF 4
ENDMDL
MODEL 3
REMARK VINA RESULT:    -5.815      1.229      2.023
REMARK INTER + INTRA:          -7.745
REMARK INTER:                  -6.826
REMARK INTRA:                  -0.920
REMARK UNBOUND:                -0.741
REMARK  Name = 58207556
REMARK  7 active torsions:
REMARK  status: ('A' for Active; 'I' for Inactive)
REMARK    1  A    between atoms: N_3  and  C_10
REMARK    2  A    between atoms: C_4  and  C_6
REMARK    3  A    between atoms: C_4  and  C_9
REMARK    4  A    between atoms: C_5  and  C_6
REMARK    5  A    between atoms: C_7  and  C_8
REMARK    6  A    between atoms: C_8  and  C_12
REMARK    7  A    between atoms: C_13  and  C_16
REMARK                            x       y       z     vdW  Elec       q    Type
REMARK                         _______ _______ _______ _____ _____    ______ ____
ROOT
ATOM      1  N   UNL     1     -19.818  39.664  -9.490  0.00  0.00    +0.000 NA
ATOM      2  C   UNL     1     -18.279  41.315 -10.355  0.00  0.00    +0.000 A 
ATOM      3  C   UNL     1     -19.033  40.158 -10.473  0.00  0.00    +0.000 A 
ATOM      4  C   UNL     1     -18.337  42.009  -9.151  0.00  0.00    +0.000 A 
ATOM      5  C   UNL     1     -19.133  41.531  -8.116  0.00  0.00    +0.000 A 
ATOM      6  C   UNL     1     -19.847  40.365  -8.334  0.00  0.00    +0.000 A 
ENDROOT
BRANCH   3   7
ATOM      7  N   UNL     1     -18.982  39.447 -11.697  0.00  0.00    +0.000 N 
ATOM      8  H   UNL     1     -18.919  38.439 -11.632  0.00  0.00    +0.000 HD
ATOM      9  H   UNL     1     -19.455  39.836 -12.504  0.00  0.00    +0.000 HD
ENDBRANCH   3   7
BRANCH   2  11
ATOM     10  O   UNL     1     -16.432  41.211 -11.793  0.00  0.00    +0.000 OA
ATOM     11  C   UNL     1     -17.431  41.834 -11.451  0.00  0.00    +0.000 C 
BRANCH  11  12
ATOM     12  C   UNL     1     -17.807  43.136 -12.086  0.00  0.00    +0.000 C 
ATOM     13  C   UNL     1     -17.106  44.205 -11.667  0.00  0.00    +0.000 C 
ATOM     14  C   UNL     1     -18.981  43.154 -13.020  0.00  0.00    +0.000 C 
BRANCH  13  15
ATOM     15  C   UNL     1     -17.275  45.575 -12.125  0.00  0.00    +0.000 C 
ATOM     16  C   UNL     1     -18.094  46.433 -11.202  0.00  0.00    +0.000 C 
ATOM     17  C   UNL     1     -16.737  46.077 -13.253  0.00  0.00    +0.000 C 
ATOM     18  C   UNL     1     -15.850  45.376 -14.233  0.00  0.00    +0.000 C 
ENDBRANCH  13  15
ENDBRANCH  11  12
ENDBRANCH   2  11
TORSDOF 4
ENDMDL
MODEL 4
REMARK VINA RESULT:    -5.063      3.573      6.152
REMARK INTER + INTRA:          -6.840
REMARK INTER:                  -6.043
REMARK INTRA:                  -0.798
REMARK UNBOUND:                -0.741
REMARK  Name = 58207556
REMARK  7 active torsions:
REMARK  status: ('A' for Active; 'I' for Inactive)
REMARK    1  A    between atoms: N_3  and  C_10
REMARK    2  A    between atoms: C_4  and  C_6
REMARK    3  A    between atoms: C_4  and  C_9
REMARK    4  A    between atoms: C_5  and  C_6
REMARK    5  A    between atoms: C_7  and  C_8
REMARK    6  A    between atoms: C_8  and  C_12
REMARK    7  A    between atoms: C_13  and  C_16
REMARK                            x       y       z     vdW  Elec       q    Type
REMARK                         _______ _______ _______ _____ _____    ______ ____
ROOT
ATOM      1  N   UNL     1     -19.232  45.162 -16.835  0.00  0.00    +0.000 NA
ATOM      2  C   UNL     1     -19.223  44.048 -14.689  0.00  0.00    +0.000 A 
ATOM      3  C   UNL     1     -18.837  45.067 -15.546  0.00  0.00    +0.000 A 
ATOM      4  C   UNL     1     -20.071  43.066 -15.187  0.00  0.00    +0.000 A 
ATOM      5  C   UNL     1     -20.499  43.129 -16.509  0.00  0.00    +0.000 A 
ATOM      6  C   UNL     1     -20.054  44.187 -17.284  0.00  0.00    +0.000 A 
ENDROOT
BRANCH   3   7
ATOM      7  N   UNL     1     -17.975  46.074 -15.044  0.00  0.00    +0.000 N 
ATOM      8  H   UNL     1     -18.390  46.982 -14.877  0.00  0.00    +0.000 HD
ATOM      9  H   UNL     1     -17.197  45.799 -14.457  0.00  0.00    +0.000 HD
ENDBRANCH   3   7
BRANCH   2  11
ATOM     10  O   UNL     1     -18.774  44.987 -12.589  0.00  0.00    +0.000 OA
ATOM     11  C   UNL     1     -18.776  43.974 -13.280  0.00  0.00    +0.000 C 
BRANCH  11  12
ATOM     12  C   UNL     1     -18.302  42.656 -12.753  0.00  0.00    +0.000 C 
ATOM     13  C   UNL     1     -19.209  41.959 -12.044  0.00  0.00    +0.000 C 
ATOM     14  C   UNL     1     -16.861  42.291 -12.954  0.00  0.00    +0.000 C 
BRANCH  13  15
ATOM     15  C   UNL     1     -19.001  40.658 -11.427  0.00  0.00    +0.000 C 
ATOM     16  C   UNL     1     -19.160  39.500 -12.372  0.00  0.00    +0.000 C 
ATOM     17  C   UNL     1     -18.666  40.468 -10.137  0.00  0.00    +0.000 C 
ATOM     18  C   UNL     1     -18.407  41.511  -9.096  0.00  0.00    +0.000 C 
ENDBRANCH  13  15
ENDBRANCH  11  12
ENDBRANCH   2  11
TORSDOF 4
ENDMDL
MODEL 5
REMARK VINA RESULT:    -4.966     17.573     20.343
REMARK INTER + INTRA:          -6.723
REMARK INTER:                  -5.736
REMARK INTRA:                  -0.987
REMARK UNBOUND:                -0.741
REMARK  Name = 58207556
REMARK  7 active torsions:
REMARK  status: ('A' for Active; 'I' for Inactive)
REMARK    1  A    between atoms: N_3  and  C_10
REMARK    2  A    between atoms: C_4  and  C_6
REMARK    3  A    between atoms: C_4  and  C_9
REMARK    4  A    between atoms: C_5  and  C_6
REMARK    5  A    between atoms: C_7  and  C_8
REMARK    6  A    between atoms: C_8  and  C_12
REMARK    7  A    between atoms: C_13  and  C_16
REMARK                            x       y       z     vdW  Elec       q    Type
REMARK                         _______ _______ _______ _____ _____    ______ ____
ROOT
ATOM      1  N   UNL     1     -24.924  27.168   5.956  0.00  0.00    +0.000 NA
ATOM      2  C   UNL     1     -23.244  28.906   5.944  0.00  0.00    +0.000 A 
ATOM      3  C   UNL     1     -23.727  27.662   5.570  0.00  0.00    +0.000 A 
ATOM      4  C   UNL     1     -24.042  29.693   6.768  0.00  0.00    +0.000 A 
ATOM      5  C   UNL     1     -25.280  29.218   7.187  0.00  0.00    +0.000 A 
ATOM      6  C   UNL     1     -25.671  27.960   6.758  0.00  0.00    +0.000 A 
ENDROOT
BRANCH   3   7
ATOM      7  N   UNL     1     -22.921  26.855   4.728  0.00  0.00    +0.000 N 
ATOM      8  H   UNL     1     -22.637  27.264   3.846  0.00  0.00    +0.000 HD
ATOM      9  H   UNL     1     -22.298  26.181   5.155  0.00  0.00    +0.000 HD
ENDBRANCH   3   7
BRANCH   2  11
ATOM     10  O   UNL     1     -20.910  28.792   5.762  0.00  0.00    +0.000 OA
ATOM     11  C   UNL     1     -21.930  29.422   5.501  0.00  0.00    +0.000 C 
BRANCH  11  12
ATOM     12  C   UNL     1     -21.887  30.728   4.773  0.00  0.00    +0.000 C 
ATOM     13  C   UNL     1     -22.479  30.734   3.564  0.00  0.00    +0.000 C 
ATOM     14  C   UNL     1     -21.107  31.854   5.385  0.00  0.00    +0.000 C 
BRANCH  13  15
ATOM     15  C   UNL     1     -22.575  31.870   2.661  0.00  0.00    +0.000 C 
ATOM     16  C   UNL     1     -23.688  32.824   2.992  0.00  0.00    +0.000 C 
ATOM     17  C   UNL     1     -21.743  32.098   1.627  0.00  0.00    +0.000 C 
ATOM     18  C   UNL     1     -20.557  31.286   1.211  0.00  0.00    +0.000 C 
ENDBRANCH  13  15
ENDBRANCH  11  12
ENDBRANCH   2  11
TORSDOF 4
ENDMDL
