MODEL 1
REMARK VINA RESULT:    -8.393      0.000      0.000
REMARK INTER + INTRA:         -10.336
REMARK INTER:                  -9.864
REMARK INTRA:                  -0.472
REMARK UNBOUND:                -0.472
REMARK  Name = 58337908
REMARK  3 active torsions:
REMARK  status: ('A' for Active; 'I' for Inactive)
REMARK    1  A    between atoms: N_3  and  C_11
REMARK    2  A    between atoms: C_6  and  C_11
REMARK    3  A    between atoms: C_15  and  C_17
REMARK                            x       y       z     vdW  Elec       q    Type
REMARK                         _______ _______ _______ _____ _____    ______ ____
ROOT
ATOM      1  N   UNL     1     -17.658  40.984  -9.483  0.00  0.00    +0.000 N 
ATOM      2  N   UNL     1     -18.853  42.086  -7.775  0.00  0.00    +0.000 NA
ATOM      3  C   UNL     1     -18.847  41.205  -8.800  0.00  0.00    +0.000 A 
ATOM      4  C   UNL     1     -19.961  40.499  -9.222  0.00  0.00    +0.000 A 
ATOM      5  C   UNL     1     -21.160  40.711  -8.549  0.00  0.00    +0.000 A 
ATOM      6  C   UNL     1     -21.205  41.609  -7.488  0.00  0.00    +0.000 A 
ATOM      7  C   UNL     1     -20.034  42.266  -7.143  0.00  0.00    +0.000 A 
ATOM      8  H   UNL     1     -16.851  41.507  -9.161  0.00  0.00    +0.000 HD
ENDROOT
BRANCH   6  11
ATOM      9  O   UNL     1     -23.354  41.008  -6.736  0.00  0.00    +0.000 OA
ATOM     10  N   UNL     1     -22.567  43.059  -6.081  0.00  0.00    +0.000 N 
ATOM     11  C   UNL     1     -22.441  41.852  -6.764  0.00  0.00    +0.000 C 
ATOM     12  H   UNL     1     -21.872  43.794  -6.050  0.00  0.00    +0.000 HD
ATOM     13  H   UNL     1     -23.418  43.252  -5.562  0.00  0.00    +0.000 HD
ENDBRANCH   6  11
BRANCH   1  14
ATOM     14  C   UNL     1     -17.527  40.072 -10.589  0.00  0.00    +0.000 C 
BRANCH  14  16
ATOM     15  N   UNL     1     -17.654  43.301 -13.462  0.00  0.00    +0.000 NA
ATOM     16  C   UNL     1     -17.292  40.855 -11.878  0.00  0.00    +0.000 C 
ATOM     17  C   UNL     1     -16.493  42.136 -11.606  0.00  0.00    +0.000 C 
ATOM     18  C   UNL     1     -18.620  41.203 -12.562  0.00  0.00    +0.000 C 
ATOM     19  C   UNL     1     -16.352  42.979 -12.874  0.00  0.00    +0.000 C 
ATOM     20  C   UNL     1     -18.395  42.082 -13.792  0.00  0.00    +0.000 C 
ATOM     21  H   UNL     1     -17.514  43.849 -14.310  0.00  0.00    +0.000 HD
ENDBRANCH  14  16
ENDBRANCH   1  14
TORSDOF 3
ENDMDL
MODEL 2
REMARK VINA RESULT:    -6.837      2.783      6.184
REMARK INTER + INTRA:          -8.508
REMARK INTER:                  -8.094
REMARK INTRA:                  -0.414
REMARK UNBOUND:                -0.472
REMARK  Name = 58337908
REMARK  3 active torsions:
REMARK  status: ('A' for Active; 'I' for Inactive)
REMARK    1  A    between atoms: N_3  and  C_11
REMARK    2  A    between atoms: C_6  and  C_11
REMARK    3  A    between atoms: C_15  and  C_17
REMARK                            x       y       z     vdW  Elec       q    Type
REMARK                         _______ _______ _______ _____ _____    ______ ____
ROOT
ATOM      1  N   UNL     1     -17.755  41.541 -10.047  0.00  0.00    +0.000 N 
ATOM      2  N   UNL     1     -17.721  43.182 -11.740  0.00  0.00    +0.000 NA
ATOM      3  C   UNL     1     -18.191  42.001 -11.282  0.00  0.00    +0.000 A 
ATOM      4  C   UNL     1     -19.092  41.205 -11.972  0.00  0.00    +0.000 A 
ATOM      5  C   UNL     1     -19.538  41.650 -13.212  0.00  0.00    +0.000 A 
ATOM      6  C   UNL     1     -19.077  42.862 -13.715  0.00  0.00    +0.000 A 
ATOM      7  C   UNL     1     -18.177  43.583 -12.948  0.00  0.00    +0.000 A 
ATOM      8  H   UNL     1     -17.097  42.135  -9.554  0.00  0.00    +0.000 HD
ENDROOT
BRANCH   6  11
ATOM      9  O   UNL     1     -19.960  42.585 -15.881  0.00  0.00    +0.000 OA
ATOM     10  N   UNL     1     -19.468  44.728 -15.232  0.00  0.00    +0.000 N 
ATOM     11  C   UNL     1     -19.524  43.355 -15.006  0.00  0.00    +0.000 C 
ATOM     12  H   UNL     1     -19.133  45.420 -14.574  0.00  0.00    +0.000 HD
ATOM     13  H   UNL     1     -19.780  45.100 -16.123  0.00  0.00    +0.000 HD
ENDBRANCH   6  11
BRANCH   1  14
ATOM     14  C   UNL     1     -18.183  40.301  -9.455  0.00  0.00    +0.000 C 
BRANCH  14  16
ATOM     15  N   UNL     1     -21.511  42.100  -7.361  0.00  0.00    +0.000 NA
ATOM     16  C   UNL     1     -19.204  40.580  -8.354  0.00  0.00    +0.000 C 
ATOM     17  C   UNL     1     -20.632  40.324  -8.850  0.00  0.00    +0.000 C 
ATOM     18  C   UNL     1     -19.080  42.019  -7.839  0.00  0.00    +0.000 C 
ATOM     19  C   UNL     1     -21.664  40.708  -7.789  0.00  0.00    +0.000 C 
ATOM     20  C   UNL     1     -20.171  42.336  -6.818  0.00  0.00    +0.000 C 
ATOM     21  H   UNL     1     -22.205  42.310  -6.644  0.00  0.00    +0.000 HD
ENDBRANCH  14  16
ENDBRANCH   1  14
TORSDOF 3
ENDMDL
MODEL 3
REMARK VINA RESULT:    -6.441      4.979      8.334
REMARK INTER + INTRA:          -8.043
REMARK INTER:                  -7.743
REMARK INTRA:                  -0.300
REMARK UNBOUND:                -0.472
REMARK  Name = 58337908
REMARK  3 active torsions:
REMARK  status: ('A' for Active; 'I' for Inactive)
REMARK    1  A    between atoms: N_3  and  C_11
REMARK    2  A    between atoms: C_6  and  C_11
REMARK    3  A    between atoms: C_15  and  C_17
REMARK                            x       y       z     vdW  Elec       q    Type
REMARK                         _______ _______ _______ _____ _____    ______ ____
ROOT
ATOM      1  N   UNL     1     -19.426  42.394 -14.509  0.00  0.00    +0.000 N 
ATOM      2  N   UNL     1     -20.352  42.309 -16.676  0.00  0.00    +0.000 NA
ATOM      3  C   UNL     1     -19.779  43.034 -15.690  0.00  0.00    +0.000 A 
ATOM      4  C   UNL     1     -19.517  44.392 -15.777  0.00  0.00    +0.000 A 
ATOM      5  C   UNL     1     -19.866  45.048 -16.953  0.00  0.00    +0.000 A 
ATOM      6  C   UNL     1     -20.457  44.335 -17.990  0.00  0.00    +0.000 A 
ATOM      7  C   UNL     1     -20.677  42.979 -17.804  0.00  0.00    +0.000 A 
ATOM      8  H   UNL     1     -19.623  41.401 -14.461  0.00  0.00    +0.000 HD
ENDROOT
BRANCH   6  11
ATOM      9  O   UNL     1     -20.912  46.229 -19.313  0.00  0.00    +0.000 OA
ATOM     10  N   UNL     1     -21.083  44.187 -20.340  0.00  0.00    +0.000 N 
ATOM     11  C   UNL     1     -20.832  44.990 -19.231  0.00  0.00    +0.000 C 
ATOM     12  H   UNL     1     -21.035  43.176 -20.358  0.00  0.00    +0.000 HD
ATOM     13  H   UNL     1     -21.342  44.619 -21.222  0.00  0.00    +0.000 HD
ENDBRANCH   6  11
BRANCH   1  14
ATOM     14  C   UNL     1     -18.811  43.058 -13.390  0.00  0.00    +0.000 C 
BRANCH  14  16
ATOM     15  N   UNL     1     -18.076  39.225 -11.530  0.00  0.00    +0.000 NA
ATOM     16  C   UNL     1     -18.398  42.028 -12.342  0.00  0.00    +0.000 C 
ATOM     17  C   UNL     1     -17.249  41.150 -12.855  0.00  0.00    +0.000 C 
ATOM     18  C   UNL     1     -19.586  41.148 -11.935  0.00  0.00    +0.000 C 
ATOM     19  C   UNL     1     -16.908  40.046 -11.855  0.00  0.00    +0.000 C 
ATOM     20  C   UNL     1     -19.152  40.045 -10.970  0.00  0.00    +0.000 C 
ATOM     21  H   UNL     1     -17.808  38.513 -10.850  0.00  0.00    +0.000 HD
ENDBRANCH  14  16
ENDBRANCH   1  14
TORSDOF 3
ENDMDL
MODEL 4
REMARK VINA RESULT:    -6.129      2.900      6.456
REMARK INTER + INTRA:          -7.675
REMARK INTER:                  -7.584
REMARK INTRA:                  -0.091
REMARK UNBOUND:                -0.472
REMARK  Name = 58337908
REMARK  3 active torsions:
REMARK  status: ('A' for Active; 'I' for Inactive)
REMARK    1  A    between atoms: N_3  and  C_11
REMARK    2  A    between atoms: C_6  and  C_11
REMARK    3  A    between atoms: C_15  and  C_17
REMARK                            x       y       z     vdW  Elec       q    Type
REMARK                         _______ _______ _______ _____ _____    ______ ____
ROOT
ATOM      1  N   UNL     1     -18.766  39.922  -9.632  0.00  0.00    +0.000 N 
ATOM      2  N   UNL     1     -16.717  40.713 -10.488  0.00  0.00    +0.000 NA
ATOM      3  C   UNL     1     -18.064  40.806 -10.440  0.00  0.00    +0.000 A 
ATOM      4  C   UNL     1     -18.803  41.737 -11.152  0.00  0.00    +0.000 A 
ATOM      5  C   UNL     1     -18.115  42.629 -11.967  0.00  0.00    +0.000 A 
ATOM      6  C   UNL     1     -16.728  42.564 -12.042  0.00  0.00    +0.000 A 
ATOM      7  C   UNL     1     -16.081  41.597 -11.290  0.00  0.00    +0.000 A 
ATOM      8  H   UNL     1     -18.211  39.248  -9.116  0.00  0.00    +0.000 HD
ENDROOT
BRANCH   6  11
ATOM      9  O   UNL     1     -16.554  44.306 -13.618  0.00  0.00    +0.000 OA
ATOM     10  N   UNL     1     -14.590  43.427 -12.829  0.00  0.00    +0.000 N 
ATOM     11  C   UNL     1     -15.980  43.482 -12.884  0.00  0.00    +0.000 C 
ATOM     12  H   UNL     1     -14.047  42.792 -12.258  0.00  0.00    +0.000 HD
ATOM     13  H   UNL     1     -14.041  44.061 -13.403  0.00  0.00    +0.000 HD
ENDBRANCH   6  11
BRANCH   1  14
ATOM     14  C   UNL     1     -20.199  39.923  -9.498  0.00  0.00    +0.000 C 
BRANCH  14  16
ATOM     15  N   UNL     1     -21.408  41.865  -5.829  0.00  0.00    +0.000 NA
ATOM     16  C   UNL     1     -20.626  41.024  -8.531  0.00  0.00    +0.000 C 
ATOM     17  C   UNL     1     -19.610  41.183  -7.394  0.00  0.00    +0.000 C 
ATOM     18  C   UNL     1     -22.018  40.742  -7.953  0.00  0.00    +0.000 C 
ATOM     19  C   UNL     1     -20.088  42.206  -6.364  0.00  0.00    +0.000 C 
ATOM     20  C   UNL     1     -22.401  41.782  -6.902  0.00  0.00    +0.000 C 
ATOM     21  H   UNL     1     -21.695  42.579  -5.160  0.00  0.00    +0.000 HD
ENDBRANCH  14  16
ENDBRANCH   1  14
TORSDOF 3
ENDMDL
MODEL 5
REMARK VINA RESULT:    -5.962      3.846      6.012
REMARK INTER + INTRA:          -7.479
REMARK INTER:                  -7.235
REMARK INTRA:                  -0.243
REMARK UNBOUND:                -0.472
REMARK  Name = 58337908
REMARK  3 active torsions:
REMARK  status: ('A' for Active; 'I' for Inactive)
REMARK    1  A    between atoms: N_3  and  C_11
REMARK    2  A    between atoms: C_6  and  C_11
REMARK    3  A    between atoms: C_15  and  C_17
REMARK                            x       y       z     vdW  Elec       q    Type
REMARK                         _______ _______ _______ _____ _____    ______ ____
ROOT
ATOM      1  N   UNL     1     -18.798  43.628 -14.863  0.00  0.00    +0.000 N 
ATOM      2  N   UNL     1     -17.780  43.926 -12.757  0.00  0.00    +0.000 NA
ATOM      3  C   UNL     1     -18.594  43.202 -13.556  0.00  0.00    +0.000 A 
ATOM      4  C   UNL     1     -19.248  42.048 -13.157  0.00  0.00    +0.000 A 
ATOM      5  C   UNL     1     -19.055  41.608 -11.851  0.00  0.00    +0.000 A 
ATOM      6  C   UNL     1     -18.224  42.327 -10.999  0.00  0.00    +0.000 A 
ATOM      7  C   UNL     1     -17.615  43.469 -11.495  0.00  0.00    +0.000 A 
ATOM      8  H   UNL     1     -18.312  44.473 -15.140  0.00  0.00    +0.000 HD
ENDROOT
BRANCH   6  11
ATOM      9  O   UNL     1     -18.082  42.689  -8.676  0.00  0.00    +0.000 OA
ATOM     10  N   UNL     1     -17.711  40.550  -9.413  0.00  0.00    +0.000 N 
ATOM     11  C   UNL     1     -18.001  41.895  -9.630  0.00  0.00    +0.000 C 
ATOM     12  H   UNL     1     -17.632  39.841 -10.131  0.00  0.00    +0.000 HD
ATOM     13  H   UNL     1     -17.556  40.219  -8.465  0.00  0.00    +0.000 HD
ENDBRANCH   6  11
BRANCH   1  14
ATOM     14  C   UNL     1     -19.641  42.942 -15.807  0.00  0.00    +0.000 C 
BRANCH  14  16
ATOM     15  N   UNL     1     -21.928  44.521 -19.119  0.00  0.00    +0.000 NA
ATOM     16  C   UNL     1     -20.277  43.952 -16.759  0.00  0.00    +0.000 C 
ATOM     17  C   UNL     1     -21.806  43.840 -16.738  0.00  0.00    +0.000 C 
ATOM     18  C   UNL     1     -19.759  43.763 -18.190  0.00  0.00    +0.000 C 
ATOM     19  C   UNL     1     -22.443  44.770 -17.771  0.00  0.00    +0.000 C 
ATOM     20  C   UNL     1     -20.475  44.697 -19.165  0.00  0.00    +0.000 C 
ATOM     21  H   UNL     1     -22.365  45.171 -19.772  0.00  0.00    +0.000 HD
ENDBRANCH  14  16
ENDBRANCH   1  14
TORSDOF 3
ENDMDL
