MODEL 1
REMARK VINA RESULT:    -7.291      0.000      0.000
REMARK INTER + INTRA:         -10.002
REMARK INTER:                  -9.636
REMARK INTRA:                  -0.366
REMARK UNBOUND:                -0.366
REMARK  Name = 58337917
REMARK  6 active torsions:
REMARK  status: ('A' for Active; 'I' for Inactive)
REMARK    1  A    between atoms: N_2  and  C_8
REMARK    2  A    between atoms: N_3  and  C_9
REMARK    3  A    between atoms: C_6  and  C_7
REMARK    4  A    between atoms: C_6  and  C_8
REMARK    5  A    between atoms: C_7  and  C_9
REMARK    6  A    between atoms: C_13  and  C_15
REMARK                            x       y       z     vdW  Elec       q    Type
REMARK                         _______ _______ _______ _____ _____    ______ ____
ROOT
ATOM      1  N   UNL     1     -17.601  41.046  -9.380  0.00  0.00    +0.000 N 
ATOM      2  N   UNL     1     -18.872  42.155  -7.735  0.00  0.00    +0.000 NA
ATOM      3  C   UNL     1     -18.810  41.243  -8.731  0.00  0.00    +0.000 A 
ATOM      4  C   UNL     1     -19.888  40.482  -9.155  0.00  0.00    +0.000 A 
ATOM      5  C   UNL     1     -21.107  40.669  -8.513  0.00  0.00    +0.000 A 
ATOM      6  C   UNL     1     -21.210  41.597  -7.483  0.00  0.00    +0.000 A 
ATOM      7  C   UNL     1     -20.074  42.308  -7.135  0.00  0.00    +0.000 A 
ATOM      8  H   UNL     1     -16.817  41.607  -9.065  0.00  0.00    +0.000 HD
ENDROOT
BRANCH   6  11
ATOM      9  O   UNL     1     -23.378  40.963  -6.815  0.00  0.00    +0.000 OA
ATOM     10  N   UNL     1     -22.629  43.006  -6.089  0.00  0.00    +0.000 N 
ATOM     11  C   UNL     1     -22.470  41.815  -6.794  0.00  0.00    +0.000 C 
ATOM     12  H   UNL     1     -21.940  43.744  -6.020  0.00  0.00    +0.000 HD
ATOM     13  H   UNL     1     -23.497  43.181  -5.593  0.00  0.00    +0.000 HD
ENDBRANCH   6  11
BRANCH   1  14
ATOM     14  C   UNL     1     -17.413  40.103 -10.456  0.00  0.00    +0.000 C 
BRANCH  14  15
ATOM     15  C   UNL     1     -16.707  40.758 -11.641  0.00  0.00    +0.000 C 
BRANCH  15  16
ATOM     16  C   UNL     1     -17.526  40.667 -12.935  0.00  0.00    +0.000 C 
BRANCH  16  17
ATOM     17  C   UNL     1     -18.764  39.779 -12.799  0.00  0.00    +0.000 C 
BRANCH  17  18
ATOM     18  N   UNL     1     -19.991  40.562 -12.726  0.00  0.00    +0.000 NA
ATOM     19  H   UNL     1     -20.744  40.057 -13.193  0.00  0.00    +0.000 HD
ATOM     20  H   UNL     1     -19.871  41.435 -13.240  0.00  0.00    +0.000 HD
ENDBRANCH  17  18
ENDBRANCH  16  17
ENDBRANCH  15  16
ENDBRANCH  14  15
ENDBRANCH   1  14
TORSDOF 6
ENDMDL
MODEL 2
REMARK VINA RESULT:    -7.059      1.283      2.095
REMARK INTER + INTRA:          -9.694
REMARK INTER:                  -9.337
REMARK INTRA:                  -0.357
REMARK UNBOUND:                -0.366
REMARK  Name = 58337917
REMARK  6 active torsions:
REMARK  status: ('A' for Active; 'I' for Inactive)
REMARK    1  A    between atoms: N_2  and  C_8
REMARK    2  A    between atoms: N_3  and  C_9
REMARK    3  A    between atoms: C_6  and  C_7
REMARK    4  A    between atoms: C_6  and  C_8
REMARK    5  A    between atoms: C_7  and  C_9
REMARK    6  A    between atoms: C_13  and  C_15
REMARK                            x       y       z     vdW  Elec       q    Type
REMARK                         _______ _______ _______ _____ _____    ______ ____
ROOT
ATOM      1  N   UNL     1     -17.652  40.984  -9.426  0.00  0.00    +0.000 N 
ATOM      2  N   UNL     1     -18.858  42.047  -7.703  0.00  0.00    +0.000 NA
ATOM      3  C   UNL     1     -18.847  41.200  -8.758  0.00  0.00    +0.000 A 
ATOM      4  C   UNL     1     -19.965  40.526  -9.222  0.00  0.00    +0.000 A 
ATOM      5  C   UNL     1     -21.171  40.733  -8.561  0.00  0.00    +0.000 A 
ATOM      6  C   UNL     1     -21.222  41.597  -7.472  0.00  0.00    +0.000 A 
ATOM      7  C   UNL     1     -20.048  42.223  -7.087  0.00  0.00    +0.000 A 
ATOM      8  H   UNL     1     -16.839  41.481  -9.081  0.00  0.00    +0.000 HD
ENDROOT
BRANCH   6  11
ATOM      9  O   UNL     1     -23.381  40.990  -6.755  0.00  0.00    +0.000 OA
ATOM     10  N   UNL     1     -22.600  43.034  -6.068  0.00  0.00    +0.000 N 
ATOM     11  C   UNL     1     -22.466  41.834  -6.762  0.00  0.00    +0.000 C 
ATOM     12  H   UNL     1     -21.903  43.766  -6.021  0.00  0.00    +0.000 HD
ATOM     13  H   UNL     1     -23.457  43.223  -5.558  0.00  0.00    +0.000 HD
ENDBRANCH   6  11
BRANCH   1  14
ATOM     14  C   UNL     1     -17.518  40.104 -10.562  0.00  0.00    +0.000 C 
BRANCH  14  15
ATOM     15  C   UNL     1     -16.813  40.808 -11.719  0.00  0.00    +0.000 C 
BRANCH  15  16
ATOM     16  C   UNL     1     -16.637  42.312 -11.472  0.00  0.00    +0.000 C 
BRANCH  16  17
ATOM     17  C   UNL     1     -15.170  42.743 -11.426  0.00  0.00    +0.000 C 
BRANCH  17  18
ATOM     18  N   UNL     1     -14.291  41.645 -11.045  0.00  0.00    +0.000 NA
ATOM     19  H   UNL     1     -14.593  41.264 -10.150  0.00  0.00    +0.000 HD
ATOM     20  H   UNL     1     -13.345  41.998 -10.901  0.00  0.00    +0.000 HD
ENDBRANCH  17  18
ENDBRANCH  16  17
ENDBRANCH  15  16
ENDBRANCH  14  15
ENDBRANCH   1  14
TORSDOF 6
ENDMDL
MODEL 3
REMARK VINA RESULT:    -6.366      3.176      6.415
REMARK INTER + INTRA:          -8.779
REMARK INTER:                  -8.495
REMARK INTRA:                  -0.284
REMARK UNBOUND:                -0.366
REMARK  Name = 58337917
REMARK  6 active torsions:
REMARK  status: ('A' for Active; 'I' for Inactive)
REMARK    1  A    between atoms: N_2  and  C_8
REMARK    2  A    between atoms: N_3  and  C_9
REMARK    3  A    between atoms: C_6  and  C_7
REMARK    4  A    between atoms: C_6  and  C_8
REMARK    5  A    between atoms: C_7  and  C_9
REMARK    6  A    between atoms: C_13  and  C_15
REMARK                            x       y       z     vdW  Elec       q    Type
REMARK                         _______ _______ _______ _____ _____    ______ ____
ROOT
ATOM      1  N   UNL     1     -20.188  40.089  -9.959  0.00  0.00    +0.000 N 
ATOM      2  N   UNL     1     -19.320  40.804 -12.030  0.00  0.00    +0.000 NA
ATOM      3  C   UNL     1     -19.302  40.875 -10.680  0.00  0.00    +0.000 A 
ATOM      4  C   UNL     1     -18.445  41.690  -9.958  0.00  0.00    +0.000 A 
ATOM      5  C   UNL     1     -17.551  42.484 -10.667  0.00  0.00    +0.000 A 
ATOM      6  C   UNL     1     -17.540  42.439 -12.056  0.00  0.00    +0.000 A 
ATOM      7  C   UNL     1     -18.436  41.590 -12.684  0.00  0.00    +0.000 A 
ATOM      8  H   UNL     1     -20.811  39.496 -10.495  0.00  0.00    +0.000 HD
ENDROOT
BRANCH   6  11
ATOM      9  O   UNL     1     -17.020  44.183 -13.552  0.00  0.00    +0.000 OA
ATOM     10  N   UNL     1     -15.256  42.981 -12.712  0.00  0.00    +0.000 N 
ATOM     11  C   UNL     1     -16.617  43.255 -12.825  0.00  0.00    +0.000 C 
ATOM     12  H   UNL     1     -14.850  42.251 -12.142  0.00  0.00    +0.000 HD
ATOM     13  H   UNL     1     -14.589  43.541 -13.233  0.00  0.00    +0.000 HD
ENDBRANCH   6  11
BRANCH   1  14
ATOM     14  C   UNL     1     -20.260  40.079  -8.518  0.00  0.00    +0.000 C 
BRANCH  14  15
ATOM     15  C   UNL     1     -21.455  40.892  -8.024  0.00  0.00    +0.000 C 
BRANCH  15  16
ATOM     16  C   UNL     1     -21.073  41.885  -6.918  0.00  0.00    +0.000 C 
BRANCH  16  17
ATOM     17  C   UNL     1     -22.123  42.977  -6.707  0.00  0.00    +0.000 C 
BRANCH  17  18
ATOM     18  N   UNL     1     -22.643  42.977  -5.345  0.00  0.00    +0.000 NA
ATOM     19  H   UNL     1     -22.667  42.022  -4.991  0.00  0.00    +0.000 HD
ATOM     20  H   UNL     1     -23.609  43.305  -5.348  0.00  0.00    +0.000 HD
ENDBRANCH  17  18
ENDBRANCH  16  17
ENDBRANCH  15  16
ENDBRANCH  14  15
ENDBRANCH   1  14
TORSDOF 6
ENDMDL
MODEL 4
REMARK VINA RESULT:    -5.794      4.328      6.435
REMARK INTER + INTRA:          -8.023
REMARK INTER:                  -7.701
REMARK INTRA:                  -0.323
REMARK UNBOUND:                -0.366
REMARK  Name = 58337917
REMARK  6 active torsions:
REMARK  status: ('A' for Active; 'I' for Inactive)
REMARK    1  A    between atoms: N_2  and  C_8
REMARK    2  A    between atoms: N_3  and  C_9
REMARK    3  A    between atoms: C_6  and  C_7
REMARK    4  A    between atoms: C_6  and  C_8
REMARK    5  A    between atoms: C_7  and  C_9
REMARK    6  A    between atoms: C_13  and  C_15
REMARK                            x       y       z     vdW  Elec       q    Type
REMARK                         _______ _______ _______ _____ _____    ______ ____
ROOT
ATOM      1  N   UNL     1     -20.090  42.694 -14.856  0.00  0.00    +0.000 N 
ATOM      2  N   UNL     1     -19.770  41.151 -13.105  0.00  0.00    +0.000 NA
ATOM      3  C   UNL     1     -19.283  42.157 -13.865  0.00  0.00    +0.000 A 
ATOM      4  C   UNL     1     -18.014  42.695 -13.719  0.00  0.00    +0.000 A 
ATOM      5  C   UNL     1     -17.194  42.167 -12.729  0.00  0.00    +0.000 A 
ATOM      6  C   UNL     1     -17.659  41.131 -11.926  0.00  0.00    +0.000 A 
ATOM      7  C   UNL     1     -18.943  40.663 -12.152  0.00  0.00    +0.000 A 
ATOM      8  H   UNL     1     -21.016  42.294 -14.957  0.00  0.00    +0.000 HD
ENDROOT
BRANCH   6  11
ATOM      9  O   UNL     1     -17.300  40.231  -9.780  0.00  0.00    +0.000 OA
ATOM     10  N   UNL     1     -15.475  40.368 -11.162  0.00  0.00    +0.000 N 
ATOM     11  C   UNL     1     -16.826  40.558 -10.883  0.00  0.00    +0.000 C 
ATOM     12  H   UNL     1     -15.016  40.602 -12.033  0.00  0.00    +0.000 HD
ATOM     13  H   UNL     1     -14.871  39.963 -10.454  0.00  0.00    +0.000 HD
ENDBRANCH   6  11
BRANCH   1  14
ATOM     14  C   UNL     1     -19.680  43.768 -15.728  0.00  0.00    +0.000 C 
BRANCH  14  15
ATOM     15  C   UNL     1     -19.921  43.407 -17.192  0.00  0.00    +0.000 C 
BRANCH  15  16
ATOM     16  C   UNL     1     -21.407  43.193 -17.507  0.00  0.00    +0.000 C 
BRANCH  16  17
ATOM     17  C   UNL     1     -22.297  44.327 -16.992  0.00  0.00    +0.000 C 
BRANCH  17  18
ATOM     18  N   UNL     1     -23.032  43.941 -15.794  0.00  0.00    +0.000 NA
ATOM     19  H   UNL     1     -23.846  43.388 -16.059  0.00  0.00    +0.000 HD
ATOM     20  H   UNL     1     -23.391  44.775 -15.330  0.00  0.00    +0.000 HD
ENDBRANCH  17  18
ENDBRANCH  16  17
ENDBRANCH  15  16
ENDBRANCH  14  15
ENDBRANCH   1  14
TORSDOF 6
ENDMDL
MODEL 5
REMARK VINA RESULT:    -5.713      3.707      6.446
REMARK INTER + INTRA:          -7.916
REMARK INTER:                  -7.594
REMARK INTRA:                  -0.323
REMARK UNBOUND:                -0.366
REMARK  Name = 58337917
REMARK  6 active torsions:
REMARK  status: ('A' for Active; 'I' for Inactive)
REMARK    1  A    between atoms: N_2  and  C_8
REMARK    2  A    between atoms: N_3  and  C_9
REMARK    3  A    between atoms: C_6  and  C_7
REMARK    4  A    between atoms: C_6  and  C_8
REMARK    5  A    between atoms: C_7  and  C_9
REMARK    6  A    between atoms: C_13  and  C_15
REMARK                            x       y       z     vdW  Elec       q    Type
REMARK                         _______ _______ _______ _____ _____    ______ ____
ROOT
ATOM      1  N   UNL     1     -19.661  40.373 -11.522  0.00  0.00    +0.000 N 
ATOM      2  N   UNL     1     -19.677  41.762 -13.426  0.00  0.00    +0.000 NA
ATOM      3  C   UNL     1     -19.201  41.499 -12.188  0.00  0.00    +0.000 A 
ATOM      4  C   UNL     1     -18.272  42.290 -11.531  0.00  0.00    +0.000 A 
ATOM      5  C   UNL     1     -17.802  43.422 -12.186  0.00  0.00    +0.000 A 
ATOM      6  C   UNL     1     -18.268  43.726 -13.460  0.00  0.00    +0.000 A 
ATOM      7  C   UNL     1     -19.197  42.871 -14.031  0.00  0.00    +0.000 A 
ATOM      8  H   UNL     1     -20.340  39.800 -12.010  0.00  0.00    +0.000 HD
ENDROOT
BRANCH   6  11
ATOM      9  O   UNL     1     -18.580  45.793 -14.545  0.00  0.00    +0.000 OA
ATOM     10  N   UNL     1     -16.428  45.012 -14.408  0.00  0.00    +0.000 N 
ATOM     11  C   UNL     1     -17.796  44.901 -14.171  0.00  0.00    +0.000 C 
ATOM     12  H   UNL     1     -15.728  44.335 -14.133  0.00  0.00    +0.000 HD
ATOM     13  H   UNL     1     -16.071  45.826 -14.897  0.00  0.00    +0.000 HD
ENDBRANCH   6  11
BRANCH   1  14
ATOM     14  C   UNL     1     -19.226  39.991 -10.201  0.00  0.00    +0.000 C 
BRANCH  14  15
ATOM     15  C   UNL     1     -20.420  39.738  -9.283  0.00  0.00    +0.000 C 
BRANCH  15  16
ATOM     16  C   UNL     1     -20.664  40.894  -8.304  0.00  0.00    +0.000 C 
BRANCH  16  17
ATOM     17  C   UNL     1     -19.404  41.306  -7.539  0.00  0.00    +0.000 C 
BRANCH  17  18
ATOM     18  N   UNL     1     -19.564  42.596  -6.880  0.00  0.00    +0.000 NA
ATOM     19  H   UNL     1     -19.042  43.306  -7.394  0.00  0.00    +0.000 HD
ATOM     20  H   UNL     1     -19.152  42.557  -5.948  0.00  0.00    +0.000 HD
ENDBRANCH  17  18
ENDBRANCH  16  17
ENDBRANCH  15  16
ENDBRANCH  14  15
ENDBRANCH   1  14
TORSDOF 6
ENDMDL
