MODEL 1
REMARK VINA RESULT:    -6.040      0.000      0.000
REMARK INTER + INTRA:          -8.031
REMARK INTER:                  -7.276
REMARK INTRA:                  -0.755
REMARK UNBOUND:                -0.755
REMARK  Name = 58367666
REMARK  6 active torsions:
REMARK  status: ('A' for Active; 'I' for Inactive)
REMARK    1  A    between atoms: N_3  and  C_8
REMARK    2  A    between atoms: C_4  and  C_6
REMARK    3  A    between atoms: C_5  and  C_6
REMARK    4  A    between atoms: C_5  and  C_10
REMARK    5  A    between atoms: C_7  and  C_11
REMARK    6  A    between atoms: C_11  and  C_14
REMARK                            x       y       z     vdW  Elec       q    Type
REMARK                         _______ _______ _______ _____ _____    ______ ____
ROOT
ATOM      1  N   UNL     1     -20.858  40.254  -8.705  0.00  0.00    +0.000 NA
ATOM      2  C   UNL     1     -18.749  41.107  -9.521  0.00  0.00    +0.000 A 
ATOM      3  C   UNL     1     -19.850  40.270  -9.605  0.00  0.00    +0.000 A 
ATOM      4  C   UNL     1     -18.679  41.983  -8.444  0.00  0.00    +0.000 A 
ATOM      5  C   UNL     1     -19.697  41.995  -7.497  0.00  0.00    +0.000 A 
ATOM      6  C   UNL     1     -20.755  41.119  -7.671  0.00  0.00    +0.000 A 
ENDROOT
BRANCH   3   7
ATOM      7  N   UNL     1     -19.930  39.375 -10.702  0.00  0.00    +0.000 N 
ATOM      8  H   UNL     1     -19.436  38.494 -10.646  0.00  0.00    +0.000 HD
ATOM      9  H   UNL     1     -20.046  39.793 -11.618  0.00  0.00    +0.000 HD
ENDBRANCH   3   7
BRANCH   2  11
ATOM     10  O   UNL     1     -16.805  40.226 -10.496  0.00  0.00    +0.000 OA
ATOM     11  C   UNL     1     -17.662  41.104 -10.526  0.00  0.00    +0.000 C 
BRANCH  11  12
ATOM     12  C   UNL     1     -17.626  42.206 -11.536  0.00  0.00    +0.000 C 
ATOM     13  C   UNL     1     -16.814  43.237 -11.235  0.00  0.00    +0.000 C 
ATOM     14  C   UNL     1     -18.563  42.120 -12.705  0.00  0.00    +0.000 C 
BRANCH  13  15
ATOM     15  C   UNL     1     -16.613  44.445 -12.018  0.00  0.00    +0.000 C 
ATOM     16  C   UNL     1     -17.465  45.616 -11.625  0.00  0.00    +0.000 C 
ATOM     17  C   UNL     1     -15.689  44.536 -12.988  0.00  0.00    +0.000 C 
ENDBRANCH  13  15
ENDBRANCH  11  12
ENDBRANCH   2  11
TORSDOF 4
ENDMDL
MODEL 2
REMARK VINA RESULT:    -5.748      2.471      5.288
REMARK INTER + INTRA:          -7.680
REMARK INTER:                  -7.469
REMARK INTRA:                  -0.211
REMARK UNBOUND:                -0.755
REMARK  Name = 58367666
REMARK  6 active torsions:
REMARK  status: ('A' for Active; 'I' for Inactive)
REMARK    1  A    between atoms: N_3  and  C_8
REMARK    2  A    between atoms: C_4  and  C_6
REMARK    3  A    between atoms: C_5  and  C_6
REMARK    4  A    between atoms: C_5  and  C_10
REMARK    5  A    between atoms: C_7  and  C_11
REMARK    6  A    between atoms: C_11  and  C_14
REMARK                            x       y       z     vdW  Elec       q    Type
REMARK                         _______ _______ _______ _____ _____    ______ ____
ROOT
ATOM      1  N   UNL     1     -16.932  42.161 -13.159  0.00  0.00    +0.000 NA
ATOM      2  C   UNL     1     -18.597  41.279 -11.644  0.00  0.00    +0.000 A 
ATOM      3  C   UNL     1     -17.292  41.415 -12.090  0.00  0.00    +0.000 A 
ATOM      4  C   UNL     1     -19.596  41.951 -12.339  0.00  0.00    +0.000 A 
ATOM      5  C   UNL     1     -19.265  42.727 -13.444  0.00  0.00    +0.000 A 
ATOM      6  C   UNL     1     -17.931  42.799 -13.810  0.00  0.00    +0.000 A 
ENDROOT
BRANCH   3   7
ATOM      7  N   UNL     1     -16.267  40.736 -11.385  0.00  0.00    +0.000 N 
ATOM      8  H   UNL     1     -15.628  41.277 -10.818  0.00  0.00    +0.000 HD
ATOM      9  H   UNL     1     -15.916  39.885 -11.808  0.00  0.00    +0.000 HD
ENDBRANCH   3   7
BRANCH   2  11
ATOM     10  O   UNL     1     -18.980  39.234 -10.560  0.00  0.00    +0.000 OA
ATOM     11  C   UNL     1     -18.959  40.457 -10.467  0.00  0.00    +0.000 C 
BRANCH  11  12
ATOM     12  C   UNL     1     -19.325  41.158  -9.198  0.00  0.00    +0.000 C 
ATOM     13  C   UNL     1     -20.517  40.815  -8.674  0.00  0.00    +0.000 C 
ATOM     14  C   UNL     1     -18.410  42.238  -8.700  0.00  0.00    +0.000 C 
BRANCH  13  15
ATOM     15  C   UNL     1     -21.129  41.358  -7.473  0.00  0.00    +0.000 C 
ATOM     16  C   UNL     1     -22.625  41.248  -7.407  0.00  0.00    +0.000 C 
ATOM     17  C   UNL     1     -20.412  41.870  -6.460  0.00  0.00    +0.000 C 
ENDBRANCH  13  15
ENDBRANCH  11  12
ENDBRANCH   2  11
TORSDOF 4
ENDMDL
MODEL 3
REMARK VINA RESULT:    -5.627      1.655      2.244
REMARK INTER + INTRA:          -7.534
REMARK INTER:                  -6.769
REMARK INTRA:                  -0.765
REMARK UNBOUND:                -0.755
REMARK  Name = 58367666
REMARK  6 active torsions:
REMARK  status: ('A' for Active; 'I' for Inactive)
REMARK    1  A    between atoms: N_3  and  C_8
REMARK    2  A    between atoms: C_4  and  C_6
REMARK    3  A    between atoms: C_5  and  C_6
REMARK    4  A    between atoms: C_5  and  C_10
REMARK    5  A    between atoms: C_7  and  C_11
REMARK    6  A    between atoms: C_11  and  C_14
REMARK                            x       y       z     vdW  Elec       q    Type
REMARK                         _______ _______ _______ _____ _____    ______ ____
ROOT
ATOM      1  N   UNL     1     -19.922  39.696  -9.969  0.00  0.00    +0.000 NA
ATOM      2  C   UNL     1     -18.266  40.996 -11.158  0.00  0.00    +0.000 A 
ATOM      3  C   UNL     1     -19.270  40.042 -11.102  0.00  0.00    +0.000 A 
ATOM      4  C   UNL     1     -17.910  41.636  -9.977  0.00  0.00    +0.000 A 
ATOM      5  C   UNL     1     -18.558  41.307  -8.791  0.00  0.00    +0.000 A 
ATOM      6  C   UNL     1     -19.548  40.339  -8.841  0.00  0.00    +0.000 A 
ENDROOT
BRANCH   3   7
ATOM      7  N   UNL     1     -19.641  39.386 -12.303  0.00  0.00    +0.000 N 
ATOM      8  H   UNL     1     -19.919  39.949 -13.097  0.00  0.00    +0.000 HD
ATOM      9  H   UNL     1     -20.060  38.470 -12.206  0.00  0.00    +0.000 HD
ENDBRANCH   3   7
BRANCH   2  11
ATOM     10  O   UNL     1     -17.180  40.471 -13.171  0.00  0.00    +0.000 OA
ATOM     11  C   UNL     1     -17.572  41.355 -12.416  0.00  0.00    +0.000 C 
BRANCH  11  12
ATOM     12  C   UNL     1     -17.341  42.803 -12.711  0.00  0.00    +0.000 C 
ATOM     13  C   UNL     1     -18.446  43.516 -12.998  0.00  0.00    +0.000 C 
ATOM     14  C   UNL     1     -15.923  43.291 -12.775  0.00  0.00    +0.000 C 
BRANCH  13  15
ATOM     15  C   UNL     1     -18.507  44.925 -13.350  0.00  0.00    +0.000 C 
ATOM     16  C   UNL     1     -18.590  45.217 -14.820  0.00  0.00    +0.000 C 
ATOM     17  C   UNL     1     -18.549  45.902 -12.430  0.00  0.00    +0.000 C 
ENDBRANCH  13  15
ENDBRANCH  11  12
ENDBRANCH   2  11
TORSDOF 4
ENDMDL
MODEL 4
REMARK VINA RESULT:    -5.529      2.254      5.206
REMARK INTER + INTRA:          -7.415
REMARK INTER:                  -7.731
REMARK INTRA:                   0.316
REMARK UNBOUND:                -0.755
REMARK  Name = 58367666
REMARK  6 active torsions:
REMARK  status: ('A' for Active; 'I' for Inactive)
REMARK    1  A    between atoms: N_3  and  C_8
REMARK    2  A    between atoms: C_4  and  C_6
REMARK    3  A    between atoms: C_5  and  C_6
REMARK    4  A    between atoms: C_5  and  C_10
REMARK    5  A    between atoms: C_7  and  C_11
REMARK    6  A    between atoms: C_11  and  C_14
REMARK                            x       y       z     vdW  Elec       q    Type
REMARK                         _______ _______ _______ _____ _____    ______ ____
ROOT
ATOM      1  N   UNL     1     -18.120  41.402 -13.261  0.00  0.00    +0.000 NA
ATOM      2  C   UNL     1     -18.516  40.789 -10.956  0.00  0.00    +0.000 A 
ATOM      3  C   UNL     1     -18.915  40.926 -12.276  0.00  0.00    +0.000 A 
ATOM      4  C   UNL     1     -17.219  41.163 -10.627  0.00  0.00    +0.000 A 
ATOM      5  C   UNL     1     -16.372  41.658 -11.612  0.00  0.00    +0.000 A 
ATOM      6  C   UNL     1     -16.866  41.756 -12.902  0.00  0.00    +0.000 A 
ENDROOT
BRANCH   3   7
ATOM      7  N   UNL     1     -20.236  40.544 -12.622  0.00  0.00    +0.000 N 
ATOM      8  H   UNL     1     -20.606  40.833 -13.518  0.00  0.00    +0.000 HD
ATOM      9  H   UNL     1     -20.890  40.437 -11.856  0.00  0.00    +0.000 HD
ENDBRANCH   3   7
BRANCH   2  11
ATOM     10  O   UNL     1     -19.880  39.133 -10.008  0.00  0.00    +0.000 OA
ATOM     11  C   UNL     1     -19.410  40.261  -9.901  0.00  0.00    +0.000 C 
BRANCH  11  12
ATOM     12  C   UNL     1     -19.739  41.145  -8.740  0.00  0.00    +0.000 C 
ATOM     13  C   UNL     1     -20.939  40.925  -8.171  0.00  0.00    +0.000 C 
ATOM     14  C   UNL     1     -18.779  42.247  -8.401  0.00  0.00    +0.000 C 
BRANCH  13  15
ATOM     15  C   UNL     1     -21.521  41.654  -7.057  0.00  0.00    +0.000 C 
ATOM     16  C   UNL     1     -20.603  41.891  -5.893  0.00  0.00    +0.000 C 
ATOM     17  C   UNL     1     -22.772  42.140  -7.082  0.00  0.00    +0.000 C 
ENDBRANCH  13  15
ENDBRANCH  11  12
ENDBRANCH   2  11
TORSDOF 4
ENDMDL
MODEL 5
REMARK VINA RESULT:    -4.469      2.795      3.845
REMARK INTER + INTRA:          -6.139
REMARK INTER:                  -5.651
REMARK INTRA:                  -0.488
REMARK UNBOUND:                -0.755
REMARK  Name = 58367666
REMARK  6 active torsions:
REMARK  status: ('A' for Active; 'I' for Inactive)
REMARK    1  A    between atoms: N_3  and  C_8
REMARK    2  A    between atoms: C_4  and  C_6
REMARK    3  A    between atoms: C_5  and  C_6
REMARK    4  A    between atoms: C_5  and  C_10
REMARK    5  A    between atoms: C_7  and  C_11
REMARK    6  A    between atoms: C_11  and  C_14
REMARK                            x       y       z     vdW  Elec       q    Type
REMARK                         _______ _______ _______ _____ _____    ______ ____
ROOT
ATOM      1  N   UNL     1     -18.842  40.339 -13.087  0.00  0.00    +0.000 NA
ATOM      2  C   UNL     1     -17.862  42.352 -12.175  0.00  0.00    +0.000 A 
ATOM      3  C   UNL     1     -18.505  41.645 -13.179  0.00  0.00    +0.000 A 
ATOM      4  C   UNL     1     -17.545  41.675 -11.004  0.00  0.00    +0.000 A 
ATOM      5  C   UNL     1     -17.875  40.331 -10.872  0.00  0.00    +0.000 A 
ATOM      6  C   UNL     1     -18.517  39.714 -11.933  0.00  0.00    +0.000 A 
ENDROOT
BRANCH   3   7
ATOM      7  N   UNL     1     -18.835  42.329 -14.376  0.00  0.00    +0.000 N 
ATOM      8  H   UNL     1     -18.099  42.517 -15.045  0.00  0.00    +0.000 HD
ATOM      9  H   UNL     1     -19.603  42.987 -14.324  0.00  0.00    +0.000 HD
ENDBRANCH   3   7
BRANCH   2  11
ATOM     10  O   UNL     1     -18.380  44.640 -12.186  0.00  0.00    +0.000 OA
ATOM     11  C   UNL     1     -17.509  43.784 -12.304  0.00  0.00    +0.000 C 
BRANCH  11  12
ATOM     12  C   UNL     1     -16.090  44.141 -12.612  0.00  0.00    +0.000 C 
ATOM     13  C   UNL     1     -15.197  43.831 -11.653  0.00  0.00    +0.000 C 
ATOM     14  C   UNL     1     -15.813  44.899 -13.877  0.00  0.00    +0.000 C 
BRANCH  13  15
ATOM     15  C   UNL     1     -13.768  44.093 -11.676  0.00  0.00    +0.000 C 
ATOM     16  C   UNL     1     -13.365  45.498 -11.337  0.00  0.00    +0.000 C 
ATOM     17  C   UNL     1     -12.859  43.136 -11.923  0.00  0.00    +0.000 C 
ENDBRANCH  13  15
ENDBRANCH  11  12
ENDBRANCH   2  11
TORSDOF 4
ENDMDL
