MODEL 1
REMARK VINA RESULT:    -6.847      0.000      0.000
REMARK INTER + INTRA:          -9.344
REMARK INTER:                  -8.849
REMARK INTRA:                  -0.495
REMARK UNBOUND:                -0.495
REMARK  Name = 58772605
REMARK  7 active torsions:
REMARK  status: ('A' for Active; 'I' for Inactive)
REMARK    1  A    between atoms: N_2  and  C_7
REMARK    2  A    between atoms: N_2  and  C_9
REMARK    3  A    between atoms: N_2  and  C_10
REMARK    4  A    between atoms: N_3  and  C_8
REMARK    5  A    between atoms: C_6  and  C_7
REMARK    6  A    between atoms: C_6  and  C_8
REMARK    7  A    between atoms: C_11  and  C_12
REMARK                            x       y       z     vdW  Elec       q    Type
REMARK                         _______ _______ _______ _____ _____    ______ ____
ROOT
ATOM      1  O   UNL     1     -17.999  40.367  -9.276  0.00  0.00    +0.000 OA
ATOM      2  N   UNL     1     -19.892  39.769 -10.478  0.00  0.00    +0.000 N 
ATOM      3  C   UNL     1     -19.217  40.385  -9.429  0.00  0.00    +0.000 C 
ATOM      4  H   UNL     1     -20.899  39.857 -10.563  0.00  0.00    +0.000 HD
ENDROOT
BRANCH   3   7
ATOM      5  N   UNL     1     -20.236  42.697  -6.636  0.00  0.00    +0.000 NA
ATOM      6  N   UNL     1     -22.350  43.082  -5.605  0.00  0.00    +0.000 N 
ATOM      7  C   UNL     1     -20.064  41.084  -8.428  0.00  0.00    +0.000 A 
ATOM      8  C   UNL     1     -21.424  40.813  -8.325  0.00  0.00    +0.000 A 
ATOM      9  C   UNL     1     -19.523  42.025  -7.568  0.00  0.00    +0.000 A 
ATOM     10  C   UNL     1     -22.191  41.483  -7.378  0.00  0.00    +0.000 A 
ATOM     11  C   UNL     1     -21.555  42.407  -6.565  0.00  0.00    +0.000 A 
ATOM     12  H   UNL     1     -21.882  43.760  -5.017  0.00  0.00    +0.000 HD
ATOM     13  H   UNL     1     -23.334  43.215  -5.802  0.00  0.00    +0.000 HD
ENDBRANCH   3   7
BRANCH   2  14
ATOM     14  C   UNL     1     -19.214  39.034 -11.511  0.00  0.00    +0.000 C 
BRANCH  14  15
ATOM     15  C   UNL     1     -18.829  39.913 -12.698  0.00  0.00    +0.000 C 
BRANCH  15  16
ATOM     16  C   UNL     1     -17.328  40.202 -12.811  0.00  0.00    +0.000 C 
BRANCH  16  17
ATOM     17  N   UNL     1     -17.063  41.608 -13.085  0.00  0.00    +0.000 NA
ATOM     18  C   UNL     1     -18.285  42.287 -13.523  0.00  0.00    +0.000 C 
ATOM     19  C   UNL     1     -16.511  42.270 -11.902  0.00  0.00    +0.000 C 
ENDBRANCH  16  17
ENDBRANCH  15  16
ENDBRANCH  14  15
ENDBRANCH   2  14
TORSDOF 5
ENDMDL
MODEL 2
REMARK VINA RESULT:    -5.937      1.652      2.047
REMARK INTER + INTRA:          -8.167
REMARK INTER:                  -7.497
REMARK INTRA:                  -0.670
REMARK UNBOUND:                -0.495
REMARK  Name = 58772605
REMARK  7 active torsions:
REMARK  status: ('A' for Active; 'I' for Inactive)
REMARK    1  A    between atoms: N_2  and  C_7
REMARK    2  A    between atoms: N_2  and  C_9
REMARK    3  A    between atoms: N_2  and  C_10
REMARK    4  A    between atoms: N_3  and  C_8
REMARK    5  A    between atoms: C_6  and  C_7
REMARK    6  A    between atoms: C_6  and  C_8
REMARK    7  A    between atoms: C_11  and  C_12
REMARK                            x       y       z     vdW  Elec       q    Type
REMARK                         _______ _______ _______ _____ _____    ______ ____
ROOT
ATOM      1  O   UNL     1     -17.619  42.478  -9.065  0.00  0.00    +0.000 OA
ATOM      2  N   UNL     1     -18.007  40.389  -9.996  0.00  0.00    +0.000 N 
ATOM      3  C   UNL     1     -18.330  41.488  -9.207  0.00  0.00    +0.000 C 
ATOM      4  H   UNL     1     -18.661  39.620 -10.099  0.00  0.00    +0.000 HD
ENDROOT
BRANCH   3   7
ATOM      5  N   UNL     1     -21.847  40.477  -8.314  0.00  0.00    +0.000 NA
ATOM      6  N   UNL     1     -23.266  41.141  -6.518  0.00  0.00    +0.000 N 
ATOM      7  C   UNL     1     -19.624  41.413  -8.481  0.00  0.00    +0.000 A 
ATOM      8  C   UNL     1     -19.846  42.164  -7.332  0.00  0.00    +0.000 A 
ATOM      9  C   UNL     1     -20.647  40.592  -8.927  0.00  0.00    +0.000 A 
ATOM     10  C   UNL     1     -21.068  42.074  -6.674  0.00  0.00    +0.000 A 
ATOM     11  C   UNL     1     -22.027  41.223  -7.201  0.00  0.00    +0.000 A 
ATOM     12  H   UNL     1     -23.961  40.514  -6.903  0.00  0.00    +0.000 HD
ATOM     13  H   UNL     1     -23.281  41.319  -5.522  0.00  0.00    +0.000 HD
ENDBRANCH   3   7
BRANCH   2  14
ATOM     14  C   UNL     1     -16.780  40.301 -10.740  0.00  0.00    +0.000 C 
BRANCH  14  15
ATOM     15  C   UNL     1     -17.011  39.978 -12.214  0.00  0.00    +0.000 C 
BRANCH  15  16
ATOM     16  C   UNL     1     -17.078  41.205 -13.129  0.00  0.00    +0.000 C 
BRANCH  16  17
ATOM     17  N   UNL     1     -17.260  42.438 -12.373  0.00  0.00    +0.000 NA
ATOM     18  C   UNL     1     -16.236  43.421 -12.738  0.00  0.00    +0.000 C 
ATOM     19  C   UNL     1     -18.596  42.989 -12.599  0.00  0.00    +0.000 C 
ENDBRANCH  16  17
ENDBRANCH  15  16
ENDBRANCH  14  15
ENDBRANCH   2  14
TORSDOF 5
ENDMDL
MODEL 3
REMARK VINA RESULT:    -5.607      1.788      6.609
REMARK INTER + INTRA:          -7.741
REMARK INTER:                  -7.459
REMARK INTRA:                  -0.282
REMARK UNBOUND:                -0.495
REMARK  Name = 58772605
REMARK  7 active torsions:
REMARK  status: ('A' for Active; 'I' for Inactive)
REMARK    1  A    between atoms: N_2  and  C_7
REMARK    2  A    between atoms: N_2  and  C_9
REMARK    3  A    between atoms: N_2  and  C_10
REMARK    4  A    between atoms: N_3  and  C_8
REMARK    5  A    between atoms: C_6  and  C_7
REMARK    6  A    between atoms: C_6  and  C_8
REMARK    7  A    between atoms: C_11  and  C_12
REMARK                            x       y       z     vdW  Elec       q    Type
REMARK                         _______ _______ _______ _____ _____    ______ ____
ROOT
ATOM      1  O   UNL     1     -18.629  40.199 -11.287  0.00  0.00    +0.000 OA
ATOM      2  N   UNL     1     -18.098  41.470  -9.419  0.00  0.00    +0.000 N 
ATOM      3  C   UNL     1     -18.116  41.194 -10.783  0.00  0.00    +0.000 C 
ATOM      4  H   UNL     1     -17.689  42.332  -9.075  0.00  0.00    +0.000 HD
ENDROOT
BRANCH   3   7
ATOM      5  N   UNL     1     -17.556  43.709 -13.530  0.00  0.00    +0.000 NA
ATOM      6  N   UNL     1     -15.621  44.954 -14.152  0.00  0.00    +0.000 N 
ATOM      7  C   UNL     1     -17.437  42.183 -11.658  0.00  0.00    +0.000 A 
ATOM      8  C   UNL     1     -16.101  42.517 -11.461  0.00  0.00    +0.000 A 
ATOM      9  C   UNL     1     -18.113  42.801 -12.697  0.00  0.00    +0.000 A 
ATOM     10  C   UNL     1     -15.492  43.446 -12.298  0.00  0.00    +0.000 A 
ATOM     11  C   UNL     1     -16.256  44.008 -13.308  0.00  0.00    +0.000 A 
ATOM     12  H   UNL     1     -16.185  45.366 -14.885  0.00  0.00    +0.000 HD
ATOM     13  H   UNL     1     -14.852  45.495 -13.777  0.00  0.00    +0.000 HD
ENDBRANCH   3   7
BRANCH   2  14
ATOM     14  C   UNL     1     -18.690  40.597  -8.443  0.00  0.00    +0.000 C 
BRANCH  14  15
ATOM     15  C   UNL     1     -20.158  40.926  -8.178  0.00  0.00    +0.000 C 
BRANCH  15  16
ATOM     16  C   UNL     1     -20.380  42.043  -7.154  0.00  0.00    +0.000 C 
BRANCH  16  17
ATOM     17  N   UNL     1     -21.792  42.373  -7.004  0.00  0.00    +0.000 NA
ATOM     18  C   UNL     1     -22.630  41.234  -7.387  0.00  0.00    +0.000 C 
ATOM     19  C   UNL     1     -22.084  42.780  -5.630  0.00  0.00    +0.000 C 
ENDBRANCH  16  17
ENDBRANCH  15  16
ENDBRANCH  14  15
ENDBRANCH   2  14
TORSDOF 5
ENDMDL
MODEL 4
REMARK VINA RESULT:    -5.423      1.992      6.265
REMARK INTER + INTRA:          -7.503
REMARK INTER:                  -7.180
REMARK INTRA:                  -0.323
REMARK UNBOUND:                -0.495
REMARK  Name = 58772605
REMARK  7 active torsions:
REMARK  status: ('A' for Active; 'I' for Inactive)
REMARK    1  A    between atoms: N_2  and  C_7
REMARK    2  A    between atoms: N_2  and  C_9
REMARK    3  A    between atoms: N_2  and  C_10
REMARK    4  A    between atoms: N_3  and  C_8
REMARK    5  A    between atoms: C_6  and  C_7
REMARK    6  A    between atoms: C_6  and  C_8
REMARK    7  A    between atoms: C_11  and  C_12
REMARK                            x       y       z     vdW  Elec       q    Type
REMARK                         _______ _______ _______ _____ _____    ______ ____
ROOT
ATOM      1  O   UNL     1     -17.115  41.649 -10.798  0.00  0.00    +0.000 OA
ATOM      2  N   UNL     1     -19.339  40.986 -10.773  0.00  0.00    +0.000 N 
ATOM      3  C   UNL     1     -18.250  41.698 -11.265  0.00  0.00    +0.000 C 
ATOM      4  H   UNL     1     -20.241  41.045 -11.233  0.00  0.00    +0.000 HD
ENDROOT
BRANCH   3   7
ATOM      5  N   UNL     1     -18.067  44.662 -13.582  0.00  0.00    +0.000 NA
ATOM      6  N   UNL     1     -19.213  45.142 -15.615  0.00  0.00    +0.000 N 
ATOM      7  C   UNL     1     -18.520  42.590 -12.422  0.00  0.00    +0.000 A 
ATOM      8  C   UNL     1     -19.438  42.232 -13.404  0.00  0.00    +0.000 A 
ATOM      9  C   UNL     1     -17.868  43.805 -12.556  0.00  0.00    +0.000 A 
ATOM     10  C   UNL     1     -19.671  43.088 -14.475  0.00  0.00    +0.000 A 
ATOM     11  C   UNL     1     -18.966  44.281 -14.517  0.00  0.00    +0.000 A 
ATOM     12  H   UNL     1     -18.692  46.009 -15.645  0.00  0.00    +0.000 HD
ATOM     13  H   UNL     1     -19.513  44.733 -16.491  0.00  0.00    +0.000 HD
ENDBRANCH   3   7
BRANCH   2  14
ATOM     14  C   UNL     1     -19.242  40.102  -9.644  0.00  0.00    +0.000 C 
BRANCH  14  15
ATOM     15  C   UNL     1     -20.308  40.383  -8.588  0.00  0.00    +0.000 C 
BRANCH  15  16
ATOM     16  C   UNL     1     -20.039  41.625  -7.732  0.00  0.00    +0.000 C 
BRANCH  16  17
ATOM     17  N   UNL     1     -21.246  42.101  -7.067  0.00  0.00    +0.000 NA
ATOM     18  C   UNL     1     -22.398  41.276  -7.439  0.00  0.00    +0.000 C 
ATOM     19  C   UNL     1     -21.069  42.101  -5.615  0.00  0.00    +0.000 C 
ENDBRANCH  16  17
ENDBRANCH  15  16
ENDBRANCH  14  15
ENDBRANCH   2  14
TORSDOF 5
ENDMDL
MODEL 5
REMARK VINA RESULT:    -5.204      3.686      5.042
REMARK INTER + INTRA:          -7.220
REMARK INTER:                  -6.970
REMARK INTRA:                  -0.250
REMARK UNBOUND:                -0.495
REMARK  Name = 58772605
REMARK  7 active torsions:
REMARK  status: ('A' for Active; 'I' for Inactive)
REMARK    1  A    between atoms: N_2  and  C_7
REMARK    2  A    between atoms: N_2  and  C_9
REMARK    3  A    between atoms: N_2  and  C_10
REMARK    4  A    between atoms: N_3  and  C_8
REMARK    5  A    between atoms: C_6  and  C_7
REMARK    6  A    between atoms: C_6  and  C_8
REMARK    7  A    between atoms: C_11  and  C_12
REMARK                            x       y       z     vdW  Elec       q    Type
REMARK                         _______ _______ _______ _____ _____    ______ ____
ROOT
ATOM      1  O   UNL     1     -17.197  42.904 -13.165  0.00  0.00    +0.000 OA
ATOM      2  N   UNL     1     -19.430  42.567 -13.698  0.00  0.00    +0.000 N 
ATOM      3  C   UNL     1     -18.318  42.504 -12.865  0.00  0.00    +0.000 C 
ATOM      4  H   UNL     1     -20.337  42.252 -13.370  0.00  0.00    +0.000 HD
ENDROOT
BRANCH   3   7
ATOM      5  N   UNL     1     -18.029  41.832  -9.170  0.00  0.00    +0.000 NA
ATOM      6  N   UNL     1     -19.074  40.201  -7.782  0.00  0.00    +0.000 N 
ATOM      7  C   UNL     1     -18.534  41.880 -11.534  0.00  0.00    +0.000 A 
ATOM      8  C   UNL     1     -19.400  40.803 -11.378  0.00  0.00    +0.000 A 
ATOM      9  C   UNL     1     -17.879  42.352 -10.408  0.00  0.00    +0.000 A 
ATOM     10  C   UNL     1     -19.581  40.239 -10.120  0.00  0.00    +0.000 A 
ATOM     11  C   UNL     1     -18.878  40.786  -9.058  0.00  0.00    +0.000 A 
ATOM     12  H   UNL     1     -18.564  40.607  -7.008  0.00  0.00    +0.000 HD
ATOM     13  H   UNL     1     -19.961  39.751  -7.588  0.00  0.00    +0.000 HD
ENDBRANCH   3   7
BRANCH   2  14
ATOM     14  C   UNL     1     -19.375  43.119 -15.024  0.00  0.00    +0.000 C 
BRANCH  14  15
ATOM     15  C   UNL     1     -20.748  43.183 -15.689  0.00  0.00    +0.000 C 
BRANCH  15  16
ATOM     16  C   UNL     1     -20.751  42.804 -17.173  0.00  0.00    +0.000 C 
BRANCH  16  17
ATOM     17  N   UNL     1     -21.575  43.708 -17.965  0.00  0.00    +0.000 NA
ATOM     18  C   UNL     1     -22.385  44.563 -17.095  0.00  0.00    +0.000 C 
ATOM     19  C   UNL     1     -20.742  44.525 -18.848  0.00  0.00    +0.000 C 
ENDBRANCH  16  17
ENDBRANCH  15  16
ENDBRANCH  14  15
ENDBRANCH   2  14
TORSDOF 5
ENDMDL
