MODEL 1
REMARK VINA RESULT:    -6.601      0.000      0.000
REMARK INTER + INTRA:          -8.391
REMARK INTER:                  -8.145
REMARK INTRA:                  -0.247
REMARK UNBOUND:                -0.247
REMARK  Name = 58772636
REMARK  5 active torsions:
REMARK  status: ('A' for Active; 'I' for Inactive)
REMARK    1  A    between atoms: O_1  and  C_7
REMARK    2  A    between atoms: O_1  and  C_14
REMARK    3  A    between atoms: N_3  and  C_6
REMARK    4  A    between atoms: C_6  and  C_7
REMARK    5  A    between atoms: C_8  and  C_9
REMARK                            x       y       z     vdW  Elec       q    Type
REMARK                         _______ _______ _______ _____ _____    ______ ____
ROOT
ATOM      1  N   UNL     1     -22.295  41.390  -7.416  0.00  0.00    +0.000 NA
ATOM      2  N   UNL     1     -22.588  42.898  -5.596  0.00  0.00    +0.000 N 
ATOM      3  C   UNL     1     -20.088  41.068  -8.349  0.00  0.00    +0.000 A 
ATOM      4  C   UNL     1     -19.561  41.973  -7.435  0.00  0.00    +0.000 A 
ATOM      5  C   UNL     1     -21.449  40.813  -8.299  0.00  0.00    +0.000 A 
ATOM      6  C   UNL     1     -20.400  42.588  -6.511  0.00  0.00    +0.000 A 
ATOM      7  C   UNL     1     -21.747  42.265  -6.544  0.00  0.00    +0.000 A 
ATOM      8  H   UNL     1     -22.187  43.189  -4.713  0.00  0.00    +0.000 HD
ATOM      9  H   UNL     1     -23.571  42.655  -5.619  0.00  0.00    +0.000 HD
ENDROOT
BRANCH   3  12
ATOM     10  O   UNL     1     -18.015  40.297  -9.129  0.00  0.00    +0.000 OA
ATOM     11  N   UNL     1     -19.863  39.900 -10.472  0.00  0.00    +0.000 N 
ATOM     12  C   UNL     1     -19.239  40.410  -9.327  0.00  0.00    +0.000 C 
ATOM     13  H   UNL     1     -20.870  39.969 -10.574  0.00  0.00    +0.000 HD
BRANCH  11  14
ATOM     14  C   UNL     1     -19.159  39.199 -11.523  0.00  0.00    +0.000 C 
BRANCH  14  15
ATOM     15  C   UNL     1     -18.670  40.153 -12.597  0.00  0.00    +0.000 C 
BRANCH  15  16
ATOM     16  O   UNL     1     -17.409  39.713 -13.083  0.00  0.00    +0.000 OA
ATOM     17  C   UNL     1     -16.437  39.671 -12.047  0.00  0.00    +0.000 C 
ENDBRANCH  15  16
ENDBRANCH  14  15
ENDBRANCH  11  14
ENDBRANCH   3  12
TORSDOF 4
ENDMDL
MODEL 2
REMARK VINA RESULT:    -6.547      1.720      2.310
REMARK INTER + INTRA:          -8.324
REMARK INTER:                  -8.160
REMARK INTRA:                  -0.165
REMARK UNBOUND:                -0.247
REMARK  Name = 58772636
REMARK  5 active torsions:
REMARK  status: ('A' for Active; 'I' for Inactive)
REMARK    1  A    between atoms: O_1  and  C_7
REMARK    2  A    between atoms: O_1  and  C_14
REMARK    3  A    between atoms: N_3  and  C_6
REMARK    4  A    between atoms: C_6  and  C_7
REMARK    5  A    between atoms: C_8  and  C_9
REMARK                            x       y       z     vdW  Elec       q    Type
REMARK                         _______ _______ _______ _____ _____    ______ ____
ROOT
ATOM      1  N   UNL     1     -19.228  42.321  -7.317  0.00  0.00    +0.000 NA
ATOM      2  N   UNL     1     -21.181  42.710  -6.011  0.00  0.00    +0.000 N 
ATOM      3  C   UNL     1     -19.311  40.730  -9.135  0.00  0.00    +0.000 A 
ATOM      4  C   UNL     1     -20.648  40.470  -8.856  0.00  0.00    +0.000 A 
ATOM      5  C   UNL     1     -18.651  41.656  -8.343  0.00  0.00    +0.000 A 
ATOM      6  C   UNL     1     -21.275  41.134  -7.807  0.00  0.00    +0.000 A 
ATOM      7  C   UNL     1     -20.527  42.041  -7.075  0.00  0.00    +0.000 A 
ATOM      8  H   UNL     1     -22.181  42.855  -6.075  0.00  0.00    +0.000 HD
ATOM      9  H   UNL     1     -20.633  43.378  -5.482  0.00  0.00    +0.000 HD
ENDROOT
BRANCH   3  12
ATOM     10  O   UNL     1     -19.212  39.184 -10.896  0.00  0.00    +0.000 OA
ATOM     11  N   UNL     1     -17.305  40.438 -10.481  0.00  0.00    +0.000 N 
ATOM     12  C   UNL     1     -18.627  40.052 -10.223  0.00  0.00    +0.000 C 
ATOM     13  H   UNL     1     -16.879  41.182  -9.941  0.00  0.00    +0.000 HD
BRANCH  11  14
ATOM     14  C   UNL     1     -16.500  39.875 -11.543  0.00  0.00    +0.000 C 
BRANCH  14  15
ATOM     15  C   UNL     1     -16.998  40.309 -12.909  0.00  0.00    +0.000 C 
BRANCH  15  16
ATOM     16  O   UNL     1     -17.051  41.728 -12.964  0.00  0.00    +0.000 OA
ATOM     17  C   UNL     1     -18.261  42.183 -13.556  0.00  0.00    +0.000 C 
ENDBRANCH  15  16
ENDBRANCH  14  15
ENDBRANCH  11  14
ENDBRANCH   3  12
TORSDOF 4
ENDMDL
MODEL 3
REMARK VINA RESULT:    -6.132      2.480      6.032
REMARK INTER + INTRA:          -7.813
REMARK INTER:                  -7.651
REMARK INTRA:                  -0.162
REMARK UNBOUND:                -0.247
REMARK  Name = 58772636
REMARK  5 active torsions:
REMARK  status: ('A' for Active; 'I' for Inactive)
REMARK    1  A    between atoms: O_1  and  C_7
REMARK    2  A    between atoms: O_1  and  C_14
REMARK    3  A    between atoms: N_3  and  C_6
REMARK    4  A    between atoms: C_6  and  C_7
REMARK    5  A    between atoms: C_8  and  C_9
REMARK                            x       y       z     vdW  Elec       q    Type
REMARK                         _______ _______ _______ _____ _____    ______ ____
ROOT
ATOM      1  N   UNL     1     -18.680  39.552 -12.264  0.00  0.00    +0.000 NA
ATOM      2  N   UNL     1     -16.481  39.847 -13.132  0.00  0.00    +0.000 N 
ATOM      3  C   UNL     1     -19.139  40.141  -9.965  0.00  0.00    +0.000 A 
ATOM      4  C   UNL     1     -17.816  40.532  -9.793  0.00  0.00    +0.000 A 
ATOM      5  C   UNL     1     -19.518  39.661 -11.209  0.00  0.00    +0.000 A 
ATOM      6  C   UNL     1     -16.924  40.433 -10.856  0.00  0.00    +0.000 A 
ATOM      7  C   UNL     1     -17.402  39.941 -12.059  0.00  0.00    +0.000 A 
ATOM      8  H   UNL     1     -15.700  40.491 -13.155  0.00  0.00    +0.000 HD
ATOM      9  H   UNL     1     -16.836  39.493 -14.013  0.00  0.00    +0.000 HD
ENDROOT
BRANCH   3  12
ATOM     10  O   UNL     1     -21.010  39.394  -8.764  0.00  0.00    +0.000 OA
ATOM     11  N   UNL     1     -19.921  41.278  -7.961  0.00  0.00    +0.000 N 
ATOM     12  C   UNL     1     -20.095  40.231  -8.875  0.00  0.00    +0.000 C 
ATOM     13  H   UNL     1     -19.135  41.911  -8.059  0.00  0.00    +0.000 HD
BRANCH  11  14
ATOM     14  C   UNL     1     -20.774  41.487  -6.812  0.00  0.00    +0.000 C 
BRANCH  14  15
ATOM     15  C   UNL     1     -21.534  42.797  -6.914  0.00  0.00    +0.000 C 
BRANCH  15  16
ATOM     16  O   UNL     1     -22.931  42.536  -6.902  0.00  0.00    +0.000 OA
ATOM     17  C   UNL     1     -23.202  41.141  -6.948  0.00  0.00    +0.000 C 
ENDBRANCH  15  16
ENDBRANCH  14  15
ENDBRANCH  11  14
ENDBRANCH   3  12
TORSDOF 4
ENDMDL
MODEL 4
REMARK VINA RESULT:    -5.011      4.397      6.020
REMARK INTER + INTRA:          -6.429
REMARK INTER:                  -6.247
REMARK INTRA:                  -0.182
REMARK UNBOUND:                -0.247
REMARK  Name = 58772636
REMARK  5 active torsions:
REMARK  status: ('A' for Active; 'I' for Inactive)
REMARK    1  A    between atoms: O_1  and  C_7
REMARK    2  A    between atoms: O_1  and  C_14
REMARK    3  A    between atoms: N_3  and  C_6
REMARK    4  A    between atoms: C_6  and  C_7
REMARK    5  A    between atoms: C_8  and  C_9
REMARK                            x       y       z     vdW  Elec       q    Type
REMARK                         _______ _______ _______ _____ _____    ______ ____
ROOT
ATOM      1  N   UNL     1     -17.550  42.314 -10.425  0.00  0.00    +0.000 NA
ATOM      2  N   UNL     1     -17.928  40.462  -8.976  0.00  0.00    +0.000 N 
ATOM      3  C   UNL     1     -18.788  42.476 -12.496  0.00  0.00    +0.000 A 
ATOM      4  C   UNL     1     -19.448  41.288 -12.203  0.00  0.00    +0.000 A 
ATOM      5  C   UNL     1     -17.855  42.943 -11.583  0.00  0.00    +0.000 A 
ATOM      6  C   UNL     1     -19.159  40.612 -11.022  0.00  0.00    +0.000 A 
ATOM      7  C   UNL     1     -18.211  41.162 -10.175  0.00  0.00    +0.000 A 
ATOM      8  H   UNL     1     -18.657  39.888  -8.570  0.00  0.00    +0.000 HD
ATOM      9  H   UNL     1     -17.239  40.871  -8.356  0.00  0.00    +0.000 HD
ENDROOT
BRANCH   3  12
ATOM     10  O   UNL     1     -18.767  44.409 -13.823  0.00  0.00    +0.000 OA
ATOM     11  N   UNL     1     -19.657  42.488 -14.769  0.00  0.00    +0.000 N 
ATOM     12  C   UNL     1     -19.066  43.205 -13.721  0.00  0.00    +0.000 C 
ATOM     13  H   UNL     1     -19.842  41.496 -14.663  0.00  0.00    +0.000 HD
BRANCH  11  14
ATOM     14  C   UNL     1     -19.974  43.066 -16.056  0.00  0.00    +0.000 C 
BRANCH  14  15
ATOM     15  C   UNL     1     -21.447  43.412 -16.163  0.00  0.00    +0.000 C 
BRANCH  15  16
ATOM     16  O   UNL     1     -21.706  43.986 -17.437  0.00  0.00    +0.000 OA
ATOM     17  C   UNL     1     -22.771  44.926 -17.380  0.00  0.00    +0.000 C 
ENDBRANCH  15  16
ENDBRANCH  14  15
ENDBRANCH  11  14
ENDBRANCH   3  12
TORSDOF 4
ENDMDL
MODEL 5
REMARK VINA RESULT:    -4.891      3.938      5.051
REMARK INTER + INTRA:          -6.281
REMARK INTER:                  -6.072
REMARK INTRA:                  -0.209
REMARK UNBOUND:                -0.247
REMARK  Name = 58772636
REMARK  5 active torsions:
REMARK  status: ('A' for Active; 'I' for Inactive)
REMARK    1  A    between atoms: O_1  and  C_7
REMARK    2  A    between atoms: O_1  and  C_14
REMARK    3  A    between atoms: N_3  and  C_6
REMARK    4  A    between atoms: C_6  and  C_7
REMARK    5  A    between atoms: C_8  and  C_9
REMARK                            x       y       z     vdW  Elec       q    Type
REMARK                         _______ _______ _______ _____ _____    ______ ____
ROOT
ATOM      1  N   UNL     1     -18.241  41.910  -8.818  0.00  0.00    +0.000 NA
ATOM      2  N   UNL     1     -19.286  40.149  -7.600  0.00  0.00    +0.000 N 
ATOM      3  C   UNL     1     -18.343  41.908 -11.233  0.00  0.00    +0.000 A 
ATOM      4  C   UNL     1     -19.076  40.727 -11.209  0.00  0.00    +0.000 A 
ATOM      5  C   UNL     1     -17.952  42.454 -10.021  0.00  0.00    +0.000 A 
ATOM      6  C   UNL     1     -19.393  40.137  -9.990  0.00  0.00    +0.000 A 
ATOM      7  C   UNL     1     -18.955  40.762  -8.834  0.00  0.00    +0.000 A 
ATOM      8  H   UNL     1     -20.127  39.587  -7.551  0.00  0.00    +0.000 HD
ATOM      9  H   UNL     1     -18.970  40.613  -6.757  0.00  0.00    +0.000 HD
ENDROOT
BRANCH   3  12
ATOM     10  O   UNL     1     -17.215  41.998 -13.288  0.00  0.00    +0.000 OA
ATOM     11  N   UNL     1     -18.593  43.787 -12.759  0.00  0.00    +0.000 N 
ATOM     12  C   UNL     1     -17.996  42.549 -12.490  0.00  0.00    +0.000 C 
ATOM     13  H   UNL     1     -19.261  44.180 -12.106  0.00  0.00    +0.000 HD
BRANCH  11  14
ATOM     14  C   UNL     1     -18.368  44.537 -13.975  0.00  0.00    +0.000 C 
BRANCH  14  15
ATOM     15  C   UNL     1     -18.206  46.019 -13.692  0.00  0.00    +0.000 C 
BRANCH  15  16
ATOM     16  O   UNL     1     -18.860  46.342 -12.473  0.00  0.00    +0.000 OA
ATOM     17  C   UNL     1     -18.061  47.192 -11.661  0.00  0.00    +0.000 C 
ENDBRANCH  15  16
ENDBRANCH  14  15
ENDBRANCH  11  14
ENDBRANCH   3  12
TORSDOF 4
ENDMDL
