MODEL 1
REMARK VINA RESULT:    -5.638      0.000      0.000
REMARK INTER + INTRA:          -6.790
REMARK INTER:                  -6.957
REMARK INTRA:                   0.167
REMARK UNBOUND:                 0.167
REMARK  Name = 58772627
REMARK  7 active torsions:
REMARK  status: ('A' for Active; 'I' for Inactive)
REMARK    1  A    between atoms: N_2  and  C_6
REMARK    2  A    between atoms: N_2  and  C_9
REMARK    3  A    between atoms: N_3  and  C_7
REMARK    4  A    between atoms: N_3  and  C_10
REMARK    5  A    between atoms: N_3  and  C_11
REMARK    6  A    between atoms: C_6  and  C_7
REMARK    7  A    between atoms: C_8  and  C_12
REMARK                            x       y       z     vdW  Elec       q    Type
REMARK                         _______ _______ _______ _____ _____    ______ ____
ROOT
ATOM      1  O   UNL     1     -17.861  42.822  -8.663  0.00  0.00    +0.000 OA
ATOM      2  N   UNL     1     -18.800  41.130 -10.011  0.00  0.00    +0.000 N 
ATOM      3  C   UNL     1     -18.044  42.297  -9.760  0.00  0.00    +0.000 C 
ATOM      4  C   UNL     1     -18.955  40.587 -11.365  0.00  0.00    +0.000 C 
ENDROOT
BRANCH   3   7
ATOM      5  N   UNL     1     -15.830  42.887 -12.733  0.00  0.00    +0.000 NA
ATOM      6  N   UNL     1     -15.610  44.769 -14.178  0.00  0.00    +0.000 N 
ATOM      7  C   UNL     1     -17.421  42.965 -10.915  0.00  0.00    +0.000 A 
ATOM      8  C   UNL     1     -17.794  44.252 -11.287  0.00  0.00    +0.000 A 
ATOM      9  C   UNL     1     -16.442  42.332 -11.663  0.00  0.00    +0.000 A 
ATOM     10  C   UNL     1     -17.188  44.857 -12.382  0.00  0.00    +0.000 A 
ATOM     11  C   UNL     1     -16.220  44.139 -13.066  0.00  0.00    +0.000 A 
ATOM     12  H   UNL     1     -14.908  44.239 -14.679  0.00  0.00    +0.000 HD
ATOM     13  H   UNL     1     -16.142  45.463 -14.690  0.00  0.00    +0.000 HD
ENDBRANCH   3   7
BRANCH   2  14
ATOM     14  C   UNL     1     -19.458  40.413  -8.954  0.00  0.00    +0.000 C 
BRANCH  14  15
ATOM     15  C   UNL     1     -20.899  40.874  -8.788  0.00  0.00    +0.000 C 
BRANCH  15  16
ATOM     16  N   UNL     1     -21.227  41.016  -7.369  0.00  0.00    +0.000 NA
ATOM     17  C   UNL     1     -20.276  41.911  -6.712  0.00  0.00    +0.000 C 
ATOM     18  C   UNL     1     -22.593  41.513  -7.209  0.00  0.00    +0.000 C 
ENDBRANCH  15  16
ENDBRANCH  14  15
ENDBRANCH   2  14
TORSDOF 4
ENDMDL
MODEL 2
REMARK VINA RESULT:    -5.250      2.740      3.920
REMARK INTER + INTRA:          -6.311
REMARK INTER:                  -6.057
REMARK INTRA:                  -0.254
REMARK UNBOUND:                 0.167
REMARK  Name = 58772627
REMARK  7 active torsions:
REMARK  status: ('A' for Active; 'I' for Inactive)
REMARK    1  A    between atoms: N_2  and  C_6
REMARK    2  A    between atoms: N_2  and  C_9
REMARK    3  A    between atoms: N_3  and  C_7
REMARK    4  A    between atoms: N_3  and  C_10
REMARK    5  A    between atoms: N_3  and  C_11
REMARK    6  A    between atoms: C_6  and  C_7
REMARK    7  A    between atoms: C_8  and  C_12
REMARK                            x       y       z     vdW  Elec       q    Type
REMARK                         _______ _______ _______ _____ _____    ______ ____
ROOT
ATOM      1  O   UNL     1     -18.475  42.745 -13.944  0.00  0.00    +0.000 OA
ATOM      2  N   UNL     1     -16.810  41.935 -12.483  0.00  0.00    +0.000 N 
ATOM      3  C   UNL     1     -17.567  42.934 -13.135  0.00  0.00    +0.000 C 
ATOM      4  C   UNL     1     -15.745  42.272 -11.532  0.00  0.00    +0.000 C 
ENDROOT
BRANCH   3   7
ATOM      5  N   UNL     1     -15.999  46.333 -13.407  0.00  0.00    +0.000 NA
ATOM      6  N   UNL     1     -16.258  48.293 -12.077  0.00  0.00    +0.000 N 
ATOM      7  C   UNL     1     -17.240  44.338 -12.838  0.00  0.00    +0.000 A 
ATOM      8  C   UNL     1     -17.820  44.997 -11.760  0.00  0.00    +0.000 A 
ATOM      9  C   UNL     1     -16.343  45.044 -13.624  0.00  0.00    +0.000 A 
ATOM     10  C   UNL     1     -17.492  46.324 -11.505  0.00  0.00    +0.000 A 
ATOM     11  C   UNL     1     -16.584  46.942 -12.351  0.00  0.00    +0.000 A 
ATOM     12  H   UNL     1     -15.600  48.742 -12.701  0.00  0.00    +0.000 HD
ATOM     13  H   UNL     1     -16.949  48.870 -11.613  0.00  0.00    +0.000 HD
ENDBRANCH   3   7
BRANCH   2  14
ATOM     14  C   UNL     1     -17.043  40.537 -12.716  0.00  0.00    +0.000 C 
BRANCH  14  15
ATOM     15  C   UNL     1     -17.078  39.758 -11.408  0.00  0.00    +0.000 C 
BRANCH  15  16
ATOM     16  N   UNL     1     -18.453  39.390 -11.072  0.00  0.00    +0.000 NA
ATOM     17  C   UNL     1     -18.985  40.285 -10.045  0.00  0.00    +0.000 C 
ATOM     18  C   UNL     1     -19.297  39.424 -12.266  0.00  0.00    +0.000 C 
ENDBRANCH  15  16
ENDBRANCH  14  15
ENDBRANCH   2  14
TORSDOF 4
ENDMDL
MODEL 3
REMARK VINA RESULT:    -5.216      1.687      2.399
REMARK INTER + INTRA:          -6.269
REMARK INTER:                  -6.037
REMARK INTRA:                  -0.232
REMARK UNBOUND:                 0.167
REMARK  Name = 58772627
REMARK  7 active torsions:
REMARK  status: ('A' for Active; 'I' for Inactive)
REMARK    1  A    between atoms: N_2  and  C_6
REMARK    2  A    between atoms: N_2  and  C_9
REMARK    3  A    between atoms: N_3  and  C_7
REMARK    4  A    between atoms: N_3  and  C_10
REMARK    5  A    between atoms: N_3  and  C_11
REMARK    6  A    between atoms: C_6  and  C_7
REMARK    7  A    between atoms: C_8  and  C_12
REMARK                            x       y       z     vdW  Elec       q    Type
REMARK                         _______ _______ _______ _____ _____    ______ ____
ROOT
ATOM      1  O   UNL     1     -17.712  43.227 -10.116  0.00  0.00    +0.000 OA
ATOM      2  N   UNL     1     -17.675  41.293 -11.465  0.00  0.00    +0.000 N 
ATOM      3  C   UNL     1     -17.618  42.682 -11.215  0.00  0.00    +0.000 C 
ATOM      4  C   UNL     1     -17.551  40.747 -12.821  0.00  0.00    +0.000 C 
ENDROOT
BRANCH   3   7
ATOM      5  N   UNL     1     -18.438  44.792 -14.209  0.00  0.00    +0.000 NA
ATOM      6  N   UNL     1     -17.046  46.084 -15.648  0.00  0.00    +0.000 N 
ATOM      7  C   UNL     1     -17.443  43.575 -12.372  0.00  0.00    +0.000 A 
ATOM      8  C   UNL     1     -16.185  44.042 -12.735  0.00  0.00    +0.000 A 
ATOM      9  C   UNL     1     -18.528  43.975 -13.136  0.00  0.00    +0.000 A 
ATOM     10  C   UNL     1     -16.051  44.885 -13.833  0.00  0.00    +0.000 A 
ATOM     11  C   UNL     1     -17.198  45.227 -14.531  0.00  0.00    +0.000 A 
ATOM     12  H   UNL     1     -17.888  46.337 -16.151  0.00  0.00    +0.000 HD
ATOM     13  H   UNL     1     -16.272  46.737 -15.652  0.00  0.00    +0.000 HD
ENDBRANCH   3   7
BRANCH   2  14
ATOM     14  C   UNL     1     -17.856  40.340 -10.405  0.00  0.00    +0.000 C 
BRANCH  14  15
ATOM     15  C   UNL     1     -19.328  39.999 -10.215  0.00  0.00    +0.000 C 
BRANCH  15  16
ATOM     16  N   UNL     1     -19.876  40.730  -9.074  0.00  0.00    +0.000 NA
ATOM     17  C   UNL     1     -21.113  40.103  -8.610  0.00  0.00    +0.000 C 
ATOM     18  C   UNL     1     -18.897  40.792  -7.989  0.00  0.00    +0.000 C 
ENDBRANCH  15  16
ENDBRANCH  14  15
ENDBRANCH   2  14
TORSDOF 4
ENDMDL
MODEL 4
REMARK VINA RESULT:    -5.169      1.547      2.030
REMARK INTER + INTRA:          -6.211
REMARK INTER:                  -6.048
REMARK INTRA:                  -0.163
REMARK UNBOUND:                 0.167
REMARK  Name = 58772627
REMARK  7 active torsions:
REMARK  status: ('A' for Active; 'I' for Inactive)
REMARK    1  A    between atoms: N_2  and  C_6
REMARK    2  A    between atoms: N_2  and  C_9
REMARK    3  A    between atoms: N_3  and  C_7
REMARK    4  A    between atoms: N_3  and  C_10
REMARK    5  A    between atoms: N_3  and  C_11
REMARK    6  A    between atoms: C_6  and  C_7
REMARK    7  A    between atoms: C_8  and  C_12
REMARK                            x       y       z     vdW  Elec       q    Type
REMARK                         _______ _______ _______ _____ _____    ______ ____
ROOT
ATOM      1  O   UNL     1     -17.295  39.972 -11.335  0.00  0.00    +0.000 OA
ATOM      2  N   UNL     1     -18.015  41.508  -9.696  0.00  0.00    +0.000 N 
ATOM      3  C   UNL     1     -17.423  41.123 -10.920  0.00  0.00    +0.000 C 
ATOM      4  C   UNL     1     -18.117  42.916  -9.297  0.00  0.00    +0.000 C 
ENDROOT
BRANCH   3   7
ATOM      5  N   UNL     1     -17.257  43.758 -13.589  0.00  0.00    +0.000 NA
ATOM      6  N   UNL     1     -15.483  45.197 -14.265  0.00  0.00    +0.000 N 
ATOM      7  C   UNL     1     -16.892  42.190 -11.785  0.00  0.00    +0.000 A 
ATOM      8  C   UNL     1     -15.584  42.641 -11.647  0.00  0.00    +0.000 A 
ATOM      9  C   UNL     1     -17.681  42.775 -12.762  0.00  0.00    +0.000 A 
ATOM     10  C   UNL     1     -15.111  43.650 -12.479  0.00  0.00    +0.000 A 
ATOM     11  C   UNL     1     -15.979  44.171 -13.425  0.00  0.00    +0.000 A 
ATOM     12  H   UNL     1     -16.122  45.579 -14.951  0.00  0.00    +0.000 HD
ATOM     13  H   UNL     1     -14.747  45.796 -13.911  0.00  0.00    +0.000 HD
ENDBRANCH   3   7
BRANCH   2  14
ATOM     14  C   UNL     1     -18.550  40.541  -8.778  0.00  0.00    +0.000 C 
BRANCH  14  15
ATOM     15  C   UNL     1     -19.195  41.219  -7.577  0.00  0.00    +0.000 C 
BRANCH  15  16
ATOM     16  N   UNL     1     -20.605  40.842  -7.477  0.00  0.00    +0.000 NA
ATOM     17  C   UNL     1     -21.440  42.029  -7.300  0.00  0.00    +0.000 C 
ATOM     18  C   UNL     1     -21.019  40.097  -8.665  0.00  0.00    +0.000 C 
ENDBRANCH  15  16
ENDBRANCH  14  15
ENDBRANCH   2  14
TORSDOF 4
ENDMDL
MODEL 5
REMARK VINA RESULT:    -4.976      1.974      6.416
REMARK INTER + INTRA:          -5.973
REMARK INTER:                  -5.735
REMARK INTRA:                  -0.238
REMARK UNBOUND:                 0.167
REMARK  Name = 58772627
REMARK  7 active torsions:
REMARK  status: ('A' for Active; 'I' for Inactive)
REMARK    1  A    between atoms: N_2  and  C_6
REMARK    2  A    between atoms: N_2  and  C_9
REMARK    3  A    between atoms: N_3  and  C_7
REMARK    4  A    between atoms: N_3  and  C_10
REMARK    5  A    between atoms: N_3  and  C_11
REMARK    6  A    between atoms: C_6  and  C_7
REMARK    7  A    between atoms: C_8  and  C_12
REMARK                            x       y       z     vdW  Elec       q    Type
REMARK                         _______ _______ _______ _____ _____    ______ ____
ROOT
ATOM      1  O   UNL     1     -15.375  42.155 -11.297  0.00  0.00    +0.000 OA
ATOM      2  N   UNL     1     -16.895  43.551 -12.440  0.00  0.00    +0.000 N 
ATOM      3  C   UNL     1     -16.524  42.508 -11.562  0.00  0.00    +0.000 C 
ATOM      4  C   UNL     1     -18.301  43.890 -12.685  0.00  0.00    +0.000 C 
ENDROOT
BRANCH   3   7
ATOM      5  N   UNL     1     -19.071  41.486  -9.001  0.00  0.00    +0.000 NA
ATOM      6  N   UNL     1     -20.642  39.695  -8.978  0.00  0.00    +0.000 N 
ATOM      7  C   UNL     1     -17.605  41.755 -10.904  0.00  0.00    +0.000 A 
ATOM      8  C   UNL     1     -18.177  40.643 -11.512  0.00  0.00    +0.000 A 
ATOM      9  C   UNL     1     -18.082  42.132  -9.660  0.00  0.00    +0.000 A 
ATOM     10  C   UNL     1     -19.196  39.952 -10.866  0.00  0.00    +0.000 A 
ATOM     11  C   UNL     1     -19.604  40.410  -9.623  0.00  0.00    +0.000 A 
ATOM     12  H   UNL     1     -20.941  40.036  -8.073  0.00  0.00    +0.000 HD
ATOM     13  H   UNL     1     -21.317  39.203  -9.550  0.00  0.00    +0.000 HD
ENDBRANCH   3   7
BRANCH   2  14
ATOM     14  C   UNL     1     -15.915  44.335 -13.139  0.00  0.00    +0.000 C 
BRANCH  14  15
ATOM     15  C   UNL     1     -15.892  45.770 -12.631  0.00  0.00    +0.000 C 
BRANCH  15  16
ATOM     16  N   UNL     1     -16.048  46.706 -13.744  0.00  0.00    +0.000 NA
ATOM     17  C   UNL     1     -15.948  46.002 -15.022  0.00  0.00    +0.000 C 
ATOM     18  C   UNL     1     -17.328  47.407 -13.645  0.00  0.00    +0.000 C 
ENDBRANCH  15  16
ENDBRANCH  14  15
ENDBRANCH   2  14
TORSDOF 4
ENDMDL
