MODEL 1
REMARK VINA RESULT:    -6.196      0.000      0.000
REMARK INTER + INTRA:          -6.603
REMARK INTER:                  -6.558
REMARK INTRA:                  -0.045
REMARK UNBOUND:                -0.045
REMARK  Name = 58779722
REMARK  1 active torsions:
REMARK  status: ('A' for Active; 'I' for Inactive)
REMARK    1  A    between atoms: C_6  and  C_12
REMARK                            x       y       z     vdW  Elec       q    Type
REMARK                         _______ _______ _______ _____ _____    ______ ____
ROOT
ATOM      1  O   UNL     1     -22.939  42.021  -6.014  0.00  0.00    +0.000 OA
ATOM      2  N   UNL     1     -21.384  41.476  -7.629  0.00  0.00    +0.000 N 
ATOM      3  N   UNL     1     -23.695  40.611  -7.637  0.00  0.00    +0.000 N 
ATOM      4  C   UNL     1     -19.769  40.905  -9.312  0.00  0.00    +0.000 A 
ATOM      5  C   UNL     1     -21.044  40.813  -8.764  0.00  0.00    +0.000 A 
ATOM      6  C   UNL     1     -20.439  42.248  -7.023  0.00  0.00    +0.000 A 
ATOM      7  C   UNL     1     -18.815  41.692  -8.691  0.00  0.00    +0.000 A 
ATOM      8  C   UNL     1     -19.153  42.371  -7.534  0.00  0.00    +0.000 A 
ATOM      9  C   UNL     1     -22.719  41.386  -7.044  0.00  0.00    +0.000 C 
ATOM     10  H   UNL     1     -23.567  40.071  -8.484  0.00  0.00    +0.000 HD
ATOM     11  H   UNL     1     -24.619  40.556  -7.223  0.00  0.00    +0.000 HD
ENDROOT
BRANCH   4  14
ATOM     12  O   UNL     1     -18.832  39.097 -10.495  0.00  0.00    +0.000 OA
ATOM     13  N   UNL     1     -19.852  40.730 -11.741  0.00  0.00    +0.000 N 
ATOM     14  C   UNL     1     -19.442  40.180 -10.530  0.00  0.00    +0.000 C 
ATOM     15  H   UNL     1     -20.355  41.601 -11.857  0.00  0.00    +0.000 HD
ATOM     16  H   UNL     1     -19.642  40.240 -12.605  0.00  0.00    +0.000 HD
ENDBRANCH   4  14
TORSDOF 1
ENDMDL
MODEL 2
REMARK VINA RESULT:    -5.876      2.324      2.933
REMARK INTER + INTRA:          -6.265
REMARK INTER:                  -6.212
REMARK INTRA:                  -0.053
REMARK UNBOUND:                -0.045
REMARK  Name = 58779722
REMARK  1 active torsions:
REMARK  status: ('A' for Active; 'I' for Inactive)
REMARK    1  A    between atoms: C_6  and  C_12
REMARK                            x       y       z     vdW  Elec       q    Type
REMARK                         _______ _______ _______ _____ _____    ______ ____
ROOT
ATOM      1  O   UNL     1     -20.404  41.351  -7.420  0.00  0.00    +0.000 OA
ATOM      2  N   UNL     1     -19.273  41.066  -9.410  0.00  0.00    +0.000 N 
ATOM      3  N   UNL     1     -21.166  39.642  -8.720  0.00  0.00    +0.000 N 
ATOM      4  C   UNL     1     -18.099  40.765 -11.484  0.00  0.00    +0.000 A 
ATOM      5  C   UNL     1     -19.094  40.404 -10.582  0.00  0.00    +0.000 A 
ATOM      6  C   UNL     1     -18.446  42.110  -9.126  0.00  0.00    +0.000 A 
ATOM      7  C   UNL     1     -17.263  41.828 -11.187  0.00  0.00    +0.000 A 
ATOM      8  C   UNL     1     -17.438  42.508  -9.995  0.00  0.00    +0.000 A 
ATOM      9  C   UNL     1     -20.315  40.695  -8.456  0.00  0.00    +0.000 C 
ATOM     10  H   UNL     1     -21.136  39.072  -9.556  0.00  0.00    +0.000 HD
ATOM     11  H   UNL     1     -21.886  39.393  -8.051  0.00  0.00    +0.000 HD
ENDROOT
BRANCH   4  14
ATOM     12  O   UNL     1     -18.921  39.624 -13.372  0.00  0.00    +0.000 OA
ATOM     13  N   UNL     1     -16.643  39.813 -13.190  0.00  0.00    +0.000 N 
ATOM     14  C   UNL     1     -17.938  40.031 -12.729  0.00  0.00    +0.000 C 
ATOM     15  H   UNL     1     -15.792  40.113 -12.732  0.00  0.00    +0.000 HD
ATOM     16  H   UNL     1     -16.505  39.308 -14.061  0.00  0.00    +0.000 HD
ENDBRANCH   4  14
TORSDOF 1
ENDMDL
MODEL 3
REMARK VINA RESULT:    -5.635      3.623      5.582
REMARK INTER + INTRA:          -6.010
REMARK INTER:                  -5.963
REMARK INTRA:                  -0.046
REMARK UNBOUND:                -0.045
REMARK  Name = 58779722
REMARK  1 active torsions:
REMARK  status: ('A' for Active; 'I' for Inactive)
REMARK    1  A    between atoms: C_6  and  C_12
REMARK                            x       y       z     vdW  Elec       q    Type
REMARK                         _______ _______ _______ _____ _____    ______ ____
ROOT
ATOM      1  O   UNL     1     -18.891  44.457 -14.896  0.00  0.00    +0.000 OA
ATOM      2  N   UNL     1     -18.849  42.929 -13.169  0.00  0.00    +0.000 N 
ATOM      3  N   UNL     1     -20.261  42.658 -15.173  0.00  0.00    +0.000 N 
ATOM      4  C   UNL     1     -18.809  41.334 -11.373  0.00  0.00    +0.000 A 
ATOM      5  C   UNL     1     -19.278  41.769 -12.608  0.00  0.00    +0.000 A 
ATOM      6  C   UNL     1     -17.934  43.675 -12.490  0.00  0.00    +0.000 A 
ATOM      7  C   UNL     1     -17.879  42.099 -10.690  0.00  0.00    +0.000 A 
ATOM      8  C   UNL     1     -17.436  43.282 -11.254  0.00  0.00    +0.000 A 
ATOM      9  C   UNL     1     -19.335  43.395 -14.465  0.00  0.00    +0.000 C 
ATOM     10  H   UNL     1     -20.657  41.779 -14.864  0.00  0.00    +0.000 HD
ATOM     11  H   UNL     1     -20.592  42.991 -16.073  0.00  0.00    +0.000 HD
ENDROOT
BRANCH   4  14
ATOM     12  O   UNL     1     -18.902  38.986 -11.232  0.00  0.00    +0.000 OA
ATOM     13  N   UNL     1     -20.198  40.162  -9.750  0.00  0.00    +0.000 N 
ATOM     14  C   UNL     1     -19.292  40.086 -10.805  0.00  0.00    +0.000 C 
ATOM     15  H   UNL     1     -20.562  41.013  -9.341  0.00  0.00    +0.000 HD
ATOM     16  H   UNL     1     -20.545  39.305  -9.332  0.00  0.00    +0.000 HD
ENDBRANCH   4  14
TORSDOF 1
ENDMDL
MODEL 4
REMARK VINA RESULT:    -5.551      2.872      4.165
REMARK INTER + INTRA:          -5.920
REMARK INTER:                  -5.875
REMARK INTRA:                  -0.045
REMARK UNBOUND:                -0.045
REMARK  Name = 58779722
REMARK  1 active torsions:
REMARK  status: ('A' for Active; 'I' for Inactive)
REMARK    1  A    between atoms: C_6  and  C_12
REMARK                            x       y       z     vdW  Elec       q    Type
REMARK                         _______ _______ _______ _____ _____    ______ ____
ROOT
ATOM      1  O   UNL     1     -21.079  39.948  -8.654  0.00  0.00    +0.000 OA
ATOM      2  N   UNL     1     -19.208  40.397  -9.927  0.00  0.00    +0.000 N 
ATOM      3  N   UNL     1     -19.566  41.343  -7.677  0.00  0.00    +0.000 N 
ATOM      4  C   UNL     1     -17.258  40.868 -11.248  0.00  0.00    +0.000 A 
ATOM      5  C   UNL     1     -18.012  41.019 -10.089  0.00  0.00    +0.000 A 
ATOM      6  C   UNL     1     -19.668  39.607 -10.937  0.00  0.00    +0.000 A 
ATOM      7  C   UNL     1     -17.733  40.063 -12.269  0.00  0.00    +0.000 A 
ATOM      8  C   UNL     1     -18.950  39.425 -12.113  0.00  0.00    +0.000 A 
ATOM      9  C   UNL     1     -20.008  40.549  -8.715  0.00  0.00    +0.000 C 
ATOM     10  H   UNL     1     -18.693  41.858  -7.675  0.00  0.00    +0.000 HD
ATOM     11  H   UNL     1     -20.129  41.442  -6.839  0.00  0.00    +0.000 HD
ENDROOT
BRANCH   4  14
ATOM     12  O   UNL     1     -15.918  42.742 -11.734  0.00  0.00    +0.000 OA
ATOM     13  N   UNL     1     -14.827  40.830 -11.092  0.00  0.00    +0.000 N 
ATOM     14  C   UNL     1     -15.982  41.551 -11.385  0.00  0.00    +0.000 C 
ATOM     15  H   UNL     1     -14.791  39.862 -10.798  0.00  0.00    +0.000 HD
ATOM     16  H   UNL     1     -13.924  41.286 -11.174  0.00  0.00    +0.000 HD
ENDBRANCH   4  14
TORSDOF 1
ENDMDL
MODEL 5
REMARK VINA RESULT:    -5.261      3.616      4.984
REMARK INTER + INTRA:          -5.614
REMARK INTER:                  -5.556
REMARK INTRA:                  -0.058
REMARK UNBOUND:                -0.045
REMARK  Name = 58779722
REMARK  1 active torsions:
REMARK  status: ('A' for Active; 'I' for Inactive)
REMARK    1  A    between atoms: C_6  and  C_12
REMARK                            x       y       z     vdW  Elec       q    Type
REMARK                         _______ _______ _______ _____ _____    ______ ____
ROOT
ATOM      1  O   UNL     1     -18.032  40.452  -9.087  0.00  0.00    +0.000 OA
ATOM      2  N   UNL     1     -18.209  41.544 -11.112  0.00  0.00    +0.000 N 
ATOM      3  N   UNL     1     -19.984  40.091 -10.205  0.00  0.00    +0.000 N 
ATOM      4  C   UNL     1     -18.398  42.678 -13.221  0.00  0.00    +0.000 A 
ATOM      5  C   UNL     1     -18.909  41.838 -12.238  0.00  0.00    +0.000 A 
ATOM      6  C   UNL     1     -16.974  42.096 -10.958  0.00  0.00    +0.000 A 
ATOM      7  C   UNL     1     -17.142  43.235 -13.056  0.00  0.00    +0.000 A 
ATOM      8  C   UNL     1     -16.421  42.941 -11.912  0.00  0.00    +0.000 A 
ATOM      9  C   UNL     1     -18.736  40.663 -10.073  0.00  0.00    +0.000 C 
ATOM     10  H   UNL     1     -20.603  40.231 -10.994  0.00  0.00    +0.000 HD
ATOM     11  H   UNL     1     -20.341  39.481  -9.477  0.00  0.00    +0.000 HD
ENDROOT
BRANCH   4  14
ATOM     12  O   UNL     1     -20.224  42.347 -14.670  0.00  0.00    +0.000 OA
ATOM     13  N   UNL     1     -18.726  43.982 -15.253  0.00  0.00    +0.000 N 
ATOM     14  C   UNL     1     -19.179  42.968 -14.413  0.00  0.00    +0.000 C 
ATOM     15  H   UNL     1     -17.891  44.538 -15.115  0.00  0.00    +0.000 HD
ATOM     16  H   UNL     1     -19.257  44.209 -16.088  0.00  0.00    +0.000 HD
ENDBRANCH   4  14
TORSDOF 1
ENDMDL
