MODEL 1
REMARK VINA RESULT:    -6.456      0.000      0.000
REMARK INTER + INTRA:          -7.485
REMARK INTER:                  -7.966
REMARK INTRA:                   0.481
REMARK UNBOUND:                 0.481
REMARK  Name = 58772629
REMARK  6 active torsions:
REMARK  status: ('A' for Active; 'I' for Inactive)
REMARK    1  A    between atoms: O_1  and  C_7
REMARK    2  A    between atoms: O_1  and  C_15
REMARK    3  A    between atoms: N_3  and  C_6
REMARK    4  A    between atoms: N_3  and  C_9
REMARK    5  A    between atoms: C_6  and  C_7
REMARK    6  A    between atoms: C_8  and  C_10
REMARK                            x       y       z     vdW  Elec       q    Type
REMARK                         _______ _______ _______ _____ _____    ______ ____
ROOT
ATOM      1  N   UNL     1     -19.247  42.289  -7.138  0.00  0.00    +0.000 NA
ATOM      2  N   UNL     1     -21.112  42.470  -5.666  0.00  0.00    +0.000 N 
ATOM      3  C   UNL     1     -19.458  40.999  -9.172  0.00  0.00    +0.000 A 
ATOM      4  C   UNL     1     -20.777  40.697  -8.852  0.00  0.00    +0.000 A 
ATOM      5  C   UNL     1     -18.742  41.792  -8.289  0.00  0.00    +0.000 A 
ATOM      6  C   UNL     1     -21.332  41.189  -7.677  0.00  0.00    +0.000 A 
ATOM      7  C   UNL     1     -20.532  41.974  -6.861  0.00  0.00    +0.000 A 
ATOM      8  H   UNL     1     -20.527  43.047  -5.077  0.00  0.00    +0.000 HD
ATOM      9  H   UNL     1     -22.114  42.621  -5.644  0.00  0.00    +0.000 HD
ENDROOT
BRANCH   3  12
ATOM     10  O   UNL     1     -19.098  39.326 -10.707  0.00  0.00    +0.000 OA
ATOM     11  N   UNL     1     -18.034  41.360 -11.151  0.00  0.00    +0.000 N 
ATOM     12  C   UNL     1     -18.841  40.492 -10.408  0.00  0.00    +0.000 C 
ATOM     13  C   UNL     1     -17.777  42.731 -10.732  0.00  0.00    +0.000 C 
BRANCH  11  14
ATOM     14  C   UNL     1     -17.394  40.949 -12.400  0.00  0.00    +0.000 C 
BRANCH  14  15
ATOM     15  C   UNL     1     -17.762  41.873 -13.545  0.00  0.00    +0.000 C 
BRANCH  15  16
ATOM     16  O   UNL     1     -19.136  41.699 -13.869  0.00  0.00    +0.000 OA
ATOM     17  C   UNL     1     -19.755  42.936 -14.195  0.00  0.00    +0.000 C 
ENDBRANCH  15  16
ENDBRANCH  14  15
ENDBRANCH  11  14
ENDBRANCH   3  12
TORSDOF 4
ENDMDL
MODEL 2
REMARK VINA RESULT:    -5.936      2.442      5.794
REMARK INTER + INTRA:          -6.843
REMARK INTER:                  -6.932
REMARK INTRA:                   0.089
REMARK UNBOUND:                 0.481
REMARK  Name = 58772629
REMARK  6 active torsions:
REMARK  status: ('A' for Active; 'I' for Inactive)
REMARK    1  A    between atoms: O_1  and  C_7
REMARK    2  A    between atoms: O_1  and  C_15
REMARK    3  A    between atoms: N_3  and  C_6
REMARK    4  A    between atoms: N_3  and  C_9
REMARK    5  A    between atoms: C_6  and  C_7
REMARK    6  A    between atoms: C_8  and  C_10
REMARK                            x       y       z     vdW  Elec       q    Type
REMARK                         _______ _______ _______ _____ _____    ______ ____
ROOT
ATOM      1  N   UNL     1     -18.321  41.367 -12.323  0.00  0.00    +0.000 NA
ATOM      2  N   UNL     1     -16.724  40.056 -13.510  0.00  0.00    +0.000 N 
ATOM      3  C   UNL     1     -18.389  41.260  -9.909  0.00  0.00    +0.000 A 
ATOM      4  C   UNL     1     -17.341  40.347  -9.913  0.00  0.00    +0.000 A 
ATOM      5  C   UNL     1     -18.839  41.736 -11.130  0.00  0.00    +0.000 A 
ATOM      6  C   UNL     1     -16.782  39.942 -11.120  0.00  0.00    +0.000 A 
ATOM      7  C   UNL     1     -17.304  40.478 -12.288  0.00  0.00    +0.000 A 
ATOM      8  H   UNL     1     -17.104  40.455 -14.359  0.00  0.00    +0.000 HD
ATOM      9  H   UNL     1     -15.753  39.766 -13.508  0.00  0.00    +0.000 HD
ENDROOT
BRANCH   3  12
ATOM     10  O   UNL     1     -18.507  42.706  -8.126  0.00  0.00    +0.000 OA
ATOM     11  N   UNL     1     -20.093  40.989  -8.150  0.00  0.00    +0.000 N 
ATOM     12  C   UNL     1     -19.002  41.708  -8.648  0.00  0.00    +0.000 C 
ATOM     13  C   UNL     1     -20.624  39.814  -8.827  0.00  0.00    +0.000 C 
BRANCH  11  14
ATOM     14  C   UNL     1     -20.776  41.369  -6.914  0.00  0.00    +0.000 C 
BRANCH  14  15
ATOM     15  C   UNL     1     -21.646  42.596  -7.112  0.00  0.00    +0.000 C 
BRANCH  15  16
ATOM     16  O   UNL     1     -22.975  42.303  -6.697  0.00  0.00    +0.000 OA
ATOM     17  C   UNL     1     -23.369  40.997  -7.092  0.00  0.00    +0.000 C 
ENDBRANCH  15  16
ENDBRANCH  14  15
ENDBRANCH  11  14
ENDBRANCH   3  12
TORSDOF 4
ENDMDL
MODEL 3
REMARK VINA RESULT:    -5.896      2.331      5.708
REMARK INTER + INTRA:          -6.794
REMARK INTER:                  -6.851
REMARK INTRA:                   0.058
REMARK UNBOUND:                 0.481
REMARK  Name = 58772629
REMARK  6 active torsions:
REMARK  status: ('A' for Active; 'I' for Inactive)
REMARK    1  A    between atoms: O_1  and  C_7
REMARK    2  A    between atoms: O_1  and  C_15
REMARK    3  A    between atoms: N_3  and  C_6
REMARK    4  A    between atoms: N_3  and  C_9
REMARK    5  A    between atoms: C_6  and  C_7
REMARK    6  A    between atoms: C_8  and  C_10
REMARK                            x       y       z     vdW  Elec       q    Type
REMARK                         _______ _______ _______ _____ _____    ______ ____
ROOT
ATOM      1  N   UNL     1     -15.861  42.806 -12.709  0.00  0.00    +0.000 NA
ATOM      2  N   UNL     1     -15.466  44.817 -13.924  0.00  0.00    +0.000 N 
ATOM      3  C   UNL     1     -18.134  42.113 -12.264  0.00  0.00    +0.000 A 
ATOM      4  C   UNL     1     -18.614  43.233 -12.933  0.00  0.00    +0.000 A 
ATOM      5  C   UNL     1     -16.761  41.947 -12.180  0.00  0.00    +0.000 A 
ATOM      6  C   UNL     1     -17.720  44.141 -13.490  0.00  0.00    +0.000 A 
ATOM      7  C   UNL     1     -16.365  43.884 -13.351  0.00  0.00    +0.000 A 
ATOM      8  H   UNL     1     -14.478  44.622 -13.826  0.00  0.00    +0.000 HD
ATOM      9  H   UNL     1     -15.772  45.349 -14.731  0.00  0.00    +0.000 HD
ENDROOT
BRANCH   3  12
ATOM     10  O   UNL     1     -19.685  40.426 -12.448  0.00  0.00    +0.000 OA
ATOM     11  N   UNL     1     -19.136  41.070 -10.269  0.00  0.00    +0.000 N 
ATOM     12  C   UNL     1     -19.055  41.135 -11.663  0.00  0.00    +0.000 C 
ATOM     13  C   UNL     1     -18.356  41.944  -9.404  0.00  0.00    +0.000 C 
BRANCH  11  14
ATOM     14  C   UNL     1     -20.010  40.118  -9.584  0.00  0.00    +0.000 C 
BRANCH  14  15
ATOM     15  C   UNL     1     -20.452  40.642  -8.231  0.00  0.00    +0.000 C 
BRANCH  15  16
ATOM     16  O   UNL     1     -21.868  40.785  -8.219  0.00  0.00    +0.000 OA
ATOM     17  C   UNL     1     -22.301  41.593  -7.134  0.00  0.00    +0.000 C 
ENDBRANCH  15  16
ENDBRANCH  14  15
ENDBRANCH  11  14
ENDBRANCH   3  12
TORSDOF 4
ENDMDL
MODEL 4
REMARK VINA RESULT:    -5.833      1.784      2.215
REMARK INTER + INTRA:          -6.716
REMARK INTER:                  -6.726
REMARK INTRA:                   0.011
REMARK UNBOUND:                 0.481
REMARK  Name = 58772629
REMARK  6 active torsions:
REMARK  status: ('A' for Active; 'I' for Inactive)
REMARK    1  A    between atoms: O_1  and  C_7
REMARK    2  A    between atoms: O_1  and  C_15
REMARK    3  A    between atoms: N_3  and  C_6
REMARK    4  A    between atoms: N_3  and  C_9
REMARK    5  A    between atoms: C_6  and  C_7
REMARK    6  A    between atoms: C_8  and  C_10
REMARK                            x       y       z     vdW  Elec       q    Type
REMARK                         _______ _______ _______ _____ _____    ______ ____
ROOT
ATOM      1  N   UNL     1     -21.439  40.419  -8.389  0.00  0.00    +0.000 NA
ATOM      2  N   UNL     1     -22.325  41.641  -6.545  0.00  0.00    +0.000 N 
ATOM      3  C   UNL     1     -19.208  40.911  -9.179  0.00  0.00    +0.000 A 
ATOM      4  C   UNL     1     -19.070  41.890  -8.202  0.00  0.00    +0.000 A 
ATOM      5  C   UNL     1     -20.403  40.209  -9.230  0.00  0.00    +0.000 A 
ATOM      6  C   UNL     1     -20.115  42.136  -7.319  0.00  0.00    +0.000 A 
ATOM      7  C   UNL     1     -21.269  41.379  -7.453  0.00  0.00    +0.000 A 
ATOM      8  H   UNL     1     -23.163  41.081  -6.642  0.00  0.00    +0.000 HD
ATOM      9  H   UNL     1     -22.093  42.002  -5.626  0.00  0.00    +0.000 HD
ENDROOT
BRANCH   3  12
ATOM     10  O   UNL     1     -17.094  40.145  -9.655  0.00  0.00    +0.000 OA
ATOM     11  N   UNL     1     -18.334  40.906 -11.484  0.00  0.00    +0.000 N 
ATOM     12  C   UNL     1     -18.121  40.627 -10.130  0.00  0.00    +0.000 C 
ATOM     13  C   UNL     1     -19.582  41.478 -11.972  0.00  0.00    +0.000 C 
BRANCH  11  14
ATOM     14  C   UNL     1     -17.319  40.643 -12.502  0.00  0.00    +0.000 C 
BRANCH  14  15
ATOM     15  C   UNL     1     -16.762  41.930 -13.080  0.00  0.00    +0.000 C 
BRANCH  15  16
ATOM     16  O   UNL     1     -16.058  42.637 -12.066  0.00  0.00    +0.000 OA
ATOM     17  C   UNL     1     -16.162  44.043 -12.244  0.00  0.00    +0.000 C 
ENDBRANCH  15  16
ENDBRANCH  14  15
ENDBRANCH  11  14
ENDBRANCH   3  12
TORSDOF 4
ENDMDL
MODEL 5
REMARK VINA RESULT:    -5.377      2.952      3.707
REMARK INTER + INTRA:          -6.154
REMARK INTER:                  -6.035
REMARK INTRA:                  -0.119
REMARK UNBOUND:                 0.481
REMARK  Name = 58772629
REMARK  6 active torsions:
REMARK  status: ('A' for Active; 'I' for Inactive)
REMARK    1  A    between atoms: O_1  and  C_7
REMARK    2  A    between atoms: O_1  and  C_15
REMARK    3  A    between atoms: N_3  and  C_6
REMARK    4  A    between atoms: N_3  and  C_9
REMARK    5  A    between atoms: C_6  and  C_7
REMARK    6  A    between atoms: C_8  and  C_10
REMARK                            x       y       z     vdW  Elec       q    Type
REMARK                         _______ _______ _______ _____ _____    ______ ____
ROOT
ATOM      1  N   UNL     1     -19.471  39.641 -10.548  0.00  0.00    +0.000 NA
ATOM      2  N   UNL     1     -21.009  39.681  -8.728  0.00  0.00    +0.000 N 
ATOM      3  C   UNL     1     -17.719  41.303 -10.660  0.00  0.00    +0.000 A 
ATOM      4  C   UNL     1     -18.175  41.874  -9.477  0.00  0.00    +0.000 A 
ATOM      5  C   UNL     1     -18.397  40.198 -11.150  0.00  0.00    +0.000 A 
ATOM      6  C   UNL     1     -19.278  41.331  -8.828  0.00  0.00    +0.000 A 
ATOM      7  C   UNL     1     -19.886  40.223  -9.400  0.00  0.00    +0.000 A 
ATOM      8  H   UNL     1     -21.445  38.869  -9.146  0.00  0.00    +0.000 HD
ATOM      9  H   UNL     1     -21.071  39.795  -7.723  0.00  0.00    +0.000 HD
ENDROOT
BRANCH   3  12
ATOM     10  O   UNL     1     -15.479  41.291 -11.174  0.00  0.00    +0.000 OA
ATOM     11  N   UNL     1     -16.751  42.952 -12.215  0.00  0.00    +0.000 N 
ATOM     12  C   UNL     1     -16.555  41.855 -11.370  0.00  0.00    +0.000 C 
ATOM     13  C   UNL     1     -18.059  43.567 -12.397  0.00  0.00    +0.000 C 
BRANCH  11  14
ATOM     14  C   UNL     1     -15.657  43.556 -12.973  0.00  0.00    +0.000 C 
BRANCH  14  15
ATOM     15  C   UNL     1     -15.906  45.030 -13.234  0.00  0.00    +0.000 C 
BRANCH  15  16
ATOM     16  O   UNL     1     -15.085  45.807 -12.370  0.00  0.00    +0.000 OA
ATOM     17  C   UNL     1     -15.817  46.867 -11.771  0.00  0.00    +0.000 C 
ENDBRANCH  15  16
ENDBRANCH  14  15
ENDBRANCH  11  14
ENDBRANCH   3  12
TORSDOF 4
ENDMDL
