MODEL 1
REMARK VINA RESULT:    -6.692      0.000      0.000
REMARK INTER + INTRA:          -9.130
REMARK INTER:                  -8.648
REMARK INTRA:                  -0.481
REMARK UNBOUND:                -0.481
REMARK  Name = 58772608
REMARK  6 active torsions:
REMARK  status: ('A' for Active; 'I' for Inactive)
REMARK    1  A    between atoms: N_2  and  C_6
REMARK    2  A    between atoms: N_2  and  C_8
REMARK    3  A    between atoms: N_3  and  C_7
REMARK    4  A    between atoms: C_6  and  C_7
REMARK    5  A    between atoms: C_8  and  C_11
REMARK    6  A    between atoms: C_9  and  C_10
REMARK                            x       y       z     vdW  Elec       q    Type
REMARK                         _______ _______ _______ _____ _____    ______ ____
ROOT
ATOM      1  O   UNL     1     -17.945  40.367  -9.213  0.00  0.00    +0.000 OA
ATOM      2  N   UNL     1     -19.815  39.744 -10.437  0.00  0.00    +0.000 N 
ATOM      3  C   UNL     1     -19.162  40.365  -9.378  0.00  0.00    +0.000 C 
ATOM      4  H   UNL     1     -20.828  39.728 -10.478  0.00  0.00    +0.000 HD
ENDROOT
BRANCH   3   7
ATOM      5  N   UNL     1     -22.236  41.367  -7.446  0.00  0.00    +0.000 NA
ATOM      6  N   UNL     1     -22.529  42.891  -5.637  0.00  0.00    +0.000 N 
ATOM      7  C   UNL     1     -20.031  41.045  -8.382  0.00  0.00    +0.000 A 
ATOM      8  C   UNL     1     -19.505  41.959  -7.478  0.00  0.00    +0.000 A 
ATOM      9  C   UNL     1     -21.391  40.785  -8.326  0.00  0.00    +0.000 A 
ATOM     10  C   UNL     1     -20.342  42.579  -6.557  0.00  0.00    +0.000 A 
ATOM     11  C   UNL     1     -21.688  42.251  -6.582  0.00  0.00    +0.000 A 
ATOM     12  H   UNL     1     -22.126  43.190  -4.759  0.00  0.00    +0.000 HD
ATOM     13  H   UNL     1     -23.511  42.643  -5.656  0.00  0.00    +0.000 HD
ENDBRANCH   3   7
BRANCH   2  14
ATOM     14  C   UNL     1     -19.114  39.025 -11.466  0.00  0.00    +0.000 C 
BRANCH  14  15
ATOM     15  C   UNL     1     -18.820  39.921 -12.660  0.00  0.00    +0.000 C 
BRANCH  15  16
ATOM     16  N   UNL     1     -19.906  40.873 -12.859  0.00  0.00    +0.000 NA
ATOM     17  H   UNL     1     -20.452  40.958 -12.002  0.00  0.00    +0.000 HD
BRANCH  16  18
ATOM     18  C   UNL     1     -19.389  42.178 -13.248  0.00  0.00    +0.000 C 
ATOM     19  C   UNL     1     -18.337  42.666 -12.266  0.00  0.00    +0.000 C 
ENDBRANCH  16  18
ENDBRANCH  15  16
ENDBRANCH  14  15
ENDBRANCH   2  14
TORSDOF 5
ENDMDL
MODEL 2
REMARK VINA RESULT:    -6.351      1.917      2.241
REMARK INTER + INTRA:          -8.689
REMARK INTER:                  -8.219
REMARK INTRA:                  -0.470
REMARK UNBOUND:                -0.481
REMARK  Name = 58772608
REMARK  6 active torsions:
REMARK  status: ('A' for Active; 'I' for Inactive)
REMARK    1  A    between atoms: N_2  and  C_6
REMARK    2  A    between atoms: N_2  and  C_8
REMARK    3  A    between atoms: N_3  and  C_7
REMARK    4  A    between atoms: C_6  and  C_7
REMARK    5  A    between atoms: C_8  and  C_11
REMARK    6  A    between atoms: C_9  and  C_10
REMARK                            x       y       z     vdW  Elec       q    Type
REMARK                         _______ _______ _______ _____ _____    ______ ____
ROOT
ATOM      1  O   UNL     1     -19.547  39.211 -11.027  0.00  0.00    +0.000 OA
ATOM      2  N   UNL     1     -17.507  40.263 -10.689  0.00  0.00    +0.000 N 
ATOM      3  C   UNL     1     -18.833  39.977 -10.385  0.00  0.00    +0.000 C 
ATOM      4  H   UNL     1     -16.994  40.954 -10.153  0.00  0.00    +0.000 HD
ENDROOT
BRANCH   3   7
ATOM      5  N   UNL     1     -19.081  42.222  -7.370  0.00  0.00    +0.000 NA
ATOM      6  N   UNL     1     -20.905  42.706  -5.916  0.00  0.00    +0.000 N 
ATOM      7  C   UNL     1     -19.402  40.686  -9.209  0.00  0.00    +0.000 A 
ATOM      8  C   UNL     1     -20.729  40.507  -8.838  0.00  0.00    +0.000 A 
ATOM      9  C   UNL     1     -18.626  41.547  -8.450  0.00  0.00    +0.000 A 
ATOM     10  C   UNL     1     -21.234  41.184  -7.733  0.00  0.00    +0.000 A 
ATOM     11  C   UNL     1     -20.376  42.022  -7.039  0.00  0.00    +0.000 A 
ATOM     12  H   UNL     1     -21.895  42.917  -5.903  0.00  0.00    +0.000 HD
ATOM     13  H   UNL     1     -20.276  43.322  -5.417  0.00  0.00    +0.000 HD
ENDBRANCH   3   7
BRANCH   2  14
ATOM     14  C   UNL     1     -16.823  39.676 -11.809  0.00  0.00    +0.000 C 
BRANCH  14  15
ATOM     15  C   UNL     1     -16.972  40.535 -13.056  0.00  0.00    +0.000 C 
BRANCH  15  16
ATOM     16  N   UNL     1     -16.587  41.912 -12.771  0.00  0.00    +0.000 NA
ATOM     17  H   UNL     1     -15.624  42.070 -13.066  0.00  0.00    +0.000 HD
BRANCH  16  18
ATOM     18  C   UNL     1     -17.472  42.849 -13.448  0.00  0.00    +0.000 C 
ATOM     19  C   UNL     1     -18.898  42.725 -12.937  0.00  0.00    +0.000 C 
ENDBRANCH  16  18
ENDBRANCH  15  16
ENDBRANCH  14  15
ENDBRANCH   2  14
TORSDOF 5
ENDMDL
MODEL 3
REMARK VINA RESULT:    -5.617      1.559      5.933
REMARK INTER + INTRA:          -7.740
REMARK INTER:                  -7.510
REMARK INTRA:                  -0.230
REMARK UNBOUND:                -0.481
REMARK  Name = 58772608
REMARK  6 active torsions:
REMARK  status: ('A' for Active; 'I' for Inactive)
REMARK    1  A    between atoms: N_2  and  C_6
REMARK    2  A    between atoms: N_2  and  C_8
REMARK    3  A    between atoms: N_3  and  C_7
REMARK    4  A    between atoms: C_6  and  C_7
REMARK    5  A    between atoms: C_8  and  C_11
REMARK    6  A    between atoms: C_9  and  C_10
REMARK                            x       y       z     vdW  Elec       q    Type
REMARK                         _______ _______ _______ _____ _____    ______ ____
ROOT
ATOM      1  O   UNL     1     -17.110  40.541 -10.353  0.00  0.00    +0.000 OA
ATOM      2  N   UNL     1     -19.169  41.277  -9.577  0.00  0.00    +0.000 N 
ATOM      3  C   UNL     1     -18.166  41.142 -10.531  0.00  0.00    +0.000 C 
ATOM      4  H   UNL     1     -19.989  41.841  -9.771  0.00  0.00    +0.000 HD
ENDROOT
BRANCH   3   7
ATOM      5  N   UNL     1     -19.718  41.950 -13.867  0.00  0.00    +0.000 NA
ATOM      6  N   UNL     1     -19.173  43.600 -15.496  0.00  0.00    +0.000 N 
ATOM      7  C   UNL     1     -18.413  41.806 -11.838  0.00  0.00    +0.000 A 
ATOM      8  C   UNL     1     -17.619  42.864 -12.264  0.00  0.00    +0.000 A 
ATOM      9  C   UNL     1     -19.440  41.390 -12.668  0.00  0.00    +0.000 A 
ATOM     10  C   UNL     1     -17.874  43.467 -13.491  0.00  0.00    +0.000 A 
ATOM     11  C   UNL     1     -18.926  42.976 -14.248  0.00  0.00    +0.000 A 
ATOM     12  H   UNL     1     -18.917  44.573 -15.608  0.00  0.00    +0.000 HD
ATOM     13  H   UNL     1     -19.947  43.242 -16.043  0.00  0.00    +0.000 HD
ENDBRANCH   3   7
BRANCH   2  14
ATOM     14  C   UNL     1     -19.067  40.714  -8.259  0.00  0.00    +0.000 C 
BRANCH  14  15
ATOM     15  C   UNL     1     -20.032  41.389  -7.296  0.00  0.00    +0.000 C 
BRANCH  15  16
ATOM     16  N   UNL     1     -21.362  41.473  -7.887  0.00  0.00    +0.000 NA
ATOM     17  H   UNL     1     -21.664  40.548  -8.191  0.00  0.00    +0.000 HD
BRANCH  16  18
ATOM     18  C   UNL     1     -22.320  42.019  -6.935  0.00  0.00    +0.000 C 
ATOM     19  C   UNL     1     -21.620  42.538  -5.689  0.00  0.00    +0.000 C 
ENDBRANCH  16  18
ENDBRANCH  15  16
ENDBRANCH  14  15
ENDBRANCH   2  14
TORSDOF 5
ENDMDL
MODEL 4
REMARK VINA RESULT:    -5.478      2.319      6.050
REMARK INTER + INTRA:          -7.560
REMARK INTER:                  -7.262
REMARK INTRA:                  -0.298
REMARK UNBOUND:                -0.481
REMARK  Name = 58772608
REMARK  6 active torsions:
REMARK  status: ('A' for Active; 'I' for Inactive)
REMARK    1  A    between atoms: N_2  and  C_6
REMARK    2  A    between atoms: N_2  and  C_8
REMARK    3  A    between atoms: N_3  and  C_7
REMARK    4  A    between atoms: C_6  and  C_7
REMARK    5  A    between atoms: C_8  and  C_11
REMARK    6  A    between atoms: C_9  and  C_10
REMARK                            x       y       z     vdW  Elec       q    Type
REMARK                         _______ _______ _______ _____ _____    ______ ____
ROOT
ATOM      1  O   UNL     1     -19.080  40.179 -10.694  0.00  0.00    +0.000 OA
ATOM      2  N   UNL     1     -18.372  41.459  -8.893  0.00  0.00    +0.000 N 
ATOM      3  C   UNL     1     -18.461  41.139 -10.243  0.00  0.00    +0.000 C 
ATOM      4  H   UNL     1     -17.791  42.231  -8.585  0.00  0.00    +0.000 HD
ENDROOT
BRANCH   3   7
ATOM      5  N   UNL     1     -16.786  42.396 -13.375  0.00  0.00    +0.000 NA
ATOM      6  N   UNL     1     -15.668  44.447 -13.845  0.00  0.00    +0.000 N 
ATOM      7  C   UNL     1     -17.721  42.029 -11.176  0.00  0.00    +0.000 A 
ATOM      8  C   UNL     1     -17.279  43.283 -10.770  0.00  0.00    +0.000 A 
ATOM      9  C   UNL     1     -17.452  41.636 -12.477  0.00  0.00    +0.000 A 
ATOM     10  C   UNL     1     -16.590  44.095 -11.666  0.00  0.00    +0.000 A 
ATOM     11  C   UNL     1     -16.371  43.609 -12.945  0.00  0.00    +0.000 A 
ATOM     12  H   UNL     1     -15.729  45.449 -13.718  0.00  0.00    +0.000 HD
ATOM     13  H   UNL     1     -15.516  44.090 -14.780  0.00  0.00    +0.000 HD
ENDBRANCH   3   7
BRANCH   2  14
ATOM     14  C   UNL     1     -19.011  40.680  -7.868  0.00  0.00    +0.000 C 
BRANCH  14  15
ATOM     15  C   UNL     1     -20.182  41.432  -7.255  0.00  0.00    +0.000 C 
BRANCH  15  16
ATOM     16  N   UNL     1     -21.415  41.114  -7.964  0.00  0.00    +0.000 NA
ATOM     17  H   UNL     1     -21.434  40.122  -8.198  0.00  0.00    +0.000 HD
BRANCH  16  18
ATOM     18  C   UNL     1     -22.580  41.454  -7.158  0.00  0.00    +0.000 C 
ATOM     19  C   UNL     1     -22.274  42.600  -6.207  0.00  0.00    +0.000 C 
ENDBRANCH  16  18
ENDBRANCH  15  16
ENDBRANCH  14  15
ENDBRANCH   2  14
TORSDOF 5
ENDMDL
MODEL 5
REMARK VINA RESULT:    -5.156      3.749      5.622
REMARK INTER + INTRA:          -7.145
REMARK INTER:                  -6.866
REMARK INTRA:                  -0.278
REMARK UNBOUND:                -0.481
REMARK  Name = 58772608
REMARK  6 active torsions:
REMARK  status: ('A' for Active; 'I' for Inactive)
REMARK    1  A    between atoms: N_2  and  C_6
REMARK    2  A    between atoms: N_2  and  C_8
REMARK    3  A    between atoms: N_3  and  C_7
REMARK    4  A    between atoms: C_6  and  C_7
REMARK    5  A    between atoms: C_8  and  C_11
REMARK    6  A    between atoms: C_9  and  C_10
REMARK                            x       y       z     vdW  Elec       q    Type
REMARK                         _______ _______ _______ _____ _____    ______ ____
ROOT
ATOM      1  O   UNL     1     -18.678  44.777 -14.041  0.00  0.00    +0.000 OA
ATOM      2  N   UNL     1     -19.398  42.810 -15.038  0.00  0.00    +0.000 N 
ATOM      3  C   UNL     1     -18.903  43.571 -13.985  0.00  0.00    +0.000 C 
ATOM      4  H   UNL     1     -19.501  41.805 -14.942  0.00  0.00    +0.000 HD
ENDROOT
BRANCH   3   7
ATOM      5  N   UNL     1     -18.998  40.899 -11.331  0.00  0.00    +0.000 NA
ATOM      6  N   UNL     1     -17.865  40.716  -9.243  0.00  0.00    +0.000 N 
ATOM      7  C   UNL     1     -18.614  42.835 -12.726  0.00  0.00    +0.000 A 
ATOM      8  C   UNL     1     -17.729  43.347 -11.785  0.00  0.00    +0.000 A 
ATOM      9  C   UNL     1     -19.218  41.618 -12.454  0.00  0.00    +0.000 A 
ATOM     10  C   UNL     1     -17.477  42.636 -10.616  0.00  0.00    +0.000 A 
ATOM     11  C   UNL     1     -18.132  41.428 -10.438  0.00  0.00    +0.000 A 
ATOM     12  H   UNL     1     -16.965  40.842  -8.797  0.00  0.00    +0.000 HD
ATOM     13  H   UNL     1     -18.341  39.831  -9.121  0.00  0.00    +0.000 HD
ENDBRANCH   3   7
BRANCH   2  14
ATOM     14  C   UNL     1     -19.703  43.372 -16.325  0.00  0.00    +0.000 C 
BRANCH  14  15
ATOM     15  C   UNL     1     -21.124  43.036 -16.750  0.00  0.00    +0.000 C 
BRANCH  15  16
ATOM     16  N   UNL     1     -22.083  43.795 -15.958  0.00  0.00    +0.000 NA
ATOM     17  H   UNL     1     -21.588  44.439 -15.340  0.00  0.00    +0.000 HD
BRANCH  16  18
ATOM     18  C   UNL     1     -22.995  44.538 -16.817  0.00  0.00    +0.000 C 
ATOM     19  C   UNL     1     -22.391  45.868 -17.239  0.00  0.00    +0.000 C 
ENDBRANCH  16  18
ENDBRANCH  15  16
ENDBRANCH  14  15
ENDBRANCH   2  14
TORSDOF 5
ENDMDL
