MODEL 1
REMARK VINA RESULT:    -6.623      0.000      0.000
REMARK INTER + INTRA:          -8.120
REMARK INTER:                  -7.978
REMARK INTRA:                  -0.142
REMARK UNBOUND:                -0.142
REMARK  Name = 58772618
REMARK  4 active torsions:
REMARK  status: ('A' for Active; 'I' for Inactive)
REMARK    1  A    between atoms: N_2  and  C_6
REMARK    2  A    between atoms: N_3  and  C_7
REMARK    3  A    between atoms: C_6  and  C_7
REMARK    4  A    between atoms: C_8  and  C_9
REMARK                            x       y       z     vdW  Elec       q    Type
REMARK                         _______ _______ _______ _____ _____    ______ ____
ROOT
ATOM      1  N   UNL     1     -19.557  42.334  -6.971  0.00  0.00    +0.000 NA
ATOM      2  N   UNL     1     -21.602  42.707  -5.807  0.00  0.00    +0.000 N 
ATOM      3  C   UNL     1     -19.523  40.825  -8.860  0.00  0.00    +0.000 A 
ATOM      4  C   UNL     1     -20.882  40.579  -8.698  0.00  0.00    +0.000 A 
ATOM      5  C   UNL     1     -18.912  41.702  -7.979  0.00  0.00    +0.000 A 
ATOM      6  C   UNL     1     -21.579  41.211  -7.675  0.00  0.00    +0.000 A 
ATOM      7  C   UNL     1     -20.877  42.071  -6.845  0.00  0.00    +0.000 A 
ATOM      8  H   UNL     1     -22.592  42.874  -5.943  0.00  0.00    +0.000 HD
ATOM      9  H   UNL     1     -21.086  43.339  -5.208  0.00  0.00    +0.000 HD
ENDROOT
BRANCH   3  12
ATOM     10  O   UNL     1     -19.298  39.322 -10.646  0.00  0.00    +0.000 OA
ATOM     11  N   UNL     1     -17.432  40.585 -10.097  0.00  0.00    +0.000 N 
ATOM     12  C   UNL     1     -18.749  40.166  -9.944  0.00  0.00    +0.000 C 
ATOM     13  H   UNL     1     -17.060  41.332  -9.521  0.00  0.00    +0.000 HD
BRANCH  11  14
ATOM     14  C   UNL     1     -16.565  40.060 -11.116  0.00  0.00    +0.000 C 
BRANCH  14  15
ATOM     15  C   UNL     1     -16.849  40.703 -12.466  0.00  0.00    +0.000 C 
BRANCH  15  16
ATOM     16  N   UNL     1     -16.765  39.707 -13.528  0.00  0.00    +0.000 NA
ATOM     17  H   UNL     1     -17.439  38.962 -13.353  0.00  0.00    +0.000 HD
ATOM     18  H   UNL     1     -15.845  39.271 -13.510  0.00  0.00    +0.000 HD
ENDBRANCH  15  16
ENDBRANCH  14  15
ENDBRANCH  11  14
ENDBRANCH   3  12
TORSDOF 4
ENDMDL
MODEL 2
REMARK VINA RESULT:    -6.388      1.508      5.835
REMARK INTER + INTRA:          -7.837
REMARK INTER:                  -7.698
REMARK INTRA:                  -0.139
REMARK UNBOUND:                -0.142
REMARK  Name = 58772618
REMARK  4 active torsions:
REMARK  status: ('A' for Active; 'I' for Inactive)
REMARK    1  A    between atoms: N_2  and  C_6
REMARK    2  A    between atoms: N_3  and  C_7
REMARK    3  A    between atoms: C_6  and  C_7
REMARK    4  A    between atoms: C_8  and  C_9
REMARK                            x       y       z     vdW  Elec       q    Type
REMARK                         _______ _______ _______ _____ _____    ______ ____
ROOT
ATOM      1  N   UNL     1     -18.789  39.356 -11.649  0.00  0.00    +0.000 NA
ATOM      2  N   UNL     1     -16.758  39.906 -12.765  0.00  0.00    +0.000 N 
ATOM      3  C   UNL     1     -19.375  40.513  -9.609  0.00  0.00    +0.000 A 
ATOM      4  C   UNL     1     -18.206  41.261  -9.687  0.00  0.00    +0.000 A 
ATOM      5  C   UNL     1     -19.619  39.582 -10.605  0.00  0.00    +0.000 A 
ATOM      6  C   UNL     1     -17.328  41.057 -10.747  0.00  0.00    +0.000 A 
ATOM      7  C   UNL     1     -17.663  40.101 -11.693  0.00  0.00    +0.000 A 
ATOM      8  H   UNL     1     -16.179  40.685 -13.056  0.00  0.00    +0.000 HD
ATOM      9  H   UNL     1     -17.009  39.211 -13.457  0.00  0.00    +0.000 HD
ENDROOT
BRANCH   3  12
ATOM     10  O   UNL     1     -21.353  40.024  -8.448  0.00  0.00    +0.000 OA
ATOM     11  N   UNL     1     -19.981  41.658  -7.539  0.00  0.00    +0.000 N 
ATOM     12  C   UNL     1     -20.334  40.707  -8.490  0.00  0.00    +0.000 C 
ATOM     13  H   UNL     1     -19.093  42.143  -7.604  0.00  0.00    +0.000 HD
BRANCH  11  14
ATOM     14  C   UNL     1     -20.792  41.941  -6.387  0.00  0.00    +0.000 C 
BRANCH  14  15
ATOM     15  C   UNL     1     -21.905  42.923  -6.724  0.00  0.00    +0.000 C 
BRANCH  15  16
ATOM     16  N   UNL     1     -22.961  42.855  -5.721  0.00  0.00    +0.000 NA
ATOM     17  H   UNL     1     -23.362  43.782  -5.583  0.00  0.00    +0.000 HD
ATOM     18  H   UNL     1     -22.559  42.581  -4.826  0.00  0.00    +0.000 HD
ENDBRANCH  15  16
ENDBRANCH  14  15
ENDBRANCH  11  14
ENDBRANCH   3  12
TORSDOF 4
ENDMDL
MODEL 3
REMARK VINA RESULT:    -5.531      2.488      5.694
REMARK INTER + INTRA:          -6.804
REMARK INTER:                  -6.665
REMARK INTRA:                  -0.139
REMARK UNBOUND:                -0.142
REMARK  Name = 58772618
REMARK  4 active torsions:
REMARK  status: ('A' for Active; 'I' for Inactive)
REMARK    1  A    between atoms: N_2  and  C_6
REMARK    2  A    between atoms: N_3  and  C_7
REMARK    3  A    between atoms: C_6  and  C_7
REMARK    4  A    between atoms: C_8  and  C_9
REMARK                            x       y       z     vdW  Elec       q    Type
REMARK                         _______ _______ _______ _____ _____    ______ ____
ROOT
ATOM      1  N   UNL     1     -19.462  42.038 -13.899  0.00  0.00    +0.000 NA
ATOM      2  N   UNL     1     -18.499  43.931 -14.978  0.00  0.00    +0.000 N 
ATOM      3  C   UNL     1     -18.849  41.531 -11.616  0.00  0.00    +0.000 A 
ATOM      4  C   UNL     1     -18.002  42.633 -11.591  0.00  0.00    +0.000 A 
ATOM      5  C   UNL     1     -19.551  41.278 -12.783  0.00  0.00    +0.000 A 
ATOM      6  C   UNL     1     -17.885  43.438 -12.718  0.00  0.00    +0.000 A 
ATOM      7  C   UNL     1     -18.630  43.100 -13.837  0.00  0.00    +0.000 A 
ATOM      8  H   UNL     1     -18.257  44.904 -14.840  0.00  0.00    +0.000 HD
ATOM      9  H   UNL     1     -19.050  43.684 -15.791  0.00  0.00    +0.000 HD
ENDROOT
BRANCH   3  12
ATOM     10  O   UNL     1     -18.979  39.433 -10.577  0.00  0.00    +0.000 OA
ATOM     11  N   UNL     1     -19.127  41.294  -9.202  0.00  0.00    +0.000 N 
ATOM     12  C   UNL     1     -18.997  40.651 -10.428  0.00  0.00    +0.000 C 
ATOM     13  H   UNL     1     -19.072  42.306  -9.145  0.00  0.00    +0.000 HD
BRANCH  11  14
ATOM     14  C   UNL     1     -19.253  40.581  -7.961  0.00  0.00    +0.000 C 
BRANCH  14  15
ATOM     15  C   UNL     1     -20.105  41.354  -6.965  0.00  0.00    +0.000 C 
BRANCH  15  16
ATOM     16  N   UNL     1     -19.565  42.694  -6.771  0.00  0.00    +0.000 NA
ATOM     17  H   UNL     1     -19.119  42.755  -5.857  0.00  0.00    +0.000 HD
ATOM     18  H   UNL     1     -20.330  43.368  -6.762  0.00  0.00    +0.000 HD
ENDBRANCH  15  16
ENDBRANCH  14  15
ENDBRANCH  11  14
ENDBRANCH   3  12
TORSDOF 4
ENDMDL
MODEL 4
REMARK VINA RESULT:    -5.329      4.040      5.445
REMARK INTER + INTRA:          -6.561
REMARK INTER:                  -6.420
REMARK INTRA:                  -0.141
REMARK UNBOUND:                -0.142
REMARK  Name = 58772618
REMARK  4 active torsions:
REMARK  status: ('A' for Active; 'I' for Inactive)
REMARK    1  A    between atoms: N_2  and  C_6
REMARK    2  A    between atoms: N_3  and  C_7
REMARK    3  A    between atoms: C_6  and  C_7
REMARK    4  A    between atoms: C_8  and  C_9
REMARK                            x       y       z     vdW  Elec       q    Type
REMARK                         _______ _______ _______ _____ _____    ______ ____
ROOT
ATOM      1  N   UNL     1     -18.804  40.639 -11.378  0.00  0.00    +0.000 NA
ATOM      2  N   UNL     1     -17.908  40.428  -9.181  0.00  0.00    +0.000 N 
ATOM      3  C   UNL     1     -18.477  42.699 -12.602  0.00  0.00    +0.000 A 
ATOM      4  C   UNL     1     -17.770  43.233 -11.530  0.00  0.00    +0.000 A 
ATOM      5  C   UNL     1     -18.969  41.410 -12.478  0.00  0.00    +0.000 A 
ATOM      6  C   UNL     1     -17.579  42.470 -10.383  0.00  0.00    +0.000 A 
ATOM      7  C   UNL     1     -18.112  41.191 -10.357  0.00  0.00    +0.000 A 
ATOM      8  H   UNL     1     -17.086  40.615  -8.620  0.00  0.00    +0.000 HD
ATOM      9  H   UNL     1     -18.294  39.492  -9.169  0.00  0.00    +0.000 HD
ENDROOT
BRANCH   3  12
ATOM     10  O   UNL     1     -18.270  44.636 -13.907  0.00  0.00    +0.000 OA
ATOM     11  N   UNL     1     -19.372  42.835 -14.869  0.00  0.00    +0.000 N 
ATOM     12  C   UNL     1     -18.698  43.487 -13.842  0.00  0.00    +0.000 C 
ATOM     13  H   UNL     1     -19.643  41.863 -14.770  0.00  0.00    +0.000 HD
BRANCH  11  14
ATOM     14  C   UNL     1     -19.639  43.456 -16.138  0.00  0.00    +0.000 C 
BRANCH  14  15
ATOM     15  C   UNL     1     -20.987  43.019 -16.692  0.00  0.00    +0.000 C 
BRANCH  15  16
ATOM     16  N   UNL     1     -20.808  41.966 -17.685  0.00  0.00    +0.000 NA
ATOM     17  H   UNL     1     -21.708  41.535 -17.893  0.00  0.00    +0.000 HD
ATOM     18  H   UNL     1     -20.221  41.231 -17.295  0.00  0.00    +0.000 HD
ENDBRANCH  15  16
ENDBRANCH  14  15
ENDBRANCH  11  14
ENDBRANCH   3  12
TORSDOF 4
ENDMDL
MODEL 5
REMARK VINA RESULT:    -4.698      5.881      8.193
REMARK INTER + INTRA:          -5.802
REMARK INTER:                  -5.660
REMARK INTRA:                  -0.141
REMARK UNBOUND:                -0.142
REMARK  Name = 58772618
REMARK  4 active torsions:
REMARK  status: ('A' for Active; 'I' for Inactive)
REMARK    1  A    between atoms: N_2  and  C_6
REMARK    2  A    between atoms: N_3  and  C_7
REMARK    3  A    between atoms: C_6  and  C_7
REMARK    4  A    between atoms: C_8  and  C_9
REMARK                            x       y       z     vdW  Elec       q    Type
REMARK                         _______ _______ _______ _____ _____    ______ ____
ROOT
ATOM      1  N   UNL     1     -19.854  45.225 -17.728  0.00  0.00    +0.000 NA
ATOM      2  N   UNL     1     -21.384  44.798 -19.503  0.00  0.00    +0.000 N 
ATOM      3  C   UNL     1     -19.844  43.777 -15.793  0.00  0.00    +0.000 A 
ATOM      4  C   UNL     1     -20.867  43.016 -16.347  0.00  0.00    +0.000 A 
ATOM      5  C   UNL     1     -19.376  44.862 -16.516  0.00  0.00    +0.000 A 
ATOM      6  C   UNL     1     -21.383  43.358 -17.591  0.00  0.00    +0.000 A 
ATOM      7  C   UNL     1     -20.847  44.462 -18.236  0.00  0.00    +0.000 A 
ATOM      8  H   UNL     1     -21.780  44.058 -20.070  0.00  0.00    +0.000 HD
ATOM      9  H   UNL     1     -20.986  45.601 -19.973  0.00  0.00    +0.000 HD
ENDROOT
BRANCH   3  12
ATOM     10  O   UNL     1     -18.641  44.292 -13.847  0.00  0.00    +0.000 OA
ATOM     11  N   UNL     1     -19.517  42.150 -14.002  0.00  0.00    +0.000 N 
ATOM     12  C   UNL     1     -19.270  43.438 -14.464  0.00  0.00    +0.000 C 
ATOM     13  H   UNL     1     -20.098  41.514 -14.538  0.00  0.00    +0.000 HD
BRANCH  11  14
ATOM     14  C   UNL     1     -19.050  41.681 -12.726  0.00  0.00    +0.000 C 
BRANCH  14  15
ATOM     15  C   UNL     1     -18.602  40.228 -12.804  0.00  0.00    +0.000 C 
BRANCH  15  16
ATOM     16  N   UNL     1     -19.716  39.338 -12.498  0.00  0.00    +0.000 NA
ATOM     17  H   UNL     1     -20.369  39.809 -11.873  0.00  0.00    +0.000 HD
ATOM     18  H   UNL     1     -19.369  38.526 -11.991  0.00  0.00    +0.000 HD
ENDBRANCH  15  16
ENDBRANCH  14  15
ENDBRANCH  11  14
ENDBRANCH   3  12
TORSDOF 4
ENDMDL
