MODEL 1
REMARK VINA RESULT:    -7.658      0.000      0.000
REMARK INTER + INTRA:          -9.898
REMARK INTER:                  -9.449
REMARK INTRA:                  -0.449
REMARK UNBOUND:                -0.449
REMARK  Name = 58772630
REMARK  4 active torsions:
REMARK  status: ('A' for Active; 'I' for Inactive)
REMARK    1  A    between atoms: N_2  and  C_11
REMARK    2  A    between atoms: N_4  and  C_12
REMARK    3  A    between atoms: C_11  and  C_12
REMARK    4  A    between atoms: C_13  and  C_14
REMARK                            x       y       z     vdW  Elec       q    Type
REMARK                         _______ _______ _______ _____ _____    ______ ____
ROOT
ATOM      1  O   UNL     1     -17.939  40.415  -9.118  0.00  0.00    +0.000 OA
ATOM      2  N   UNL     1     -19.792  39.886 -10.410  0.00  0.00    +0.000 N 
ATOM      3  C   UNL     1     -19.153  40.445  -9.311  0.00  0.00    +0.000 C 
ATOM      4  H   UNL     1     -20.805  39.893 -10.475  0.00  0.00    +0.000 HD
ENDROOT
BRANCH   3   7
ATOM      5  N   UNL     1     -22.251  41.436  -7.413  0.00  0.00    +0.000 NA
ATOM      6  N   UNL     1     -22.554  42.874  -5.538  0.00  0.00    +0.000 N 
ATOM      7  C   UNL     1     -20.029  41.097  -8.305  0.00  0.00    +0.000 A 
ATOM      8  C   UNL     1     -19.504  41.950  -7.341  0.00  0.00    +0.000 A 
ATOM      9  C   UNL     1     -21.398  40.876  -8.299  0.00  0.00    +0.000 A 
ATOM     10  C   UNL     1     -20.351  42.546  -6.413  0.00  0.00    +0.000 A 
ATOM     11  C   UNL     1     -21.704  42.259  -6.491  0.00  0.00    +0.000 A 
ATOM     12  H   UNL     1     -22.168  43.116  -4.633  0.00  0.00    +0.000 HD
ATOM     13  H   UNL     1     -23.541  42.656  -5.594  0.00  0.00    +0.000 HD
ENDBRANCH   3   7
BRANCH   2  14
ATOM     14  C   UNL     1     -19.083  39.199 -11.455  0.00  0.00    +0.000 C 
BRANCH  14  15
ATOM     15  C   UNL     1     -19.167  39.960 -12.770  0.00  0.00    +0.000 C 
BRANCH  15  16
ATOM     16  N   UNL     1     -18.581  41.290 -12.625  0.00  0.00    +0.000 NA
ATOM     17  N   UNL     1     -17.133  43.600 -13.609  0.00  0.00    +0.000 NA
ATOM     18  C   UNL     1     -17.127  41.246 -12.829  0.00  0.00    +0.000 C 
ATOM     19  C   UNL     1     -19.205  42.241 -13.553  0.00  0.00    +0.000 C 
ATOM     20  C   UNL     1     -16.518  42.644 -12.686  0.00  0.00    +0.000 C 
ATOM     21  C   UNL     1     -18.583  43.631 -13.406  0.00  0.00    +0.000 C 
ATOM     22  H   UNL     1     -16.746  44.529 -13.445  0.00  0.00    +0.000 HD
ENDBRANCH  15  16
ENDBRANCH  14  15
ENDBRANCH   2  14
TORSDOF 4
ENDMDL
MODEL 2
REMARK VINA RESULT:    -7.256      1.533      2.033
REMARK INTER + INTRA:          -9.402
REMARK INTER:                  -9.094
REMARK INTRA:                  -0.308
REMARK UNBOUND:                -0.449
REMARK  Name = 58772630
REMARK  4 active torsions:
REMARK  status: ('A' for Active; 'I' for Inactive)
REMARK    1  A    between atoms: N_2  and  C_11
REMARK    2  A    between atoms: N_4  and  C_12
REMARK    3  A    between atoms: C_11  and  C_12
REMARK    4  A    between atoms: C_13  and  C_14
REMARK                            x       y       z     vdW  Elec       q    Type
REMARK                         _______ _______ _______ _____ _____    ______ ____
ROOT
ATOM      1  O   UNL     1     -19.374  39.146 -10.866  0.00  0.00    +0.000 OA
ATOM      2  N   UNL     1     -17.476  40.453 -10.598  0.00  0.00    +0.000 N 
ATOM      3  C   UNL     1     -18.758  40.028 -10.273  0.00  0.00    +0.000 C 
ATOM      4  H   UNL     1     -17.051  41.230 -10.105  0.00  0.00    +0.000 HD
ENDROOT
BRANCH   3   7
ATOM      5  N   UNL     1     -19.247  42.318  -7.322  0.00  0.00    +0.000 NA
ATOM      6  N   UNL     1     -21.150  42.729  -5.949  0.00  0.00    +0.000 N 
ATOM      7  C   UNL     1     -19.411  40.728  -9.137  0.00  0.00    +0.000 A 
ATOM      8  C   UNL     1     -20.740  40.483  -8.812  0.00  0.00    +0.000 A 
ATOM      9  C   UNL     1     -18.714  41.646  -8.368  0.00  0.00    +0.000 A 
ATOM     10  C   UNL     1     -21.323  41.154  -7.743  0.00  0.00    +0.000 A 
ATOM     11  C   UNL     1     -20.541  42.054  -7.036  0.00  0.00    +0.000 A 
ATOM     12  H   UNL     1     -22.150  42.886  -5.979  0.00  0.00    +0.000 HD
ATOM     13  H   UNL     1     -20.576  43.390  -5.440  0.00  0.00    +0.000 HD
ENDBRANCH   3   7
BRANCH   2  14
ATOM     14  C   UNL     1     -16.724  39.890 -11.687  0.00  0.00    +0.000 C 
BRANCH  14  15
ATOM     15  C   UNL     1     -16.796  40.777 -12.922  0.00  0.00    +0.000 C 
BRANCH  15  16
ATOM     16  N   UNL     1     -17.668  41.923 -12.674  0.00  0.00    +0.000 NA
ATOM     17  N   UNL     1     -18.857  44.469 -13.383  0.00  0.00    +0.000 NA
ATOM     18  C   UNL     1     -16.892  43.167 -12.613  0.00  0.00    +0.000 C 
ATOM     19  C   UNL     1     -18.714  42.015 -13.701  0.00  0.00    +0.000 C 
ATOM     20  C   UNL     1     -17.810  44.367 -12.364  0.00  0.00    +0.000 C 
ATOM     21  C   UNL     1     -19.620  43.220 -13.445  0.00  0.00    +0.000 C 
ATOM     22  H   UNL     1     -19.483  45.240 -13.153  0.00  0.00    +0.000 HD
ENDBRANCH  15  16
ENDBRANCH  14  15
ENDBRANCH   2  14
TORSDOF 4
ENDMDL
MODEL 3
REMARK VINA RESULT:    -6.479      4.748      8.089
REMARK INTER + INTRA:          -8.443
REMARK INTER:                  -8.171
REMARK INTRA:                  -0.272
REMARK UNBOUND:                -0.449
REMARK  Name = 58772630
REMARK  4 active torsions:
REMARK  status: ('A' for Active; 'I' for Inactive)
REMARK    1  A    between atoms: N_2  and  C_11
REMARK    2  A    between atoms: N_4  and  C_12
REMARK    3  A    between atoms: C_11  and  C_12
REMARK    4  A    between atoms: C_13  and  C_14
REMARK                            x       y       z     vdW  Elec       q    Type
REMARK                         _______ _______ _______ _____ _____    ______ ____
ROOT
ATOM      1  O   UNL     1     -20.153  42.279 -17.109  0.00  0.00    +0.000 OA
ATOM      2  N   UNL     1     -20.211  43.339 -15.046  0.00  0.00    +0.000 N 
ATOM      3  C   UNL     1     -20.566  43.178 -16.380  0.00  0.00    +0.000 C 
ATOM      4  H   UNL     1     -20.541  44.141 -14.519  0.00  0.00    +0.000 HD
ENDROOT
BRANCH   3   7
ATOM      5  N   UNL     1     -21.832  46.120 -18.361  0.00  0.00    +0.000 NA
ATOM      6  N   UNL     1     -24.008  47.073 -18.545  0.00  0.00    +0.000 N 
ATOM      7  C   UNL     1     -21.494  44.195 -16.938  0.00  0.00    +0.000 A 
ATOM      8  C   UNL     1     -22.841  44.202 -16.595  0.00  0.00    +0.000 A 
ATOM      9  C   UNL     1     -21.042  45.167 -17.816  0.00  0.00    +0.000 A 
ATOM     10  C   UNL     1     -23.684  45.167 -17.134  0.00  0.00    +0.000 A 
ATOM     11  C   UNL     1     -23.136  46.095 -18.004  0.00  0.00    +0.000 A 
ATOM     12  H   UNL     1     -24.987  46.838 -18.652  0.00  0.00    +0.000 HD
ATOM     13  H   UNL     1     -23.604  47.745 -19.186  0.00  0.00    +0.000 HD
ENDBRANCH   3   7
BRANCH   2  14
ATOM     14  C   UNL     1     -19.303  42.451 -14.371  0.00  0.00    +0.000 C 
BRANCH  14  15
ATOM     15  C   UNL     1     -18.825  43.049 -13.055  0.00  0.00    +0.000 C 
BRANCH  15  16
ATOM     16  N   UNL     1     -18.434  41.989 -12.129  0.00  0.00    +0.000 NA
ATOM     17  N   UNL     1     -17.989  39.217 -11.410  0.00  0.00    +0.000 NA
ATOM     18  C   UNL     1     -19.558  41.082 -11.867  0.00  0.00    +0.000 C 
ATOM     19  C   UNL     1     -17.278  41.245 -12.645  0.00  0.00    +0.000 C 
ATOM     20  C   UNL     1     -19.141  39.967 -10.904  0.00  0.00    +0.000 C 
ATOM     21  C   UNL     1     -16.875  40.130 -11.678  0.00  0.00    +0.000 C 
ATOM     22  H   UNL     1     -17.703  38.524 -10.719  0.00  0.00    +0.000 HD
ENDBRANCH  15  16
ENDBRANCH  14  15
ENDBRANCH   2  14
TORSDOF 4
ENDMDL
MODEL 4
REMARK VINA RESULT:    -6.276      3.679      7.946
REMARK INTER + INTRA:          -8.192
REMARK INTER:                  -7.742
REMARK INTRA:                  -0.450
REMARK UNBOUND:                -0.449
REMARK  Name = 58772630
REMARK  4 active torsions:
REMARK  status: ('A' for Active; 'I' for Inactive)
REMARK    1  A    between atoms: N_2  and  C_11
REMARK    2  A    between atoms: N_4  and  C_12
REMARK    3  A    between atoms: C_11  and  C_12
REMARK    4  A    between atoms: C_13  and  C_14
REMARK                            x       y       z     vdW  Elec       q    Type
REMARK                         _______ _______ _______ _____ _____    ______ ____
ROOT
ATOM      1  O   UNL     1     -20.314  42.424 -14.327  0.00  0.00    +0.000 OA
ATOM      2  N   UNL     1     -18.376  43.685 -14.506  0.00  0.00    +0.000 N 
ATOM      3  C   UNL     1     -19.589  43.187 -14.962  0.00  0.00    +0.000 C 
ATOM      4  H   UNL     1     -17.797  44.262 -15.107  0.00  0.00    +0.000 HD
ENDROOT
BRANCH   3   7
ATOM      5  N   UNL     1     -19.596  44.992 -18.267  0.00  0.00    +0.000 NA
ATOM      6  N   UNL     1     -21.063  44.840 -20.139  0.00  0.00    +0.000 N 
ATOM      7  C   UNL     1     -19.998  43.606 -16.327  0.00  0.00    +0.000 A 
ATOM      8  C   UNL     1     -21.112  43.050 -16.945  0.00  0.00    +0.000 A 
ATOM      9  C   UNL     1     -19.280  44.566 -17.024  0.00  0.00    +0.000 A 
ATOM     10  C   UNL     1     -21.469  43.464 -18.223  0.00  0.00    +0.000 A 
ATOM     11  C   UNL     1     -20.686  44.429 -18.836  0.00  0.00    +0.000 A 
ATOM     12  H   UNL     1     -21.557  44.180 -20.728  0.00  0.00    +0.000 HD
ATOM     13  H   UNL     1     -20.483  45.540 -20.585  0.00  0.00    +0.000 HD
ENDBRANCH   3   7
BRANCH   2  14
ATOM     14  C   UNL     1     -17.833  43.350 -13.216  0.00  0.00    +0.000 C 
BRANCH  14  15
ATOM     15  C   UNL     1     -17.123  42.004 -13.250  0.00  0.00    +0.000 C 
BRANCH  15  16
ATOM     16  N   UNL     1     -17.636  41.134 -12.195  0.00  0.00    +0.000 NA
ATOM     17  N   UNL     1     -19.765  39.956 -10.620  0.00  0.00    +0.000 NA
ATOM     18  C   UNL     1     -18.345  41.913 -11.172  0.00  0.00    +0.000 C 
ATOM     19  C   UNL     1     -18.511  40.095 -12.754  0.00  0.00    +0.000 C 
ATOM     20  C   UNL     1     -18.890  40.996 -10.074  0.00  0.00    +0.000 C 
ATOM     21  C   UNL     1     -19.054  39.190 -11.646  0.00  0.00    +0.000 C 
ATOM     22  H   UNL     1     -20.060  39.331  -9.871  0.00  0.00    +0.000 HD
ENDBRANCH  15  16
ENDBRANCH  14  15
ENDBRANCH   2  14
TORSDOF 4
ENDMDL
MODEL 5
REMARK VINA RESULT:    -6.086      3.651      4.971
REMARK INTER + INTRA:          -7.959
REMARK INTER:                  -7.720
REMARK INTRA:                  -0.239
REMARK UNBOUND:                -0.449
REMARK  Name = 58772630
REMARK  4 active torsions:
REMARK  status: ('A' for Active; 'I' for Inactive)
REMARK    1  A    between atoms: N_2  and  C_11
REMARK    2  A    between atoms: N_4  and  C_12
REMARK    3  A    between atoms: C_11  and  C_12
REMARK    4  A    between atoms: C_13  and  C_14
REMARK                            x       y       z     vdW  Elec       q    Type
REMARK                         _______ _______ _______ _____ _____    ______ ____
ROOT
ATOM      1  O   UNL     1     -17.351  41.697 -13.538  0.00  0.00    +0.000 OA
ATOM      2  N   UNL     1     -19.135  43.161 -13.294  0.00  0.00    +0.000 N 
ATOM      3  C   UNL     1     -18.266  42.166 -12.864  0.00  0.00    +0.000 C 
ATOM      4  H   UNL     1     -19.908  43.457 -12.709  0.00  0.00    +0.000 HD
ENDROOT
BRANCH   3   7
ATOM      5  N   UNL     1     -19.458  39.922 -10.084  0.00  0.00    +0.000 NA
ATOM      6  N   UNL     1     -19.214  40.082  -7.719  0.00  0.00    +0.000 N 
ATOM      7  C   UNL     1     -18.503  41.636 -11.497  0.00  0.00    +0.000 A 
ATOM      8  C   UNL     1     -18.027  42.305 -10.375  0.00  0.00    +0.000 A 
ATOM      9  C   UNL     1     -19.208  40.459 -11.299  0.00  0.00    +0.000 A 
ATOM     10  C   UNL     1     -18.265  41.784  -9.109  0.00  0.00    +0.000 A 
ATOM     11  C   UNL     1     -18.979  40.600  -9.018  0.00  0.00    +0.000 A 
ATOM     12  H   UNL     1     -18.547  40.296  -6.988  0.00  0.00    +0.000 HD
ATOM     13  H   UNL     1     -19.731  39.214  -7.658  0.00  0.00    +0.000 HD
ENDBRANCH   3   7
BRANCH   2  14
ATOM     14  C   UNL     1     -19.049  43.755 -14.601  0.00  0.00    +0.000 C 
BRANCH  14  15
ATOM     15  C   UNL     1     -19.913  43.006 -15.605  0.00  0.00    +0.000 C 
BRANCH  15  16
ATOM     16  N   UNL     1     -20.410  43.921 -16.630  0.00  0.00    +0.000 NA
ATOM     17  N   UNL     1     -21.754  44.525 -19.126  0.00  0.00    +0.000 NA
ATOM     18  C   UNL     1     -19.767  43.656 -17.923  0.00  0.00    +0.000 C 
ATOM     19  C   UNL     1     -21.870  43.828 -16.750  0.00  0.00    +0.000 C 
ATOM     20  C   UNL     1     -20.297  44.610 -18.997  0.00  0.00    +0.000 C 
ATOM     21  C   UNL     1     -22.387  44.780 -17.830  0.00  0.00    +0.000 C 
ATOM     22  H   UNL     1     -22.077  45.214 -19.805  0.00  0.00    +0.000 HD
ENDBRANCH  15  16
ENDBRANCH  14  15
ENDBRANCH   2  14
TORSDOF 4
ENDMDL
