MODEL 1
REMARK VINA RESULT:    -6.544      0.000      0.000
REMARK INTER + INTRA:          -7.004
REMARK INTER:                  -7.309
REMARK INTRA:                   0.305
REMARK UNBOUND:                 0.305
REMARK  Name = 59128735
REMARK  5 active torsions:
REMARK  status: ('A' for Active; 'I' for Inactive)
REMARK    1  A    between atoms: C_4  and  C_5
REMARK    2  A    between atoms: C_4  and  C_6
REMARK    3  A    between atoms: C_4  and  C_7
REMARK    4  A    between atoms: C_4  and  C_8
REMARK    5  A    between atoms: C_5  and  C_9
REMARK                            x       y       z     vdW  Elec       q    Type
REMARK                         _______ _______ _______ _____ _____    ______ ____
ROOT
ATOM      1  N   UNL     1     -18.934  42.051  -7.563  0.00  0.00    +0.000 NA
ATOM      2  N   UNL     1     -20.671  42.461  -5.984  0.00  0.00    +0.000 N 
ATOM      3  C   UNL     1     -19.383  40.658  -9.488  0.00  0.00    +0.000 A 
ATOM      4  C   UNL     1     -20.693  40.477  -9.061  0.00  0.00    +0.000 A 
ATOM      5  C   UNL     1     -18.550  41.448  -8.711  0.00  0.00    +0.000 A 
ATOM      6  C   UNL     1     -21.126  41.081  -7.885  0.00  0.00    +0.000 A 
ATOM      7  C   UNL     1     -20.215  41.851  -7.179  0.00  0.00    +0.000 A 
ATOM      8  H   UNL     1     -20.004  43.028  -5.475  0.00  0.00    +0.000 HD
ATOM      9  H   UNL     1     -21.654  42.689  -5.904  0.00  0.00    +0.000 HD
ENDROOT
BRANCH   3  11
ATOM     10  O   UNL     1     -19.312  38.901 -10.981  0.00  0.00    +0.000 OA
ATOM     11  C   UNL     1     -18.894  40.031 -10.730  0.00  0.00    +0.000 C 
BRANCH  11  12
ATOM     12  C   UNL     1     -17.896  40.770 -11.641  0.00  0.00    +0.000 C 
ATOM     13  C   UNL     1     -16.469  40.401 -11.215  0.00  0.00    +0.000 C 
ATOM     14  C   UNL     1     -18.130  40.278 -13.082  0.00  0.00    +0.000 C 
ATOM     15  C   UNL     1     -18.068  42.297 -11.632  0.00  0.00    +0.000 C 
ENDBRANCH  11  12
ENDBRANCH   3  11
TORSDOF 2
ENDMDL
MODEL 2
REMARK VINA RESULT:    -6.485      1.194      1.649
REMARK INTER + INTRA:          -6.939
REMARK INTER:                  -6.902
REMARK INTRA:                  -0.037
REMARK UNBOUND:                 0.305
REMARK  Name = 59128735
REMARK  5 active torsions:
REMARK  status: ('A' for Active; 'I' for Inactive)
REMARK    1  A    between atoms: C_4  and  C_5
REMARK    2  A    between atoms: C_4  and  C_6
REMARK    3  A    between atoms: C_4  and  C_7
REMARK    4  A    between atoms: C_4  and  C_8
REMARK    5  A    between atoms: C_5  and  C_9
REMARK                            x       y       z     vdW  Elec       q    Type
REMARK                         _______ _______ _______ _____ _____    ______ ____
ROOT
ATOM      1  N   UNL     1     -19.213  42.308  -7.626  0.00  0.00    +0.000 NA
ATOM      2  N   UNL     1     -21.221  42.110  -6.360  0.00  0.00    +0.000 N 
ATOM      3  C   UNL     1     -18.845  40.838  -9.510  0.00  0.00    +0.000 A 
ATOM      4  C   UNL     1     -20.070  40.223  -9.278  0.00  0.00    +0.000 A 
ATOM      5  C   UNL     1     -18.465  41.867  -8.662  0.00  0.00    +0.000 A 
ATOM      6  C   UNL     1     -20.867  40.649  -8.221  0.00  0.00    +0.000 A 
ATOM      7  C   UNL     1     -20.397  41.687  -7.432  0.00  0.00    +0.000 A 
ATOM      8  H   UNL     1     -20.877  42.872  -5.789  0.00  0.00    +0.000 HD
ATOM      9  H   UNL     1     -22.223  41.990  -6.445  0.00  0.00    +0.000 HD
ENDROOT
BRANCH   3  11
ATOM     10  O   UNL     1     -16.817  40.111 -10.336  0.00  0.00    +0.000 OA
ATOM     11  C   UNL     1     -17.977  40.408 -10.621  0.00  0.00    +0.000 C 
BRANCH  11  12
ATOM     12  C   UNL     1     -18.517  40.359 -12.063  0.00  0.00    +0.000 C 
ATOM     13  C   UNL     1     -19.205  41.693 -12.380  0.00  0.00    +0.000 C 
ATOM     14  C   UNL     1     -17.310  40.185 -13.006  0.00  0.00    +0.000 C 
ATOM     15  C   UNL     1     -19.485  39.195 -12.319  0.00  0.00    +0.000 C 
ENDBRANCH  11  12
ENDBRANCH   3  11
TORSDOF 2
ENDMDL
MODEL 3
REMARK VINA RESULT:    -5.449      2.339      3.446
REMARK INTER + INTRA:          -5.782
REMARK INTER:                  -5.693
REMARK INTRA:                  -0.089
REMARK UNBOUND:                 0.305
REMARK  Name = 59128735
REMARK  5 active torsions:
REMARK  status: ('A' for Active; 'I' for Inactive)
REMARK    1  A    between atoms: C_4  and  C_5
REMARK    2  A    between atoms: C_4  and  C_6
REMARK    3  A    between atoms: C_4  and  C_7
REMARK    4  A    between atoms: C_4  and  C_8
REMARK    5  A    between atoms: C_5  and  C_9
REMARK                            x       y       z     vdW  Elec       q    Type
REMARK                         _______ _______ _______ _____ _____    ______ ____
ROOT
ATOM      1  N   UNL     1     -19.094  41.429  -8.954  0.00  0.00    +0.000 NA
ATOM      2  N   UNL     1     -20.700  39.668  -8.946  0.00  0.00    +0.000 N 
ATOM      3  C   UNL     1     -17.707  41.764 -10.907  0.00  0.00    +0.000 A 
ATOM      4  C   UNL     1     -18.329  40.695 -11.541  0.00  0.00    +0.000 A 
ATOM      5  C   UNL     1     -18.122  42.088  -9.625  0.00  0.00    +0.000 A 
ATOM      6  C   UNL     1     -19.333  39.991 -10.883  0.00  0.00    +0.000 A 
ATOM      7  C   UNL     1     -19.675  40.395  -9.602  0.00  0.00    +0.000 A 
ATOM      8  H   UNL     1     -20.951  39.971  -8.012  0.00  0.00    +0.000 HD
ATOM      9  H   UNL     1     -21.409  39.218  -9.511  0.00  0.00    +0.000 HD
ENDROOT
BRANCH   3  11
ATOM     10  O   UNL     1     -15.483  42.172 -11.359  0.00  0.00    +0.000 OA
ATOM     11  C   UNL     1     -16.640  42.529 -11.577  0.00  0.00    +0.000 C 
BRANCH  11  12
ATOM     12  C   UNL     1     -16.985  43.723 -12.487  0.00  0.00    +0.000 C 
ATOM     13  C   UNL     1     -17.404  44.910 -11.610  0.00  0.00    +0.000 C 
ATOM     14  C   UNL     1     -15.708  44.101 -13.262  0.00  0.00    +0.000 C 
ATOM     15  C   UNL     1     -18.085  43.416 -13.515  0.00  0.00    +0.000 C 
ENDBRANCH  11  12
ENDBRANCH   3  11
TORSDOF 2
ENDMDL
MODEL 4
REMARK VINA RESULT:    -5.131      3.675      5.146
REMARK INTER + INTRA:          -5.427
REMARK INTER:                  -5.252
REMARK INTRA:                  -0.175
REMARK UNBOUND:                 0.305
REMARK  Name = 59128735
REMARK  5 active torsions:
REMARK  status: ('A' for Active; 'I' for Inactive)
REMARK    1  A    between atoms: C_4  and  C_5
REMARK    2  A    between atoms: C_4  and  C_6
REMARK    3  A    between atoms: C_4  and  C_7
REMARK    4  A    between atoms: C_4  and  C_8
REMARK    5  A    between atoms: C_5  and  C_9
REMARK                            x       y       z     vdW  Elec       q    Type
REMARK                         _______ _______ _______ _____ _____    ______ ____
ROOT
ATOM      1  N   UNL     1     -18.942  40.834 -13.236  0.00  0.00    +0.000 NA
ATOM      2  N   UNL     1     -19.223  39.007 -11.733  0.00  0.00    +0.000 N 
ATOM      3  C   UNL     1     -18.167  42.962 -12.390  0.00  0.00    +0.000 A 
ATOM      4  C   UNL     1     -18.101  42.435 -11.105  0.00  0.00    +0.000 A 
ATOM      5  C   UNL     1     -18.590  42.127 -13.412  0.00  0.00    +0.000 A 
ATOM      6  C   UNL     1     -18.455  41.108 -10.884  0.00  0.00    +0.000 A 
ATOM      7  C   UNL     1     -18.866  40.357 -11.974  0.00  0.00    +0.000 A 
ATOM      8  H   UNL     1     -19.516  38.460 -12.533  0.00  0.00    +0.000 HD
ATOM      9  H   UNL     1     -18.788  38.525 -10.955  0.00  0.00    +0.000 HD
ENDROOT
BRANCH   3  11
ATOM     10  O   UNL     1     -18.717  45.184 -12.677  0.00  0.00    +0.000 OA
ATOM     11  C   UNL     1     -17.799  44.365 -12.656  0.00  0.00    +0.000 C 
BRANCH  11  12
ATOM     12  C   UNL     1     -16.330  44.754 -12.909  0.00  0.00    +0.000 C 
ATOM     13  C   UNL     1     -16.211  45.353 -14.316  0.00  0.00    +0.000 C 
ATOM     14  C   UNL     1     -15.950  45.832 -11.875  0.00  0.00    +0.000 C 
ATOM     15  C   UNL     1     -15.346  43.584 -12.751  0.00  0.00    +0.000 C 
ENDBRANCH  11  12
ENDBRANCH   3  11
TORSDOF 2
ENDMDL
MODEL 5
REMARK VINA RESULT:    -5.084      4.042      5.611
REMARK INTER + INTRA:          -5.374
REMARK INTER:                  -5.183
REMARK INTRA:                  -0.191
REMARK UNBOUND:                 0.305
REMARK  Name = 59128735
REMARK  5 active torsions:
REMARK  status: ('A' for Active; 'I' for Inactive)
REMARK    1  A    between atoms: C_4  and  C_5
REMARK    2  A    between atoms: C_4  and  C_6
REMARK    3  A    between atoms: C_4  and  C_7
REMARK    4  A    between atoms: C_4  and  C_8
REMARK    5  A    between atoms: C_5  and  C_9
REMARK                            x       y       z     vdW  Elec       q    Type
REMARK                         _______ _______ _______ _____ _____    ______ ____
ROOT
ATOM      1  N   UNL     1     -19.156  41.850 -13.741  0.00  0.00    +0.000 NA
ATOM      2  N   UNL     1     -20.047  40.076 -12.423  0.00  0.00    +0.000 N 
ATOM      3  C   UNL     1     -17.445  43.281 -12.807  0.00  0.00    +0.000 A 
ATOM      4  C   UNL     1     -17.482  42.561 -11.618  0.00  0.00    +0.000 A 
ATOM      5  C   UNL     1     -18.295  42.889 -13.829  0.00  0.00    +0.000 A 
ATOM      6  C   UNL     1     -18.355  41.486 -11.489  0.00  0.00    +0.000 A 
ATOM      7  C   UNL     1     -19.164  41.175 -12.570  0.00  0.00    +0.000 A 
ATOM      8  H   UNL     1     -20.632  39.848 -13.217  0.00  0.00    +0.000 HD
ATOM      9  H   UNL     1     -19.788  39.331 -11.788  0.00  0.00    +0.000 HD
ENDROOT
BRANCH   3  11
ATOM     10  O   UNL     1     -15.372  44.166 -13.293  0.00  0.00    +0.000 OA
ATOM     11  C   UNL     1     -16.531  44.426 -12.975  0.00  0.00    +0.000 C 
BRANCH  11  12
ATOM     12  C   UNL     1     -17.028  45.865 -12.740  0.00  0.00    +0.000 C 
ATOM     13  C   UNL     1     -16.034  46.589 -11.822  0.00  0.00    +0.000 C 
ATOM     14  C   UNL     1     -17.052  46.577 -14.107  0.00  0.00    +0.000 C 
ATOM     15  C   UNL     1     -18.443  45.940 -12.146  0.00  0.00    +0.000 C 
ENDBRANCH  11  12
ENDBRANCH   3  11
TORSDOF 2
ENDMDL
