MODEL 1
REMARK VINA RESULT:    -6.244      0.000      0.000
REMARK INTER + INTRA:          -6.978
REMARK INTER:                  -6.974
REMARK INTRA:                  -0.004
REMARK UNBOUND:                -0.004
REMARK  Name = 59156729
REMARK  3 active torsions:
REMARK  status: ('A' for Active; 'I' for Inactive)
REMARK    1  A    between atoms: N_2  and  C_5
REMARK    2  A    between atoms: N_4  and  C_14
REMARK    3  A    between atoms: C_11  and  C_13
REMARK                            x       y       z     vdW  Elec       q    Type
REMARK                         _______ _______ _______ _____ _____    ______ ____
ROOT
ATOM      1  N   UNL     1     -17.270  40.599 -10.558  0.00  0.00    +0.000 N 
ATOM      2  N   UNL     1     -18.160  41.814  -8.714  0.00  0.00    +0.000 NA
ATOM      3  C   UNL     1     -18.340  40.881  -9.674  0.00  0.00    +0.000 A 
ATOM      4  C   UNL     1     -19.517  40.172  -9.856  0.00  0.00    +0.000 A 
ATOM      5  C   UNL     1     -20.576  40.438  -8.997  0.00  0.00    +0.000 A 
ATOM      6  C   UNL     1     -20.430  41.392  -7.995  0.00  0.00    +0.000 A 
ATOM      7  C   UNL     1     -19.213  42.046  -7.896  0.00  0.00    +0.000 A 
ATOM      8  H   UNL     1     -16.423  41.132 -10.392  0.00  0.00    +0.000 HD
ENDROOT
BRANCH   6  11
ATOM      9  O   UNL     1     -22.663  41.250  -7.294  0.00  0.00    +0.000 OA
ATOM     10  N   UNL     1     -21.212  42.472  -5.959  0.00  0.00    +0.000 N 
ATOM     11  C   UNL     1     -21.518  41.692  -7.082  0.00  0.00    +0.000 C 
ATOM     12  C   UNL     1     -22.180  42.837  -4.950  0.00  0.00    +0.000 C 
ATOM     13  H   UNL     1     -20.252  42.744  -5.779  0.00  0.00    +0.000 HD
ENDBRANCH   6  11
BRANCH   1  14
ATOM     14  C   UNL     1     -17.341  39.610 -11.625  0.00  0.00    +0.000 C 
ATOM     15  C   UNL     1     -16.798  39.900 -12.994  0.00  0.00    +0.000 C 
ATOM     16  C   UNL     1     -18.279  39.781 -12.784  0.00  0.00    +0.000 C 
ENDBRANCH   1  14
TORSDOF 2
ENDMDL
MODEL 2
REMARK VINA RESULT:    -5.818      2.967      6.092
REMARK INTER + INTRA:          -6.502
REMARK INTER:                  -6.327
REMARK INTRA:                  -0.175
REMARK UNBOUND:                -0.004
REMARK  Name = 59156729
REMARK  3 active torsions:
REMARK  status: ('A' for Active; 'I' for Inactive)
REMARK    1  A    between atoms: N_2  and  C_5
REMARK    2  A    between atoms: N_4  and  C_14
REMARK    3  A    between atoms: C_11  and  C_13
REMARK                            x       y       z     vdW  Elec       q    Type
REMARK                         _______ _______ _______ _____ _____    ______ ____
ROOT
ATOM      1  N   UNL     1     -21.062  40.787  -8.307  0.00  0.00    +0.000 N 
ATOM      2  N   UNL     1     -19.804  40.455 -10.302  0.00  0.00    +0.000 NA
ATOM      3  C   UNL     1     -19.932  41.079  -9.110  0.00  0.00    +0.000 A 
ATOM      4  C   UNL     1     -19.022  41.999  -8.615  0.00  0.00    +0.000 A 
ATOM      5  C   UNL     1     -17.909  42.297  -9.392  0.00  0.00    +0.000 A 
ATOM      6  C   UNL     1     -17.741  41.674 -10.625  0.00  0.00    +0.000 A 
ATOM      7  C   UNL     1     -18.709  40.769 -11.031  0.00  0.00    +0.000 A 
ATOM      8  H   UNL     1     -21.703  40.105  -8.698  0.00  0.00    +0.000 HD
ENDROOT
BRANCH   6  11
ATOM      9  O   UNL     1     -16.569  41.612 -12.654  0.00  0.00    +0.000 OA
ATOM     10  N   UNL     1     -15.533  42.669 -10.868  0.00  0.00    +0.000 N 
ATOM     11  C   UNL     1     -16.589  41.965 -11.460  0.00  0.00    +0.000 C 
ATOM     12  C   UNL     1     -14.331  43.052 -11.573  0.00  0.00    +0.000 C 
ATOM     13  H   UNL     1     -15.624  43.009  -9.917  0.00  0.00    +0.000 HD
ENDBRANCH   6  11
BRANCH   1  14
ATOM     14  C   UNL     1     -21.304  41.388  -7.004  0.00  0.00    +0.000 C 
ATOM     15  C   UNL     1     -22.698  41.593  -6.486  0.00  0.00    +0.000 C 
ATOM     16  C   UNL     1     -21.862  42.776  -6.877  0.00  0.00    +0.000 C 
ENDBRANCH   1  14
TORSDOF 2
ENDMDL
MODEL 3
REMARK VINA RESULT:    -5.800      4.024      6.528
REMARK INTER + INTRA:          -6.482
REMARK INTER:                  -6.400
REMARK INTRA:                  -0.082
REMARK UNBOUND:                -0.004
REMARK  Name = 59156729
REMARK  3 active torsions:
REMARK  status: ('A' for Active; 'I' for Inactive)
REMARK    1  A    between atoms: N_2  and  C_5
REMARK    2  A    between atoms: N_4  and  C_14
REMARK    3  A    between atoms: C_11  and  C_13
REMARK                            x       y       z     vdW  Elec       q    Type
REMARK                         _______ _______ _______ _____ _____    ______ ____
ROOT
ATOM      1  N   UNL     1     -19.918  40.442 -10.649  0.00  0.00    +0.000 N 
ATOM      2  N   UNL     1     -19.108  41.477 -12.636  0.00  0.00    +0.000 NA
ATOM      3  C   UNL     1     -18.999  41.300 -11.300  0.00  0.00    +0.000 A 
ATOM      4  C   UNL     1     -18.035  41.911 -10.514  0.00  0.00    +0.000 A 
ATOM      5  C   UNL     1     -17.125  42.757 -11.138  0.00  0.00    +0.000 A 
ATOM      6  C   UNL     1     -17.205  42.964 -12.512  0.00  0.00    +0.000 A 
ATOM      7  C   UNL     1     -18.206  42.306 -13.209  0.00  0.00    +0.000 A 
ATOM      8  H   UNL     1     -20.605  40.008 -11.256  0.00  0.00    +0.000 HD
ENDROOT
BRANCH   6  11
ATOM      9  O   UNL     1     -15.043  43.709 -13.028  0.00  0.00    +0.000 OA
ATOM     10  N   UNL     1     -16.812  44.812 -14.046  0.00  0.00    +0.000 N 
ATOM     11  C   UNL     1     -16.271  43.842 -13.193  0.00  0.00    +0.000 C 
ATOM     12  C   UNL     1     -16.013  45.743 -14.809  0.00  0.00    +0.000 C 
ATOM     13  H   UNL     1     -17.812  44.833 -14.216  0.00  0.00    +0.000 HD
ENDBRANCH   6  11
BRANCH   1  14
ATOM     14  C   UNL     1     -19.895  40.167  -9.220  0.00  0.00    +0.000 C 
ATOM     15  C   UNL     1     -21.165  39.992  -8.439  0.00  0.00    +0.000 C 
ATOM     16  C   UNL     1     -20.311  41.206  -8.220  0.00  0.00    +0.000 C 
ENDBRANCH   1  14
TORSDOF 2
ENDMDL
MODEL 4
REMARK VINA RESULT:    -5.512      4.027      5.062
REMARK INTER + INTRA:          -6.161
REMARK INTER:                  -5.911
REMARK INTRA:                  -0.249
REMARK UNBOUND:                -0.004
REMARK  Name = 59156729
REMARK  3 active torsions:
REMARK  status: ('A' for Active; 'I' for Inactive)
REMARK    1  A    between atoms: N_2  and  C_5
REMARK    2  A    between atoms: N_4  and  C_14
REMARK    3  A    between atoms: C_11  and  C_13
REMARK                            x       y       z     vdW  Elec       q    Type
REMARK                         _______ _______ _______ _____ _____    ______ ____
ROOT
ATOM      1  N   UNL     1     -18.868  43.592 -15.088  0.00  0.00    +0.000 N 
ATOM      2  N   UNL     1     -17.619  43.237 -13.091  0.00  0.00    +0.000 NA
ATOM      3  C   UNL     1     -18.703  42.939 -13.842  0.00  0.00    +0.000 A 
ATOM      4  C   UNL     1     -19.676  42.026 -13.470  0.00  0.00    +0.000 A 
ATOM      5  C   UNL     1     -19.529  41.377 -12.250  0.00  0.00    +0.000 A 
ATOM      6  C   UNL     1     -18.427  41.657 -11.448  0.00  0.00    +0.000 A 
ATOM      7  C   UNL     1     -17.509  42.587 -11.910  0.00  0.00    +0.000 A 
ATOM      8  H   UNL     1     -18.134  44.249 -15.330  0.00  0.00    +0.000 HD
ENDROOT
BRANCH   6  11
ATOM      9  O   UNL     1     -17.272  40.243  -9.978  0.00  0.00    +0.000 OA
ATOM     10  N   UNL     1     -19.191  41.265  -9.171  0.00  0.00    +0.000 N 
ATOM     11  C   UNL     1     -18.245  40.996 -10.168  0.00  0.00    +0.000 C 
ATOM     12  C   UNL     1     -19.135  40.704  -7.841  0.00  0.00    +0.000 C 
ATOM     13  H   UNL     1     -19.922  41.948  -9.340  0.00  0.00    +0.000 HD
ENDBRANCH   6  11
BRANCH   1  14
ATOM     14  C   UNL     1     -19.986  43.348 -15.987  0.00  0.00    +0.000 C 
ATOM     15  C   UNL     1     -19.778  43.182 -17.465  0.00  0.00    +0.000 C 
ATOM     16  C   UNL     1     -20.469  44.406 -16.936  0.00  0.00    +0.000 C 
ENDBRANCH   1  14
TORSDOF 2
ENDMDL
MODEL 5
REMARK VINA RESULT:    -5.421      4.120      6.486
REMARK INTER + INTRA:          -6.059
REMARK INTER:                  -6.157
REMARK INTRA:                   0.098
REMARK UNBOUND:                -0.004
REMARK  Name = 59156729
REMARK  3 active torsions:
REMARK  status: ('A' for Active; 'I' for Inactive)
REMARK    1  A    between atoms: N_2  and  C_5
REMARK    2  A    between atoms: N_4  and  C_14
REMARK    3  A    between atoms: C_11  and  C_13
REMARK                            x       y       z     vdW  Elec       q    Type
REMARK                         _______ _______ _______ _____ _____    ______ ____
ROOT
ATOM      1  N   UNL     1     -17.999  41.737  -9.806  0.00  0.00    +0.000 N 
ATOM      2  N   UNL     1     -17.690  43.352 -11.530  0.00  0.00    +0.000 NA
ATOM      3  C   UNL     1     -18.286  42.214 -11.109  0.00  0.00    +0.000 A 
ATOM      4  C   UNL     1     -19.169  41.472 -11.876  0.00  0.00    +0.000 A 
ATOM      5  C   UNL     1     -19.461  41.927 -13.157  0.00  0.00    +0.000 A 
ATOM      6  C   UNL     1     -18.868  43.095 -13.626  0.00  0.00    +0.000 A 
ATOM      7  C   UNL     1     -17.997  43.764 -12.781  0.00  0.00    +0.000 A 
ATOM      8  H   UNL     1     -17.353  42.307  -9.271  0.00  0.00    +0.000 HD
ENDROOT
BRANCH   6  11
ATOM      9  O   UNL     1     -18.906  44.780 -15.256  0.00  0.00    +0.000 OA
ATOM     10  N   UNL     1     -19.683  42.686 -15.882  0.00  0.00    +0.000 N 
ATOM     11  C   UNL     1     -19.151  43.595 -14.959  0.00  0.00    +0.000 C 
ATOM     12  C   UNL     1     -19.996  43.026 -17.251  0.00  0.00    +0.000 C 
ATOM     13  H   UNL     1     -19.791  41.711 -15.626  0.00  0.00    +0.000 HD
ENDBRANCH   6  11
BRANCH   1  14
ATOM     14  C   UNL     1     -18.585  40.530  -9.240  0.00  0.00    +0.000 C 
ATOM     15  C   UNL     1     -20.030  40.479  -8.838  0.00  0.00    +0.000 C 
ATOM     16  C   UNL     1     -18.958  40.452  -7.789  0.00  0.00    +0.000 C 
ENDBRANCH   1  14
TORSDOF 2
ENDMDL
