MODEL 1
REMARK VINA RESULT:    -6.455      0.000      0.000
REMARK INTER + INTRA:          -6.455
REMARK INTER:                  -6.455
REMARK INTRA:                   0.000
REMARK UNBOUND:                 0.000
REMARK  Name = 59514462
REMARK  1 active torsions:
REMARK  status: ('A' for Active; 'I' for Inactive)
REMARK    1  A    between atoms: N_2  and  C_10
REMARK                            x       y       z     vdW  Elec       q    Type
REMARK                         _______ _______ _______ _____ _____    ______ ____
ROOT
ATOM      1  O   UNL     1     -19.357  38.893 -11.365  0.00  0.00    +0.000 OA
ATOM      2  N   UNL     1     -17.644  40.453 -11.571  0.00  0.00    +0.000 N 
ATOM      3  N   UNL     1     -16.989  41.550 -11.078  0.00  0.00    +0.000 NA
ATOM      4  N   UNL     1     -17.341  42.113 -10.019  0.00  0.00    +0.000 NA
ATOM      5  N   UNL     1     -18.741  42.298  -8.171  0.00  0.00    +0.000 NA
ATOM      6  C   UNL     1     -19.161  40.523  -9.720  0.00  0.00    +0.000 A 
ATOM      7  C   UNL     1     -18.742  39.872 -10.957  0.00  0.00    +0.000 A 
ATOM      8  C   UNL     1     -18.436  41.620  -9.304  0.00  0.00    +0.000 A 
ATOM      9  C   UNL     1     -20.243  40.081  -8.963  0.00  0.00    +0.000 A 
ATOM     10  C   UNL     1     -17.160  39.865 -12.808  0.00  0.00    +0.000 C 
ATOM     11  C   UNL     1     -20.571  40.762  -7.798  0.00  0.00    +0.000 A 
ATOM     12  C   UNL     1     -19.795  41.854  -7.448  0.00  0.00    +0.000 A 
ENDROOT
TORSDOF 0
ENDMDL
MODEL 2
REMARK VINA RESULT:    -6.359      1.603      3.990
REMARK INTER + INTRA:          -6.359
REMARK INTER:                  -6.359
REMARK INTRA:                   0.000
REMARK UNBOUND:                 0.000
REMARK  Name = 59514462
REMARK  1 active torsions:
REMARK  status: ('A' for Active; 'I' for Inactive)
REMARK    1  A    between atoms: N_2  and  C_10
REMARK                            x       y       z     vdW  Elec       q    Type
REMARK                         _______ _______ _______ _____ _____    ______ ____
ROOT
ATOM      1  O   UNL     1     -21.845  40.224  -8.356  0.00  0.00    +0.000 OA
ATOM      2  N   UNL     1     -20.471  41.843  -7.407  0.00  0.00    +0.000 N 
ATOM      3  N   UNL     1     -19.286  42.530  -7.416  0.00  0.00    +0.000 NA
ATOM      4  N   UNL     1     -18.401  42.317  -8.273  0.00  0.00    +0.000 NA
ATOM      5  N   UNL     1     -17.597  41.192 -10.143  0.00  0.00    +0.000 NA
ATOM      6  C   UNL     1     -19.772  40.606  -9.334  0.00  0.00    +0.000 A 
ATOM      7  C   UNL     1     -20.799  40.862  -8.330  0.00  0.00    +0.000 A 
ATOM      8  C   UNL     1     -18.613  41.350  -9.260  0.00  0.00    +0.000 A 
ATOM      9  C   UNL     1     -19.921  39.657 -10.343  0.00  0.00    +0.000 A 
ATOM     10  C   UNL     1     -21.439  42.162  -6.372  0.00  0.00    +0.000 C 
ATOM     11  C   UNL     1     -18.892  39.480 -11.257  0.00  0.00    +0.000 A 
ATOM     12  C   UNL     1     -17.761  40.266 -11.116  0.00  0.00    +0.000 A 
ENDROOT
TORSDOF 0
ENDMDL
MODEL 3
REMARK VINA RESULT:    -6.108      1.843      2.371
REMARK INTER + INTRA:          -6.108
REMARK INTER:                  -6.108
REMARK INTRA:                   0.000
REMARK UNBOUND:                 0.000
REMARK  Name = 59514462
REMARK  1 active torsions:
REMARK  status: ('A' for Active; 'I' for Inactive)
REMARK    1  A    between atoms: N_2  and  C_10
REMARK                            x       y       z     vdW  Elec       q    Type
REMARK                         _______ _______ _______ _____ _____    ______ ____
ROOT
ATOM      1  O   UNL     1     -16.681  41.742 -10.877  0.00  0.00    +0.000 OA
ATOM      2  N   UNL     1     -17.856  39.938 -11.759  0.00  0.00    +0.000 N 
ATOM      3  N   UNL     1     -18.913  39.071 -11.675  0.00  0.00    +0.000 NA
ATOM      4  N   UNL     1     -19.750  39.132 -10.747  0.00  0.00    +0.000 NA
ATOM      5  N   UNL     1     -20.571  40.093  -8.796  0.00  0.00    +0.000 NA
ATOM      6  C   UNL     1     -18.586  41.026  -9.754  0.00  0.00    +0.000 A 
ATOM      7  C   UNL     1     -17.614  40.948 -10.840  0.00  0.00    +0.000 A 
ATOM      8  C   UNL     1     -19.616  40.109  -9.758  0.00  0.00    +0.000 A 
ATOM      9  C   UNL     1     -18.508  41.975  -8.737  0.00  0.00    +0.000 A 
ATOM     10  C   UNL     1     -16.937  39.791 -12.874  0.00  0.00    +0.000 C 
ATOM     11  C   UNL     1     -19.477  41.976  -7.743  0.00  0.00    +0.000 A 
ATOM     12  C   UNL     1     -20.479  41.024  -7.817  0.00  0.00    +0.000 A 
ENDROOT
TORSDOF 0
ENDMDL
MODEL 4
REMARK VINA RESULT:    -5.949      2.147      4.433
REMARK INTER + INTRA:          -5.949
REMARK INTER:                  -5.949
REMARK INTRA:                   0.000
REMARK UNBOUND:                 0.000
REMARK  Name = 59514462
REMARK  1 active torsions:
REMARK  status: ('A' for Active; 'I' for Inactive)
REMARK    1  A    between atoms: N_2  and  C_10
REMARK                            x       y       z     vdW  Elec       q    Type
REMARK                         _______ _______ _______ _____ _____    ______ ____
ROOT
ATOM      1  O   UNL     1     -18.090  42.815  -8.638  0.00  0.00    +0.000 OA
ATOM      2  N   UNL     1     -19.658  41.138  -8.263  0.00  0.00    +0.000 N 
ATOM      3  N   UNL     1     -20.282  39.996  -8.690  0.00  0.00    +0.000 NA
ATOM      4  N   UNL     1     -19.998  39.452  -9.780  0.00  0.00    +0.000 NA
ATOM      5  N   UNL     1     -18.780  39.355 -11.758  0.00  0.00    +0.000 NA
ATOM      6  C   UNL     1     -18.333  41.164 -10.257  0.00  0.00    +0.000 A 
ATOM      7  C   UNL     1     -18.671  41.791  -8.983  0.00  0.00    +0.000 A 
ATOM      8  C   UNL     1     -19.016  40.016 -10.599  0.00  0.00    +0.000 A 
ATOM      9  C   UNL     1     -17.366  41.676 -11.119  0.00  0.00    +0.000 A 
ATOM     10  C   UNL     1     -20.054  41.695  -6.981  0.00  0.00    +0.000 C 
ATOM     11  C   UNL     1     -17.109  41.014 -12.311  0.00  0.00    +0.000 A 
ATOM     12  C   UNL     1     -17.836  39.867 -12.582  0.00  0.00    +0.000 A 
ENDROOT
TORSDOF 0
ENDMDL
MODEL 5
REMARK VINA RESULT:    -5.491      1.535      3.765
REMARK INTER + INTRA:          -5.491
REMARK INTER:                  -5.491
REMARK INTRA:                   0.000
REMARK UNBOUND:                 0.000
REMARK  Name = 59514462
REMARK  1 active torsions:
REMARK  status: ('A' for Active; 'I' for Inactive)
REMARK    1  A    between atoms: N_2  and  C_10
REMARK                            x       y       z     vdW  Elec       q    Type
REMARK                         _______ _______ _______ _____ _____    ______ ____
ROOT
ATOM      1  O   UNL     1     -19.507  39.399 -10.484  0.00  0.00    +0.000 OA
ATOM      2  N   UNL     1     -19.154  40.965  -8.800  0.00  0.00    +0.000 N 
ATOM      3  N   UNL     1     -18.578  42.137  -8.388  0.00  0.00    +0.000 NA
ATOM      4  N   UNL     1     -17.869  42.832  -9.148  0.00  0.00    +0.000 NA
ATOM      5  N   UNL     1     -16.869  43.233 -11.209  0.00  0.00    +0.000 NA
ATOM      6  C   UNL     1     -18.185  41.248 -10.971  0.00  0.00    +0.000 A 
ATOM      7  C   UNL     1     -19.011  40.444 -10.076  0.00  0.00    +0.000 A 
ATOM      8  C   UNL     1     -17.649  42.413 -10.463  0.00  0.00    +0.000 A 
ATOM      9  C   UNL     1     -17.927  40.886 -12.291  0.00  0.00    +0.000 A 
ATOM     10  C   UNL     1     -19.963  40.226  -7.845  0.00  0.00    +0.000 C 
ATOM     11  C   UNL     1     -17.130  41.712 -13.071  0.00  0.00    +0.000 A 
ATOM     12  C   UNL     1     -16.630  42.865 -12.489  0.00  0.00    +0.000 A 
ENDROOT
TORSDOF 0
ENDMDL
