MODEL 1
REMARK VINA RESULT:    -6.004      0.000      0.000
REMARK INTER + INTRA:          -7.310
REMARK INTER:                  -6.882
REMARK INTRA:                  -0.428
REMARK UNBOUND:                -0.428
REMARK  Name = 59700106
REMARK  6 active torsions:
REMARK  status: ('A' for Active; 'I' for Inactive)
REMARK    1  A    between atoms: O_1  and  N_3
REMARK    2  A    between atoms: O_1  and  C_14
REMARK    3  A    between atoms: N_3  and  C_13
REMARK    4  A    between atoms: N_5  and  C_9
REMARK    5  A    between atoms: C_6  and  C_10
REMARK    6  A    between atoms: C_8  and  C_12
REMARK                            x       y       z     vdW  Elec       q    Type
REMARK                         _______ _______ _______ _____ _____    ______ ____
ROOT
ATOM      1  N   UNL     1     -20.208  39.454  -9.722  0.00  0.00    +0.000 NA
ATOM      2  C   UNL     1     -18.290  40.853 -10.181  0.00  0.00    +0.000 A 
ATOM      3  C   UNL     1     -18.513  41.558  -9.003  0.00  0.00    +0.000 A 
ATOM      4  C   UNL     1     -19.584  41.212  -8.185  0.00  0.00    +0.000 A 
ATOM      5  C   UNL     1     -19.158  39.818 -10.492  0.00  0.00    +0.000 A 
ATOM      6  C   UNL     1     -20.393  40.162  -8.586  0.00  0.00    +0.000 A 
ATOM      7  C   UNL     1     -19.849  41.946  -6.919  0.00  0.00    +0.000 C 
ENDROOT
BRANCH   2  10
ATOM      8  O   UNL     1     -16.119  40.573 -10.919  0.00  0.00    +0.000 OA
ATOM      9  N   UNL     1     -17.326  42.265 -11.928  0.00  0.00    +0.000 N 
ATOM     10  C   UNL     1     -17.152  41.228 -11.042  0.00  0.00    +0.000 C 
ATOM     11  C   UNL     1     -16.295  42.723 -12.840  0.00  0.00    +0.000 C 
BRANCH   9  12
ATOM     12  O   UNL     1     -18.520  42.998 -12.046  0.00  0.00    +0.000 OA
ATOM     13  C   UNL     1     -19.164  42.642 -13.266  0.00  0.00    +0.000 C 
ENDBRANCH   9  12
ENDBRANCH   2  10
BRANCH   5  14
ATOM     14  N   UNL     1     -18.935  39.095 -11.691  0.00  0.00    +0.000 N 
ATOM     15  H   UNL     1     -18.259  39.452 -12.355  0.00  0.00    +0.000 HD
ATOM     16  H   UNL     1     -19.723  38.576 -12.058  0.00  0.00    +0.000 HD
ENDBRANCH   5  14
TORSDOF 3
ENDMDL
MODEL 2
REMARK VINA RESULT:    -5.126      1.352      2.270
REMARK INTER + INTRA:          -6.303
REMARK INTER:                  -6.005
REMARK INTRA:                  -0.298
REMARK UNBOUND:                -0.428
REMARK  Name = 59700106
REMARK  6 active torsions:
REMARK  status: ('A' for Active; 'I' for Inactive)
REMARK    1  A    between atoms: O_1  and  N_3
REMARK    2  A    between atoms: O_1  and  C_14
REMARK    3  A    between atoms: N_3  and  C_13
REMARK    4  A    between atoms: N_5  and  C_9
REMARK    5  A    between atoms: C_6  and  C_10
REMARK    6  A    between atoms: C_8  and  C_12
REMARK                            x       y       z     vdW  Elec       q    Type
REMARK                         _______ _______ _______ _____ _____    ______ ____
ROOT
ATOM      1  N   UNL     1     -19.402  39.385 -10.858  0.00  0.00    +0.000 NA
ATOM      2  C   UNL     1     -18.494  41.561 -11.394  0.00  0.00    +0.000 A 
ATOM      3  C   UNL     1     -18.657  41.962 -10.072  0.00  0.00    +0.000 A 
ATOM      4  C   UNL     1     -19.193  41.077  -9.144  0.00  0.00    +0.000 A 
ATOM      5  C   UNL     1     -18.879  40.274 -11.732  0.00  0.00    +0.000 A 
ATOM      6  C   UNL     1     -19.546  39.811  -9.583  0.00  0.00    +0.000 A 
ATOM      7  C   UNL     1     -19.379  41.475  -7.723  0.00  0.00    +0.000 C 
ENDROOT
BRANCH   2  10
ATOM      8  O   UNL     1     -18.696  42.979 -13.206  0.00  0.00    +0.000 OA
ATOM      9  N   UNL     1     -16.587  42.811 -12.276  0.00  0.00    +0.000 N 
ATOM     10  C   UNL     1     -17.926  42.509 -12.371  0.00  0.00    +0.000 C 
ATOM     11  C   UNL     1     -15.908  43.736 -13.163  0.00  0.00    +0.000 C 
BRANCH   9  12
ATOM     12  O   UNL     1     -15.729  42.256 -11.311  0.00  0.00    +0.000 OA
ATOM     13  C   UNL     1     -14.542  43.041 -11.238  0.00  0.00    +0.000 C 
ENDBRANCH   9  12
ENDBRANCH   2  10
BRANCH   5  14
ATOM     14  N   UNL     1     -18.715  39.858 -13.078  0.00  0.00    +0.000 N 
ATOM     15  H   UNL     1     -17.788  39.886 -13.485  0.00  0.00    +0.000 HD
ATOM     16  H   UNL     1     -19.503  40.008 -13.696  0.00  0.00    +0.000 HD
ENDBRANCH   5  14
TORSDOF 3
ENDMDL
MODEL 3
REMARK VINA RESULT:    -4.948      2.075      3.383
REMARK INTER + INTRA:          -6.099
REMARK INTER:                  -5.721
REMARK INTRA:                  -0.378
REMARK UNBOUND:                -0.428
REMARK  Name = 59700106
REMARK  6 active torsions:
REMARK  status: ('A' for Active; 'I' for Inactive)
REMARK    1  A    between atoms: O_1  and  N_3
REMARK    2  A    between atoms: O_1  and  C_14
REMARK    3  A    between atoms: N_3  and  C_13
REMARK    4  A    between atoms: N_5  and  C_9
REMARK    5  A    between atoms: C_6  and  C_10
REMARK    6  A    between atoms: C_8  and  C_12
REMARK                            x       y       z     vdW  Elec       q    Type
REMARK                         _______ _______ _______ _____ _____    ______ ____
ROOT
ATOM      1  N   UNL     1     -19.555  40.706 -12.537  0.00  0.00    +0.000 NA
ATOM      2  C   UNL     1     -18.378  42.791 -12.201  0.00  0.00    +0.000 A 
ATOM      3  C   UNL     1     -18.077  42.419 -10.895  0.00  0.00    +0.000 A 
ATOM      4  C   UNL     1     -18.516  41.192 -10.409  0.00  0.00    +0.000 A 
ATOM      5  C   UNL     1     -19.112  41.907 -12.974  0.00  0.00    +0.000 A 
ATOM      6  C   UNL     1     -19.244  40.380 -11.263  0.00  0.00    +0.000 A 
ATOM      7  C   UNL     1     -18.211  40.765  -9.017  0.00  0.00    +0.000 C 
ENDROOT
BRANCH   2  10
ATOM      8  O   UNL     1     -18.742  44.996 -12.788  0.00  0.00    +0.000 OA
ATOM      9  N   UNL     1     -16.580  44.221 -13.036  0.00  0.00    +0.000 N 
ATOM     10  C   UNL     1     -17.909  44.095 -12.706  0.00  0.00    +0.000 C 
ATOM     11  C   UNL     1     -15.987  45.450 -13.529  0.00  0.00    +0.000 C 
BRANCH   9  12
ATOM     12  O   UNL     1     -15.648  43.173 -12.934  0.00  0.00    +0.000 OA
ATOM     13  C   UNL     1     -14.640  43.537 -11.996  0.00  0.00    +0.000 C 
ENDBRANCH   9  12
ENDBRANCH   2  10
BRANCH   5  14
ATOM     14  N   UNL     1     -19.421  42.280 -14.307  0.00  0.00    +0.000 N 
ATOM     15  H   UNL     1     -18.782  42.891 -14.800  0.00  0.00    +0.000 HD
ATOM     16  H   UNL     1     -20.404  42.340 -14.542  0.00  0.00    +0.000 HD
ENDBRANCH   5  14
TORSDOF 3
ENDMDL
MODEL 4
REMARK VINA RESULT:    -4.707      2.418      3.324
REMARK INTER + INTRA:          -5.823
REMARK INTER:                  -5.461
REMARK INTRA:                  -0.362
REMARK UNBOUND:                -0.428
REMARK  Name = 59700106
REMARK  6 active torsions:
REMARK  status: ('A' for Active; 'I' for Inactive)
REMARK    1  A    between atoms: O_1  and  N_3
REMARK    2  A    between atoms: O_1  and  C_14
REMARK    3  A    between atoms: N_3  and  C_13
REMARK    4  A    between atoms: N_5  and  C_9
REMARK    5  A    between atoms: C_6  and  C_10
REMARK    6  A    between atoms: C_8  and  C_12
REMARK                            x       y       z     vdW  Elec       q    Type
REMARK                         _______ _______ _______ _____ _____    ______ ____
ROOT
ATOM      1  N   UNL     1     -19.532  41.348 -12.792  0.00  0.00    +0.000 NA
ATOM      2  C   UNL     1     -17.651  42.725 -12.150  0.00  0.00    +0.000 A 
ATOM      3  C   UNL     1     -17.690  42.192 -10.866  0.00  0.00    +0.000 A 
ATOM      4  C   UNL     1     -18.650  41.238 -10.544  0.00  0.00    +0.000 A 
ATOM      5  C   UNL     1     -18.586  42.273 -13.068  0.00  0.00    +0.000 A 
ATOM      6  C   UNL     1     -19.539  40.853 -11.534  0.00  0.00    +0.000 A 
ATOM      7  C   UNL     1     -18.717  40.649  -9.180  0.00  0.00    +0.000 C 
ENDROOT
BRANCH   2  10
ATOM      8  O   UNL     1     -15.612  43.339 -13.045  0.00  0.00    +0.000 OA
ATOM      9  N   UNL     1     -16.888  45.047 -12.155  0.00  0.00    +0.000 N 
ATOM     10  C   UNL     1     -16.630  43.737 -12.481  0.00  0.00    +0.000 C 
ATOM     11  C   UNL     1     -15.978  46.141 -12.438  0.00  0.00    +0.000 C 
BRANCH   9  12
ATOM     12  O   UNL     1     -18.062  45.474 -11.509  0.00  0.00    +0.000 OA
ATOM     13  C   UNL     1     -18.062  46.896 -11.437  0.00  0.00    +0.000 C 
ENDBRANCH   9  12
ENDBRANCH   2  10
BRANCH   5  14
ATOM     14  N   UNL     1     -18.551  42.811 -14.379  0.00  0.00    +0.000 N 
ATOM     15  H   UNL     1     -18.703  43.805 -14.500  0.00  0.00    +0.000 HD
ATOM     16  H   UNL     1     -18.848  42.197 -15.127  0.00  0.00    +0.000 HD
ENDBRANCH   5  14
TORSDOF 3
ENDMDL
MODEL 5
REMARK VINA RESULT:    -4.055     18.720     20.531
REMARK INTER + INTRA:          -5.076
REMARK INTER:                  -4.699
REMARK INTRA:                  -0.377
REMARK UNBOUND:                -0.428
REMARK  Name = 59700106
REMARK  6 active torsions:
REMARK  status: ('A' for Active; 'I' for Inactive)
REMARK    1  A    between atoms: O_1  and  N_3
REMARK    2  A    between atoms: O_1  and  C_14
REMARK    3  A    between atoms: N_3  and  C_13
REMARK    4  A    between atoms: N_5  and  C_9
REMARK    5  A    between atoms: C_6  and  C_10
REMARK    6  A    between atoms: C_8  and  C_12
REMARK                            x       y       z     vdW  Elec       q    Type
REMARK                         _______ _______ _______ _____ _____    ______ ____
ROOT
ATOM      1  N   UNL     1     -24.780  27.089   5.953  0.00  0.00    +0.000 NA
ATOM      2  C   UNL     1     -23.213  28.928   5.879  0.00  0.00    +0.000 A 
ATOM      3  C   UNL     1     -24.058  29.690   6.679  0.00  0.00    +0.000 A 
ATOM      4  C   UNL     1     -25.265  29.153   7.114  0.00  0.00    +0.000 A 
ATOM      5  C   UNL     1     -23.616  27.645   5.548  0.00  0.00    +0.000 A 
ATOM      6  C   UNL     1     -25.576  27.860   6.728  0.00  0.00    +0.000 A 
ATOM      7  C   UNL     1     -26.190  29.942   7.971  0.00  0.00    +0.000 C 
ENDROOT
BRANCH   2  10
ATOM      8  O   UNL     1     -20.939  29.271   6.102  0.00  0.00    +0.000 OA
ATOM      9  N   UNL     1     -21.941  30.255   4.267  0.00  0.00    +0.000 N 
ATOM     10  C   UNL     1     -21.936  29.507   5.421  0.00  0.00    +0.000 C 
ATOM     11  C   UNL     1     -20.754  30.866   3.700  0.00  0.00    +0.000 C 
BRANCH   9  12
ATOM     12  O   UNL     1     -23.098  30.511   3.509  0.00  0.00    +0.000 OA
ATOM     13  C   UNL     1     -23.059  31.857   3.043  0.00  0.00    +0.000 C 
ENDBRANCH   9  12
ENDBRANCH   2  10
BRANCH   5  14
ATOM     14  N   UNL     1     -22.759  26.863   4.734  0.00  0.00    +0.000 N 
ATOM     15  H   UNL     1     -23.034  25.914   4.509  0.00  0.00    +0.000 HD
ATOM     16  H   UNL     1     -21.768  27.059   4.804  0.00  0.00    +0.000 HD
ENDBRANCH   5  14
TORSDOF 3
ENDMDL
