MODEL 1
REMARK VINA RESULT:    -5.057      0.000      0.000
REMARK INTER + INTRA:          -6.393
REMARK INTER:                  -6.240
REMARK INTRA:                  -0.153
REMARK UNBOUND:                -0.153
REMARK  Name = 59750283
REMARK  6 active torsions:
REMARK  status: ('A' for Active; 'I' for Inactive)
REMARK    1  A    between atoms: N_2  and  C_5
REMARK    2  A    between atoms: N_2  and  C_6
REMARK    3  A    between atoms: N_4  and  C_14
REMARK    4  A    between atoms: C_5  and  C_8
REMARK    5  A    between atoms: C_6  and  C_9
REMARK    6  A    between atoms: C_7  and  C_10
REMARK                            x       y       z     vdW  Elec       q    Type
REMARK                         _______ _______ _______ _____ _____    ______ ____
ROOT
ATOM      1  N   UNL     1     -20.735  40.445  -9.346  0.00  0.00    +0.000 NA
ATOM      2  C   UNL     1     -18.459  41.167  -9.721  0.00  0.00    +0.000 A 
ATOM      3  C   UNL     1     -18.512  41.955  -8.577  0.00  0.00    +0.000 A 
ATOM      4  C   UNL     1     -19.586  40.438 -10.060  0.00  0.00    +0.000 A 
ATOM      5  C   UNL     1     -19.677  41.989  -7.816  0.00  0.00    +0.000 A 
ATOM      6  C   UNL     1     -20.751  41.223  -8.241  0.00  0.00    +0.000 A 
ENDROOT
BRANCH   2   9
ATOM      7  O   UNL     1     -16.605  40.057 -10.502  0.00  0.00    +0.000 OA
ATOM      8  N   UNL     1     -16.908  42.227 -11.317  0.00  0.00    +0.000 N 
ATOM      9  C   UNL     1     -17.241  41.109 -10.545  0.00  0.00    +0.000 C 
BRANCH   8  10
ATOM     10  C   UNL     1     -15.731  42.254 -12.174  0.00  0.00    +0.000 C 
ATOM     11  C   UNL     1     -14.793  43.380 -11.793  0.00  0.00    +0.000 C 
ENDBRANCH   8  10
BRANCH   8  12
ATOM     12  C   UNL     1     -17.717  43.444 -11.315  0.00  0.00    +0.000 C 
ATOM     13  C   UNL     1     -18.412  43.649 -12.645  0.00  0.00    +0.000 C 
ENDBRANCH   8  12
ENDBRANCH   2   9
BRANCH   6  14
ATOM     14  N   UNL     1     -21.899  41.273  -7.468  0.00  0.00    +0.000 NA
ATOM     15  C   UNL     1     -22.872  41.315  -6.814  0.00  0.00    +0.000 C 
ENDBRANCH   6  14
TORSDOF 4
ENDMDL
MODEL 2
REMARK VINA RESULT:    -4.601      2.543      6.124
REMARK INTER + INTRA:          -5.830
REMARK INTER:                  -5.664
REMARK INTRA:                  -0.166
REMARK UNBOUND:                -0.153
REMARK  Name = 59750283
REMARK  6 active torsions:
REMARK  status: ('A' for Active; 'I' for Inactive)
REMARK    1  A    between atoms: N_2  and  C_5
REMARK    2  A    between atoms: N_2  and  C_6
REMARK    3  A    between atoms: N_4  and  C_14
REMARK    4  A    between atoms: C_5  and  C_8
REMARK    5  A    between atoms: C_6  and  C_9
REMARK    6  A    between atoms: C_7  and  C_10
REMARK                            x       y       z     vdW  Elec       q    Type
REMARK                         _______ _______ _______ _____ _____    ______ ____
ROOT
ATOM      1  N   UNL     1     -17.841  44.797 -13.401  0.00  0.00    +0.000 NA
ATOM      2  C   UNL     1     -17.292  43.237 -11.637  0.00  0.00    +0.000 A 
ATOM      3  C   UNL     1     -15.939  43.370 -11.930  0.00  0.00    +0.000 A 
ATOM      4  C   UNL     1     -18.194  43.965 -12.395  0.00  0.00    +0.000 A 
ATOM      5  C   UNL     1     -15.536  44.216 -12.958  0.00  0.00    +0.000 A 
ATOM      6  C   UNL     1     -16.517  44.900 -13.658  0.00  0.00    +0.000 A 
ENDROOT
BRANCH   2   9
ATOM      7  O   UNL     1     -17.677  42.806  -9.413  0.00  0.00    +0.000 OA
ATOM      8  N   UNL     1     -18.241  41.087 -10.894  0.00  0.00    +0.000 N 
ATOM      9  C   UNL     1     -17.750  42.352 -10.555  0.00  0.00    +0.000 C 
BRANCH   8  10
ATOM     10  C   UNL     1     -18.730  40.151  -9.891  0.00  0.00    +0.000 C 
ATOM     11  C   UNL     1     -20.122  40.518  -9.423  0.00  0.00    +0.000 C 
ENDBRANCH   8  10
BRANCH   8  12
ATOM     12  C   UNL     1     -18.296  40.619 -12.277  0.00  0.00    +0.000 C 
ATOM     13  C   UNL     1     -17.060  39.825 -12.644  0.00  0.00    +0.000 C 
ENDBRANCH   8  12
ENDBRANCH   2   9
BRANCH   6  14
ATOM     14  N   UNL     1     -16.092  45.735 -14.677  0.00  0.00    +0.000 NA
ATOM     15  C   UNL     1     -15.733  46.443 -15.541  0.00  0.00    +0.000 C 
ENDBRANCH   6  14
TORSDOF 4
ENDMDL
MODEL 3
REMARK VINA RESULT:    -4.518      2.414      3.318
REMARK INTER + INTRA:          -5.727
REMARK INTER:                  -5.415
REMARK INTRA:                  -0.312
REMARK UNBOUND:                -0.153
REMARK  Name = 59750283
REMARK  6 active torsions:
REMARK  status: ('A' for Active; 'I' for Inactive)
REMARK    1  A    between atoms: N_2  and  C_5
REMARK    2  A    between atoms: N_2  and  C_6
REMARK    3  A    between atoms: N_4  and  C_14
REMARK    4  A    between atoms: C_5  and  C_8
REMARK    5  A    between atoms: C_6  and  C_9
REMARK    6  A    between atoms: C_7  and  C_10
REMARK                            x       y       z     vdW  Elec       q    Type
REMARK                         _______ _______ _______ _____ _____    ______ ____
ROOT
ATOM      1  N   UNL     1     -18.889  41.110 -11.666  0.00  0.00    +0.000 NA
ATOM      2  C   UNL     1     -17.287  42.918 -11.786  0.00  0.00    +0.000 A 
ATOM      3  C   UNL     1     -17.357  43.082 -10.408  0.00  0.00    +0.000 A 
ATOM      4  C   UNL     1     -18.065  41.927 -12.362  0.00  0.00    +0.000 A 
ATOM      5  C   UNL     1     -18.193  42.261  -9.657  0.00  0.00    +0.000 A 
ATOM      6  C   UNL     1     -18.932  41.300 -10.328  0.00  0.00    +0.000 A 
ENDROOT
BRANCH   2   9
ATOM      7  O   UNL     1     -15.298  43.315 -12.866  0.00  0.00    +0.000 OA
ATOM      8  N   UNL     1     -16.904  45.004 -13.042  0.00  0.00    +0.000 N 
ATOM      9  C   UNL     1     -16.412  43.769 -12.608  0.00  0.00    +0.000 C 
BRANCH   8  10
ATOM     10  C   UNL     1     -16.115  45.905 -13.871  0.00  0.00    +0.000 C 
ATOM     11  C   UNL     1     -16.752  46.108 -15.230  0.00  0.00    +0.000 C 
ENDBRANCH   8  10
BRANCH   8  12
ATOM     12  C   UNL     1     -18.243  45.475 -12.693  0.00  0.00    +0.000 C 
ATOM     13  C   UNL     1     -18.190  46.578 -11.656  0.00  0.00    +0.000 C 
ENDBRANCH   8  12
ENDBRANCH   2   9
BRANCH   6  14
ATOM     14  N   UNL     1     -19.756  40.494  -9.560  0.00  0.00    +0.000 NA
ATOM     15  C   UNL     1     -20.455  39.812  -8.910  0.00  0.00    +0.000 C 
ENDBRANCH   6  14
TORSDOF 4
ENDMDL
MODEL 4
REMARK VINA RESULT:    -4.244      2.826      5.800
REMARK INTER + INTRA:          -5.389
REMARK INTER:                  -5.747
REMARK INTRA:                   0.357
REMARK UNBOUND:                -0.153
REMARK  Name = 59750283
REMARK  6 active torsions:
REMARK  status: ('A' for Active; 'I' for Inactive)
REMARK    1  A    between atoms: N_2  and  C_5
REMARK    2  A    between atoms: N_2  and  C_6
REMARK    3  A    between atoms: N_4  and  C_14
REMARK    4  A    between atoms: C_5  and  C_8
REMARK    5  A    between atoms: C_6  and  C_9
REMARK    6  A    between atoms: C_7  and  C_10
REMARK                            x       y       z     vdW  Elec       q    Type
REMARK                         _______ _______ _______ _____ _____    ______ ____
ROOT
ATOM      1  N   UNL     1     -19.229  42.687 -15.008  0.00  0.00    +0.000 NA
ATOM      2  C   UNL     1     -18.095  42.858 -12.879  0.00  0.00    +0.000 A 
ATOM      3  C   UNL     1     -18.131  44.245 -12.962  0.00  0.00    +0.000 A 
ATOM      4  C   UNL     1     -18.652  42.131 -13.918  0.00  0.00    +0.000 A 
ATOM      5  C   UNL     1     -18.716  44.855 -14.067  0.00  0.00    +0.000 A 
ATOM      6  C   UNL     1     -19.244  44.039 -15.054  0.00  0.00    +0.000 A 
ENDROOT
BRANCH   2   9
ATOM      7  O   UNL     1     -16.380  42.596 -11.371  0.00  0.00    +0.000 OA
ATOM      8  N   UNL     1     -18.198  41.150 -11.104  0.00  0.00    +0.000 N 
ATOM      9  C   UNL     1     -17.486  42.183 -11.722  0.00  0.00    +0.000 C 
BRANCH   8  10
ATOM     10  C   UNL     1     -17.680  40.437  -9.945  0.00  0.00    +0.000 C 
ATOM     11  C   UNL     1     -18.459  40.777  -8.692  0.00  0.00    +0.000 C 
ENDBRANCH   8  10
BRANCH   8  12
ATOM     12  C   UNL     1     -19.509  40.716 -11.580  0.00  0.00    +0.000 C 
ATOM     13  C   UNL     1     -19.493  39.260 -11.999  0.00  0.00    +0.000 C 
ENDBRANCH   8  12
ENDBRANCH   2   9
BRANCH   6  14
ATOM     14  N   UNL     1     -19.820  44.668 -16.145  0.00  0.00    +0.000 NA
ATOM     15  C   UNL     1     -20.308  45.201 -17.069  0.00  0.00    +0.000 C 
ENDBRANCH   6  14
TORSDOF 4
ENDMDL
MODEL 5
REMARK VINA RESULT:    -4.061      3.634      4.856
REMARK INTER + INTRA:          -5.163
REMARK INTER:                  -4.915
REMARK INTRA:                  -0.248
REMARK UNBOUND:                -0.153
REMARK  Name = 59750283
REMARK  6 active torsions:
REMARK  status: ('A' for Active; 'I' for Inactive)
REMARK    1  A    between atoms: N_2  and  C_5
REMARK    2  A    between atoms: N_2  and  C_6
REMARK    3  A    between atoms: N_4  and  C_14
REMARK    4  A    between atoms: C_5  and  C_8
REMARK    5  A    between atoms: C_6  and  C_9
REMARK    6  A    between atoms: C_7  and  C_10
REMARK                            x       y       z     vdW  Elec       q    Type
REMARK                         _______ _______ _______ _____ _____    ______ ____
ROOT
ATOM      1  N   UNL     1     -19.137  42.241 -13.261  0.00  0.00    +0.000 NA
ATOM      2  C   UNL     1     -18.142  44.266 -12.395  0.00  0.00    +0.000 A 
ATOM      3  C   UNL     1     -17.735  43.587 -11.253  0.00  0.00    +0.000 A 
ATOM      4  C   UNL     1     -18.834  43.555 -13.361  0.00  0.00    +0.000 A 
ATOM      5  C   UNL     1     -18.029  42.234 -11.113  0.00  0.00    +0.000 A 
ATOM      6  C   UNL     1     -18.727  41.613 -12.136  0.00  0.00    +0.000 A 
ENDROOT
BRANCH   2   9
ATOM      7  O   UNL     1     -18.778  46.475 -12.372  0.00  0.00    +0.000 OA
ATOM      8  N   UNL     1     -16.546  46.066 -12.936  0.00  0.00    +0.000 N 
ATOM      9  C   UNL     1     -17.845  45.697 -12.573  0.00  0.00    +0.000 C 
BRANCH   8  10
ATOM     10  C   UNL     1     -16.158  47.457 -13.119  0.00  0.00    +0.000 C 
ATOM     11  C   UNL     1     -15.965  47.791 -14.583  0.00  0.00    +0.000 C 
ENDBRANCH   8  10
BRANCH   8  12
ATOM     12  C   UNL     1     -15.490  45.080 -13.157  0.00  0.00    +0.000 C 
ATOM     13  C   UNL     1     -14.475  45.095 -12.033  0.00  0.00    +0.000 C 
ENDBRANCH   8  12
ENDBRANCH   2   9
BRANCH   6  14
ATOM     14  N   UNL     1     -19.008  40.267 -11.975  0.00  0.00    +0.000 NA
ATOM     15  C   UNL     1     -19.245  39.126 -11.838  0.00  0.00    +0.000 C 
ENDBRANCH   6  14
TORSDOF 4
ENDMDL
