MODEL 1
REMARK VINA RESULT:    -5.828      0.000      0.000
REMARK INTER + INTRA:          -6.591
REMARK INTER:                  -6.679
REMARK INTRA:                   0.088
REMARK UNBOUND:                 0.088
REMARK  Name = 59768561
REMARK  6 active torsions:
REMARK  status: ('A' for Active; 'I' for Inactive)
REMARK    1  A    between atoms: N_2  and  C_5
REMARK    2  A    between atoms: N_4  and  C_11
REMARK    3  A    between atoms: C_5  and  C_6
REMARK    4  A    between atoms: C_5  and  C_7
REMARK    5  A    between atoms: C_5  and  C_8
REMARK    6  A    between atoms: C_9  and  C_10
REMARK                            x       y       z     vdW  Elec       q    Type
REMARK                         _______ _______ _______ _____ _____    ______ ____
ROOT
ATOM      1  N   UNL     1     -20.955  40.292  -8.623  0.00  0.00    +0.000 NA
ATOM      2  C   UNL     1     -18.885  41.331  -9.315  0.00  0.00    +0.000 A 
ATOM      3  C   UNL     1     -19.937  40.448  -9.499  0.00  0.00    +0.000 A 
ATOM      4  C   UNL     1     -18.877  42.102  -8.158  0.00  0.00    +0.000 A 
ATOM      5  C   UNL     1     -19.908  41.970  -7.234  0.00  0.00    +0.000 A 
ATOM      6  C   UNL     1     -20.915  41.059  -7.511  0.00  0.00    +0.000 A 
ENDROOT
BRANCH   2   9
ATOM      7  O   UNL     1     -17.095  40.506 -10.583  0.00  0.00    +0.000 OA
ATOM      8  N   UNL     1     -17.632  42.746 -10.838  0.00  0.00    +0.000 N 
ATOM      9  C   UNL     1     -17.781  41.483 -10.297  0.00  0.00    +0.000 C 
ATOM     10  H   UNL     1     -18.254  43.492 -10.536  0.00  0.00    +0.000 HD
BRANCH   8  11
ATOM     11  C   UNL     1     -16.616  43.048 -11.829  0.00  0.00    +0.000 C 
ATOM     12  C   UNL     1     -15.241  42.647 -11.285  0.00  0.00    +0.000 C 
ATOM     13  C   UNL     1     -16.637  44.551 -12.126  0.00  0.00    +0.000 C 
ATOM     14  C   UNL     1     -16.910  42.262 -13.112  0.00  0.00    +0.000 C 
ENDBRANCH   8  11
ENDBRANCH   2   9
BRANCH   3  15
ATOM     15  N   UNL     1     -19.953  39.660 -10.676  0.00  0.00    +0.000 N 
ATOM     16  H   UNL     1     -20.123  40.118 -11.564  0.00  0.00    +0.000 HD
ATOM     17  H   UNL     1     -20.263  38.702 -10.575  0.00  0.00    +0.000 HD
ENDBRANCH   3  15
TORSDOF 3
ENDMDL
MODEL 2
REMARK VINA RESULT:    -5.755      2.147      3.495
REMARK INTER + INTRA:          -6.508
REMARK INTER:                  -6.712
REMARK INTRA:                   0.204
REMARK UNBOUND:                 0.088
REMARK  Name = 59768561
REMARK  6 active torsions:
REMARK  status: ('A' for Active; 'I' for Inactive)
REMARK    1  A    between atoms: N_2  and  C_5
REMARK    2  A    between atoms: N_4  and  C_11
REMARK    3  A    between atoms: C_5  and  C_6
REMARK    4  A    between atoms: C_5  and  C_7
REMARK    5  A    between atoms: C_5  and  C_8
REMARK    6  A    between atoms: C_9  and  C_10
REMARK                            x       y       z     vdW  Elec       q    Type
REMARK                         _______ _______ _______ _____ _____    ______ ____
ROOT
ATOM      1  N   UNL     1     -21.478  42.539  -6.300  0.00  0.00    +0.000 NA
ATOM      2  C   UNL     1     -20.734  41.155  -8.137  0.00  0.00    +0.000 A 
ATOM      3  C   UNL     1     -20.535  42.140  -7.183  0.00  0.00    +0.000 A 
ATOM      4  C   UNL     1     -21.980  40.540  -8.187  0.00  0.00    +0.000 A 
ATOM      5  C   UNL     1     -22.975  40.923  -7.294  0.00  0.00    +0.000 A 
ATOM      6  C   UNL     1     -22.676  41.919  -6.378  0.00  0.00    +0.000 A 
ENDROOT
BRANCH   2   9
ATOM      7  O   UNL     1     -18.655  40.209  -8.662  0.00  0.00    +0.000 OA
ATOM      8  N   UNL     1     -19.954  40.964 -10.427  0.00  0.00    +0.000 N 
ATOM      9  C   UNL     1     -19.677  40.736  -9.092  0.00  0.00    +0.000 C 
ATOM     10  H   UNL     1     -20.832  41.407 -10.683  0.00  0.00    +0.000 HD
BRANCH   8  11
ATOM     11  C   UNL     1     -19.032  40.588 -11.483  0.00  0.00    +0.000 C 
ATOM     12  C   UNL     1     -19.372  41.371 -12.757  0.00  0.00    +0.000 C 
ATOM     13  C   UNL     1     -19.162  39.085 -11.750  0.00  0.00    +0.000 C 
ATOM     14  C   UNL     1     -17.599  40.916 -11.046  0.00  0.00    +0.000 C 
ENDBRANCH   8  11
ENDBRANCH   2   9
BRANCH   3  15
ATOM     15  N   UNL     1     -19.268  42.771  -7.125  0.00  0.00    +0.000 N 
ATOM     16  H   UNL     1     -18.553  42.368  -6.531  0.00  0.00    +0.000 HD
ATOM     17  H   UNL     1     -19.255  43.775  -7.260  0.00  0.00    +0.000 HD
ENDBRANCH   3  15
TORSDOF 3
ENDMDL
MODEL 3
REMARK VINA RESULT:    -5.346      1.501      2.218
REMARK INTER + INTRA:          -6.039
REMARK INTER:                  -6.193
REMARK INTRA:                   0.154
REMARK UNBOUND:                 0.088
REMARK  Name = 59768561
REMARK  6 active torsions:
REMARK  status: ('A' for Active; 'I' for Inactive)
REMARK    1  A    between atoms: N_2  and  C_5
REMARK    2  A    between atoms: N_4  and  C_11
REMARK    3  A    between atoms: C_5  and  C_6
REMARK    4  A    between atoms: C_5  and  C_7
REMARK    5  A    between atoms: C_5  and  C_8
REMARK    6  A    between atoms: C_9  and  C_10
REMARK                            x       y       z     vdW  Elec       q    Type
REMARK                         _______ _______ _______ _____ _____    ______ ____
ROOT
ATOM      1  N   UNL     1     -19.979  39.746 -10.058  0.00  0.00    +0.000 NA
ATOM      2  C   UNL     1     -18.451  41.492 -10.737  0.00  0.00    +0.000 A 
ATOM      3  C   UNL     1     -19.344  40.468 -11.009  0.00  0.00    +0.000 A 
ATOM      4  C   UNL     1     -18.193  41.794  -9.404  0.00  0.00    +0.000 A 
ATOM      5  C   UNL     1     -18.828  41.074  -8.399  0.00  0.00    +0.000 A 
ATOM      6  C   UNL     1     -19.705  40.068  -8.775  0.00  0.00    +0.000 A 
ENDROOT
BRANCH   2   9
ATOM      7  O   UNL     1     -17.301  41.677 -12.771  0.00  0.00    +0.000 OA
ATOM      8  N   UNL     1     -17.742  43.639 -11.619  0.00  0.00    +0.000 N 
ATOM      9  C   UNL     1     -17.770  42.270 -11.804  0.00  0.00    +0.000 C 
ATOM     10  H   UNL     1     -18.161  44.036 -10.782  0.00  0.00    +0.000 HD
BRANCH   8  11
ATOM     11  C   UNL     1     -17.136  44.538 -12.585  0.00  0.00    +0.000 C 
ATOM     12  C   UNL     1     -17.984  44.557 -13.861  0.00  0.00    +0.000 C 
ATOM     13  C   UNL     1     -15.723  44.043 -12.910  0.00  0.00    +0.000 C 
ATOM     14  C   UNL     1     -17.069  45.949 -11.991  0.00  0.00    +0.000 C 
ENDBRANCH   8  11
ENDBRANCH   2   9
BRANCH   3  15
ATOM     15  N   UNL     1     -19.612  40.155 -12.364  0.00  0.00    +0.000 N 
ATOM     16  H   UNL     1     -19.523  39.192 -12.667  0.00  0.00    +0.000 HD
ATOM     17  H   UNL     1     -19.417  40.880 -13.044  0.00  0.00    +0.000 HD
ENDBRANCH   3  15
TORSDOF 3
ENDMDL
MODEL 4
REMARK VINA RESULT:    -5.218      1.910      5.188
REMARK INTER + INTRA:          -5.892
REMARK INTER:                  -6.042
REMARK INTRA:                   0.150
REMARK UNBOUND:                 0.088
REMARK  Name = 59768561
REMARK  6 active torsions:
REMARK  status: ('A' for Active; 'I' for Inactive)
REMARK    1  A    between atoms: N_2  and  C_5
REMARK    2  A    between atoms: N_4  and  C_11
REMARK    3  A    between atoms: C_5  and  C_6
REMARK    4  A    between atoms: C_5  and  C_7
REMARK    5  A    between atoms: C_5  and  C_8
REMARK    6  A    between atoms: C_9  and  C_10
REMARK                            x       y       z     vdW  Elec       q    Type
REMARK                         _______ _______ _______ _____ _____    ______ ____
ROOT
ATOM      1  N   UNL     1     -18.203  40.758 -11.669  0.00  0.00    +0.000 NA
ATOM      2  C   UNL     1     -18.988  41.345  -9.459  0.00  0.00    +0.000 A 
ATOM      3  C   UNL     1     -19.002  40.554 -10.597  0.00  0.00    +0.000 A 
ATOM      4  C   UNL     1     -18.097  42.412  -9.419  0.00  0.00    +0.000 A 
ATOM      5  C   UNL     1     -17.260  42.652 -10.502  0.00  0.00    +0.000 A 
ATOM      6  C   UNL     1     -17.351  41.803 -11.594  0.00  0.00    +0.000 A 
ENDROOT
BRANCH   2   9
ATOM      7  O   UNL     1     -19.733  40.064  -7.643  0.00  0.00    +0.000 OA
ATOM      8  N   UNL     1     -20.802  42.085  -8.025  0.00  0.00    +0.000 N 
ATOM      9  C   UNL     1     -19.876  41.094  -8.295  0.00  0.00    +0.000 C 
ATOM     10  H   UNL     1     -20.841  42.904  -8.626  0.00  0.00    +0.000 HD
BRANCH   8  11
ATOM     11  C   UNL     1     -21.723  41.998  -6.908  0.00  0.00    +0.000 C 
ATOM     12  C   UNL     1     -22.827  40.987  -7.237  0.00  0.00    +0.000 C 
ATOM     13  C   UNL     1     -22.342  43.378  -6.661  0.00  0.00    +0.000 C 
ATOM     14  C   UNL     1     -20.963  41.540  -5.658  0.00  0.00    +0.000 C 
ENDBRANCH   8  11
ENDBRANCH   2   9
BRANCH   3  15
ATOM     15  N   UNL     1     -19.905  39.464 -10.645  0.00  0.00    +0.000 N 
ATOM     16  H   UNL     1     -20.515  39.304  -9.852  0.00  0.00    +0.000 HD
ATOM     17  H   UNL     1     -19.612  38.656 -11.181  0.00  0.00    +0.000 HD
ENDBRANCH   3  15
TORSDOF 3
ENDMDL
MODEL 5
REMARK VINA RESULT:    -5.152      1.633      4.938
REMARK INTER + INTRA:          -5.817
REMARK INTER:                  -5.949
REMARK INTRA:                   0.132
REMARK UNBOUND:                 0.088
REMARK  Name = 59768561
REMARK  6 active torsions:
REMARK  status: ('A' for Active; 'I' for Inactive)
REMARK    1  A    between atoms: N_2  and  C_5
REMARK    2  A    between atoms: N_4  and  C_11
REMARK    3  A    between atoms: C_5  and  C_6
REMARK    4  A    between atoms: C_5  and  C_7
REMARK    5  A    between atoms: C_5  and  C_8
REMARK    6  A    between atoms: C_9  and  C_10
REMARK                            x       y       z     vdW  Elec       q    Type
REMARK                         _______ _______ _______ _____ _____    ______ ____
ROOT
ATOM      1  N   UNL     1     -18.041  42.013 -13.535  0.00  0.00    +0.000 NA
ATOM      2  C   UNL     1     -18.325  41.575 -11.174  0.00  0.00    +0.000 A 
ATOM      3  C   UNL     1     -18.671  41.403 -12.505  0.00  0.00    +0.000 A 
ATOM      4  C   UNL     1     -17.267  42.428 -10.882  0.00  0.00    +0.000 A 
ATOM      5  C   UNL     1     -16.595  43.073 -11.914  0.00  0.00    +0.000 A 
ATOM      6  C   UNL     1     -17.017  42.834 -13.213  0.00  0.00    +0.000 A 
ENDROOT
BRANCH   2   9
ATOM      7  O   UNL     1     -19.242  39.680 -10.143  0.00  0.00    +0.000 OA
ATOM      8  N   UNL     1     -19.391  41.689  -8.996  0.00  0.00    +0.000 N 
ATOM      9  C   UNL     1     -19.034  40.888 -10.065  0.00  0.00    +0.000 C 
ATOM     10  H   UNL     1     -19.173  42.682  -9.026  0.00  0.00    +0.000 HD
BRANCH   8  11
ATOM     11  C   UNL     1     -20.067  41.162  -7.826  0.00  0.00    +0.000 C 
ATOM     12  C   UNL     1     -20.128  42.246  -6.744  0.00  0.00    +0.000 C 
ATOM     13  C   UNL     1     -19.289  39.950  -7.301  0.00  0.00    +0.000 C 
ATOM     14  C   UNL     1     -21.490  40.738  -8.209  0.00  0.00    +0.000 C 
ENDBRANCH   8  11
ENDBRANCH   2   9
BRANCH   3  15
ATOM     15  N   UNL     1     -19.747  40.534 -12.812  0.00  0.00    +0.000 N 
ATOM     16  H   UNL     1     -19.701  39.574 -12.493  0.00  0.00    +0.000 HD
ATOM     17  H   UNL     1     -20.247  40.720 -13.673  0.00  0.00    +0.000 HD
ENDBRANCH   3  15
TORSDOF 3
ENDMDL
