MODEL 1
REMARK VINA RESULT:    -4.776      0.000      0.000
REMARK INTER + INTRA:          -5.145
REMARK INTER:                  -5.055
REMARK INTRA:                  -0.090
REMARK UNBOUND:                -0.090
REMARK  Name = 59970224
REMARK  2 active torsions:
REMARK  status: ('A' for Active; 'I' for Inactive)
REMARK    1  A    between atoms: N_3  and  C_12
REMARK    2  A    between atoms: C_6  and  C_8
REMARK                            x       y       z     vdW  Elec       q    Type
REMARK                         _______ _______ _______ _____ _____    ______ ____
ROOT
ATOM      1  I   UNL     1     -15.488  43.794 -12.442  0.00  0.00    +0.000 I 
ATOM      2  N   UNL     1     -19.512  41.049 -12.821  0.00  0.00    +0.000 NA
ATOM      3  N   UNL     1     -18.327  39.257 -11.793  0.00  0.00    +0.000 N 
ATOM      4  C   UNL     1     -18.392  43.159 -13.191  0.00  0.00    +0.000 A 
ATOM      5  C   UNL     1     -17.229  42.651 -12.622  0.00  0.00    +0.000 A 
ATOM      6  C   UNL     1     -19.496  42.325 -13.266  0.00  0.00    +0.000 A 
ATOM      7  C   UNL     1     -17.206  41.342 -12.153  0.00  0.00    +0.000 A 
ATOM      8  C   UNL     1     -18.364  40.589 -12.275  0.00  0.00    +0.000 A 
ATOM      9  H   UNL     1     -17.438  38.771 -11.790  0.00  0.00    +0.000 HD
ATOM     10  H   UNL     1     -19.172  38.710 -11.890  0.00  0.00    +0.000 HD
ENDROOT
BRANCH   4  13
ATOM     11  O   UNL     1     -18.750  45.464 -12.942  0.00  0.00    +0.000 OA
ATOM     12  N   UNL     1     -18.317  44.688 -15.084  0.00  0.00    +0.000 N 
ATOM     13  C   UNL     1     -18.510  44.515 -13.709  0.00  0.00    +0.000 C 
ATOM     14  C   UNL     1     -18.379  45.972 -15.744  0.00  0.00    +0.000 C 
ATOM     15  H   UNL     1     -18.151  43.870 -15.663  0.00  0.00    +0.000 HD
ENDBRANCH   4  13
TORSDOF 1
ENDMDL
MODEL 2
REMARK VINA RESULT:    -4.697      2.685      2.967
REMARK INTER + INTRA:          -5.062
REMARK INTER:                  -4.972
REMARK INTRA:                  -0.090
REMARK UNBOUND:                -0.090
REMARK  Name = 59970224
REMARK  2 active torsions:
REMARK  status: ('A' for Active; 'I' for Inactive)
REMARK    1  A    between atoms: N_3  and  C_12
REMARK    2  A    between atoms: C_6  and  C_8
REMARK                            x       y       z     vdW  Elec       q    Type
REMARK                         _______ _______ _______ _____ _____    ______ ____
ROOT
ATOM      1  I   UNL     1     -19.218  43.332 -14.180  0.00  0.00    +0.000 I 
ATOM      2  N   UNL     1     -18.056  40.164 -10.646  0.00  0.00    +0.000 NA
ATOM      3  N   UNL     1     -19.625  38.631 -11.574  0.00  0.00    +0.000 N 
ATOM      4  C   UNL     1     -17.745  42.324 -11.687  0.00  0.00    +0.000 A 
ATOM      5  C   UNL     1     -18.694  42.004 -12.652  0.00  0.00    +0.000 A 
ATOM      6  C   UNL     1     -17.464  41.378 -10.715  0.00  0.00    +0.000 A 
ATOM      7  C   UNL     1     -19.325  40.765 -12.615  0.00  0.00    +0.000 A 
ATOM      8  C   UNL     1     -18.973  39.889 -11.600  0.00  0.00    +0.000 A 
ATOM      9  H   UNL     1     -20.558  38.563 -11.963  0.00  0.00    +0.000 HD
ATOM     10  H   UNL     1     -19.369  37.997 -10.828  0.00  0.00    +0.000 HD
ENDROOT
BRANCH   4  13
ATOM     11  O   UNL     1     -17.558  44.593 -11.123  0.00  0.00    +0.000 OA
ATOM     12  N   UNL     1     -15.745  43.617 -12.191  0.00  0.00    +0.000 N 
ATOM     13  C   UNL     1     -17.033  43.594 -11.646  0.00  0.00    +0.000 C 
ATOM     14  C   UNL     1     -14.905  44.792 -12.204  0.00  0.00    +0.000 C 
ATOM     15  H   UNL     1     -15.382  42.775 -12.628  0.00  0.00    +0.000 HD
ENDBRANCH   4  13
TORSDOF 1
ENDMDL
MODEL 3
REMARK VINA RESULT:    -4.502      2.928      3.267
REMARK INTER + INTRA:          -4.855
REMARK INTER:                  -4.753
REMARK INTRA:                  -0.101
REMARK UNBOUND:                -0.090
REMARK  Name = 59970224
REMARK  2 active torsions:
REMARK  status: ('A' for Active; 'I' for Inactive)
REMARK    1  A    between atoms: N_3  and  C_12
REMARK    2  A    between atoms: C_6  and  C_8
REMARK                            x       y       z     vdW  Elec       q    Type
REMARK                         _______ _______ _______ _____ _____    ______ ____
ROOT
ATOM      1  I   UNL     1     -18.361  45.873 -15.302  0.00  0.00    +0.000 I 
ATOM      2  N   UNL     1     -18.791  42.005 -12.347  0.00  0.00    +0.000 NA
ATOM      3  N   UNL     1     -17.247  43.037 -10.854  0.00  0.00    +0.000 N 
ATOM      4  C   UNL     1     -19.404  43.137 -14.394  0.00  0.00    +0.000 A 
ATOM      5  C   UNL     1     -18.571  44.201 -14.064  0.00  0.00    +0.000 A 
ATOM      6  C   UNL     1     -19.477  42.073 -13.509  0.00  0.00    +0.000 A 
ATOM      7  C   UNL     1     -17.847  44.168 -12.877  0.00  0.00    +0.000 A 
ATOM      8  C   UNL     1     -17.991  43.057 -12.060  0.00  0.00    +0.000 A 
ATOM      9  H   UNL     1     -16.373  43.547 -10.819  0.00  0.00    +0.000 HD
ATOM     10  H   UNL     1     -17.351  42.221 -10.265  0.00  0.00    +0.000 HD
ENDROOT
BRANCH   4  13
ATOM     11  O   UNL     1     -19.754  42.522 -16.629  0.00  0.00    +0.000 OA
ATOM     12  N   UNL     1     -21.472  43.660 -15.565  0.00  0.00    +0.000 N 
ATOM     13  C   UNL     1     -20.199  43.082 -15.612  0.00  0.00    +0.000 C 
ATOM     14  C   UNL     1     -22.388  43.666 -16.682  0.00  0.00    +0.000 C 
ATOM     15  H   UNL     1     -21.768  44.127 -14.713  0.00  0.00    +0.000 HD
ENDBRANCH   4  13
TORSDOF 1
ENDMDL
MODEL 4
REMARK VINA RESULT:    -4.414      5.638      6.338
REMARK INTER + INTRA:          -4.761
REMARK INTER:                  -4.658
REMARK INTRA:                  -0.104
REMARK UNBOUND:                -0.090
REMARK  Name = 59970224
REMARK  2 active torsions:
REMARK  status: ('A' for Active; 'I' for Inactive)
REMARK    1  A    between atoms: N_3  and  C_12
REMARK    2  A    between atoms: C_6  and  C_8
REMARK                            x       y       z     vdW  Elec       q    Type
REMARK                         _______ _______ _______ _____ _____    ______ ____
ROOT
ATOM      1  I   UNL     1     -20.776  46.714 -19.689  0.00  0.00    +0.000 I 
ATOM      2  N   UNL     1     -20.775  42.974 -16.545  0.00  0.00    +0.000 NA
ATOM      3  N   UNL     1     -22.949  43.637 -15.833  0.00  0.00    +0.000 N 
ATOM      4  C   UNL     1     -19.649  44.242 -18.268  0.00  0.00    +0.000 A 
ATOM      5  C   UNL     1     -20.738  45.103 -18.357  0.00  0.00    +0.000 A 
ATOM      6  C   UNL     1     -19.717  43.202 -17.354  0.00  0.00    +0.000 A 
ATOM      7  C   UNL     1     -21.845  44.901 -17.540  0.00  0.00    +0.000 A 
ATOM      8  C   UNL     1     -21.815  43.831 -16.659  0.00  0.00    +0.000 A 
ATOM      9  H   UNL     1     -23.509  44.445 -15.586  0.00  0.00    +0.000 HD
ATOM     10  H   UNL     1     -22.919  42.859 -15.187  0.00  0.00    +0.000 HD
ENDROOT
BRANCH   4  13
ATOM     11  O   UNL     1     -18.391  43.855 -20.208  0.00  0.00    +0.000 OA
ATOM     12  N   UNL     1     -17.397  45.124 -18.541  0.00  0.00    +0.000 N 
ATOM     13  C   UNL     1     -18.448  44.374 -19.080  0.00  0.00    +0.000 C 
ATOM     14  C   UNL     1     -16.152  45.366 -19.233  0.00  0.00    +0.000 C 
ATOM     15  H   UNL     1     -17.494  45.501 -17.603  0.00  0.00    +0.000 HD
ENDBRANCH   4  13
TORSDOF 1
ENDMDL
MODEL 5
REMARK VINA RESULT:    -4.186      2.479      3.734
REMARK INTER + INTRA:          -4.521
REMARK INTER:                  -4.614
REMARK INTRA:                   0.094
REMARK UNBOUND:                -0.090
REMARK  Name = 59970224
REMARK  2 active torsions:
REMARK  status: ('A' for Active; 'I' for Inactive)
REMARK    1  A    between atoms: N_3  and  C_12
REMARK    2  A    between atoms: C_6  and  C_8
REMARK                            x       y       z     vdW  Elec       q    Type
REMARK                         _______ _______ _______ _____ _____    ______ ____
ROOT
ATOM      1  I   UNL     1     -16.861  46.200 -13.550  0.00  0.00    +0.000 I 
ATOM      2  N   UNL     1     -19.232  41.947 -13.945  0.00  0.00    +0.000 NA
ATOM      3  N   UNL     1     -20.771  42.999 -15.428  0.00  0.00    +0.000 N 
ATOM      4  C   UNL     1     -17.414  43.235 -13.007  0.00  0.00    +0.000 A 
ATOM      5  C   UNL     1     -17.848  44.363 -13.693  0.00  0.00    +0.000 A 
ATOM      6  C   UNL     1     -18.134  42.061 -13.165  0.00  0.00    +0.000 A 
ATOM      7  C   UNL     1     -18.975  44.285 -14.506  0.00  0.00    +0.000 A 
ATOM      8  C   UNL     1     -19.625  43.064 -14.597  0.00  0.00    +0.000 A 
ATOM      9  H   UNL     1     -21.315  43.843 -15.564  0.00  0.00    +0.000 HD
ATOM     10  H   UNL     1     -21.245  42.107 -15.486  0.00  0.00    +0.000 HD
ENDROOT
BRANCH   4  13
ATOM     11  O   UNL     1     -16.381  43.073 -10.907  0.00  0.00    +0.000 OA
ATOM     12  N   UNL     1     -14.997  43.352 -12.747  0.00  0.00    +0.000 N 
ATOM     13  C   UNL     1     -16.248  43.220 -12.135  0.00  0.00    +0.000 C 
ATOM     14  C   UNL     1     -13.747  43.333 -12.022  0.00  0.00    +0.000 C 
ATOM     15  H   UNL     1     -14.955  43.497 -13.752  0.00  0.00    +0.000 HD
ENDBRANCH   4  13
TORSDOF 1
ENDMDL
