MODEL 1
REMARK VINA RESULT:    -7.454      0.000      0.000
REMARK INTER + INTRA:          -9.839
REMARK INTER:                  -9.198
REMARK INTRA:                  -0.641
REMARK UNBOUND:                -0.641
REMARK  Name = 602287
REMARK  4 active torsions:
REMARK  status: ('A' for Active; 'I' for Inactive)
REMARK    1  A    between atoms: N_2  and  C_5
REMARK    2  A    between atoms: N_2  and  C_7
REMARK    3  A    between atoms: C_5  and  C_6
REMARK    4  A    between atoms: C_8  and  C_16
REMARK                            x       y       z     vdW  Elec       q    Type
REMARK                         _______ _______ _______ _____ _____    ______ ____
ROOT
ATOM      1  N   UNL     1     -19.225  39.801 -10.833  0.00  0.00    +0.000 NA
ATOM      2  C   UNL     1     -18.477  40.905 -10.539  0.00  0.00    +0.000 A 
ATOM      3  C   UNL     1     -17.639  41.503 -11.487  0.00  0.00    +0.000 A 
ATOM      4  C   UNL     1     -17.564  40.955 -12.763  0.00  0.00    +0.000 A 
ATOM      5  C   UNL     1     -18.319  39.830 -13.075  0.00  0.00    +0.000 A 
ATOM      6  C   UNL     1     -19.127  39.295 -12.083  0.00  0.00    +0.000 A 
ENDROOT
BRANCH   3   9
ATOM      7  O   UNL     1     -17.376  43.786 -10.974  0.00  0.00    +0.000 OA
ATOM      8  N   UNL     1     -15.464  42.524 -11.078  0.00  0.00    +0.000 N 
ATOM      9  C   UNL     1     -16.842  42.682 -11.171  0.00  0.00    +0.000 C 
ATOM     10  H   UNL     1     -15.013  41.627 -11.228  0.00  0.00    +0.000 HD
ATOM     11  H   UNL     1     -14.864  43.310 -10.853  0.00  0.00    +0.000 HD
ENDBRANCH   3   9
BRANCH   2  12
ATOM     12  N   UNL     1     -18.557  41.448  -9.264  0.00  0.00    +0.000 N 
ATOM     13  H   UNL     1     -18.057  42.317  -9.107  0.00  0.00    +0.000 HD
BRANCH  12  14
ATOM     14  C   UNL     1     -18.940  40.698  -8.097  0.00  0.00    +0.000 C 
BRANCH  14  15
ATOM     15  C   UNL     1     -20.247  41.148  -7.537  0.00  0.00    +0.000 A 
ATOM     16  C   UNL     1     -20.278  42.032  -6.458  0.00  0.00    +0.000 A 
ATOM     17  C   UNL     1     -21.440  40.685  -8.094  0.00  0.00    +0.000 A 
ATOM     18  C   UNL     1     -21.501  42.452  -5.936  0.00  0.00    +0.000 A 
ATOM     19  C   UNL     1     -22.663  41.106  -7.570  0.00  0.00    +0.000 A 
ATOM     20  C   UNL     1     -22.693  41.990  -6.491  0.00  0.00    +0.000 A 
ENDBRANCH  14  15
ENDBRANCH  12  14
ENDBRANCH   2  12
TORSDOF 4
ENDMDL
MODEL 2
REMARK VINA RESULT:    -7.181      1.910      2.961
REMARK INTER + INTRA:          -9.502
REMARK INTER:                  -9.245
REMARK INTRA:                  -0.257
REMARK UNBOUND:                -0.641
REMARK  Name = 602287
REMARK  4 active torsions:
REMARK  status: ('A' for Active; 'I' for Inactive)
REMARK    1  A    between atoms: N_2  and  C_5
REMARK    2  A    between atoms: N_2  and  C_7
REMARK    3  A    between atoms: C_5  and  C_6
REMARK    4  A    between atoms: C_8  and  C_16
REMARK                            x       y       z     vdW  Elec       q    Type
REMARK                         _______ _______ _______ _____ _____    ______ ____
ROOT
ATOM      1  N   UNL     1     -17.671  43.213 -10.533  0.00  0.00    +0.000 NA
ATOM      2  C   UNL     1     -17.704  41.934 -11.010  0.00  0.00    +0.000 A 
ATOM      3  C   UNL     1     -17.727  41.659 -12.383  0.00  0.00    +0.000 A 
ATOM      4  C   UNL     1     -17.720  42.718 -13.283  0.00  0.00    +0.000 A 
ATOM      5  C   UNL     1     -17.687  44.025 -12.809  0.00  0.00    +0.000 A 
ATOM      6  C   UNL     1     -17.664  44.218 -11.437  0.00  0.00    +0.000 A 
ENDROOT
BRANCH   3   9
ATOM      7  O   UNL     1     -18.839  39.703 -13.078  0.00  0.00    +0.000 OA
ATOM      8  N   UNL     1     -16.548  39.679 -13.173  0.00  0.00    +0.000 N 
ATOM      9  C   UNL     1     -17.762  40.293 -12.889  0.00  0.00    +0.000 C 
ATOM     10  H   UNL     1     -15.659  40.150 -13.032  0.00  0.00    +0.000 HD
ATOM     11  H   UNL     1     -16.515  38.732 -13.534  0.00  0.00    +0.000 HD
ENDBRANCH   3   9
BRANCH   2  12
ATOM     12  N   UNL     1     -17.711  40.881 -10.106  0.00  0.00    +0.000 N 
ATOM     13  H   UNL     1     -16.814  40.459  -9.890  0.00  0.00    +0.000 HD
BRANCH  12  14
ATOM     14  C   UNL     1     -18.885  40.115  -9.779  0.00  0.00    +0.000 C 
BRANCH  14  15
ATOM     15  C   UNL     1     -19.706  40.763  -8.715  0.00  0.00    +0.000 A 
ATOM     16  C   UNL     1     -21.079  40.522  -8.648  0.00  0.00    +0.000 A 
ATOM     17  C   UNL     1     -19.101  41.611  -7.787  0.00  0.00    +0.000 A 
ATOM     18  C   UNL     1     -21.846  41.129  -7.653  0.00  0.00    +0.000 A 
ATOM     19  C   UNL     1     -19.869  42.217  -6.792  0.00  0.00    +0.000 A 
ATOM     20  C   UNL     1     -21.241  41.976  -6.725  0.00  0.00    +0.000 A 
ENDBRANCH  14  15
ENDBRANCH  12  14
ENDBRANCH   2  12
TORSDOF 4
ENDMDL
MODEL 3
REMARK VINA RESULT:    -6.787      2.157      5.468
REMARK INTER + INTRA:          -9.015
REMARK INTER:                  -8.258
REMARK INTRA:                  -0.757
REMARK UNBOUND:                -0.641
REMARK  Name = 602287
REMARK  4 active torsions:
REMARK  status: ('A' for Active; 'I' for Inactive)
REMARK    1  A    between atoms: N_2  and  C_5
REMARK    2  A    between atoms: N_2  and  C_7
REMARK    3  A    between atoms: C_5  and  C_6
REMARK    4  A    between atoms: C_8  and  C_16
REMARK                            x       y       z     vdW  Elec       q    Type
REMARK                         _______ _______ _______ _____ _____    ______ ____
ROOT
ATOM      1  N   UNL     1     -18.519  42.213  -8.328  0.00  0.00    +0.000 NA
ATOM      2  C   UNL     1     -18.240  41.475  -9.443  0.00  0.00    +0.000 A 
ATOM      3  C   UNL     1     -19.070  40.429  -9.863  0.00  0.00    +0.000 A 
ATOM      4  C   UNL     1     -20.207  40.131  -9.121  0.00  0.00    +0.000 A 
ATOM      5  C   UNL     1     -20.502  40.874  -7.983  0.00  0.00    +0.000 A 
ATOM      6  C   UNL     1     -19.633  41.896  -7.632  0.00  0.00    +0.000 A 
ENDROOT
BRANCH   3   9
ATOM      7  O   UNL     1     -17.616  39.253 -11.294  0.00  0.00    +0.000 OA
ATOM      8  N   UNL     1     -19.825  39.329 -11.902  0.00  0.00    +0.000 N 
ATOM      9  C   UNL     1     -18.770  39.643 -11.053  0.00  0.00    +0.000 C 
ATOM     10  H   UNL     1     -20.776  39.633 -11.715  0.00  0.00    +0.000 HD
ATOM     11  H   UNL     1     -19.673  38.780 -12.740  0.00  0.00    +0.000 HD
ENDBRANCH   3   9
BRANCH   2  12
ATOM     12  N   UNL     1     -17.103  41.777 -10.180  0.00  0.00    +0.000 N 
ATOM     13  H   UNL     1     -16.341  41.108 -10.138  0.00  0.00    +0.000 HD
BRANCH  12  14
ATOM     14  C   UNL     1     -16.781  43.100 -10.650  0.00  0.00    +0.000 C 
BRANCH  14  15
ATOM     15  C   UNL     1     -17.522  43.454 -11.895  0.00  0.00    +0.000 A 
ATOM     16  C   UNL     1     -17.939  44.769 -12.110  0.00  0.00    +0.000 A 
ATOM     17  C   UNL     1     -17.798  42.471 -12.846  0.00  0.00    +0.000 A 
ATOM     18  C   UNL     1     -18.632  45.099 -13.274  0.00  0.00    +0.000 A 
ATOM     19  C   UNL     1     -18.491  42.802 -14.011  0.00  0.00    +0.000 A 
ATOM     20  C   UNL     1     -18.907  44.117 -14.225  0.00  0.00    +0.000 A 
ENDBRANCH  14  15
ENDBRANCH  12  14
ENDBRANCH   2  12
TORSDOF 4
ENDMDL
MODEL 4
REMARK VINA RESULT:    -6.720      1.957      2.308
REMARK INTER + INTRA:          -8.933
REMARK INTER:                  -8.266
REMARK INTRA:                  -0.667
REMARK UNBOUND:                -0.641
REMARK  Name = 602287
REMARK  4 active torsions:
REMARK  status: ('A' for Active; 'I' for Inactive)
REMARK    1  A    between atoms: N_2  and  C_5
REMARK    2  A    between atoms: N_2  and  C_7
REMARK    3  A    between atoms: C_5  and  C_6
REMARK    4  A    between atoms: C_8  and  C_16
REMARK                            x       y       z     vdW  Elec       q    Type
REMARK                         _______ _______ _______ _____ _____    ______ ____
ROOT
ATOM      1  N   UNL     1     -17.562  40.270 -10.529  0.00  0.00    +0.000 NA
ATOM      2  C   UNL     1     -18.578  40.910 -11.180  0.00  0.00    +0.000 A 
ATOM      3  C   UNL     1     -18.359  41.631 -12.360  0.00  0.00    +0.000 A 
ATOM      4  C   UNL     1     -17.072  41.697 -12.881  0.00  0.00    +0.000 A 
ATOM      5  C   UNL     1     -16.030  41.050 -12.228  0.00  0.00    +0.000 A 
ATOM      6  C   UNL     1     -16.324  40.356 -11.065  0.00  0.00    +0.000 A 
ENDROOT
BRANCH   3   9
ATOM      7  O   UNL     1     -20.406  41.683 -13.523  0.00  0.00    +0.000 OA
ATOM      8  N   UNL     1     -19.377  43.698 -13.152  0.00  0.00    +0.000 N 
ATOM      9  C   UNL     1     -19.445  42.313 -13.053  0.00  0.00    +0.000 C 
ATOM     10  H   UNL     1     -18.603  44.229 -12.766  0.00  0.00    +0.000 HD
ATOM     11  H   UNL     1     -20.109  44.223 -13.618  0.00  0.00    +0.000 HD
ENDBRANCH   3   9
BRANCH   2  12
ATOM     12  N   UNL     1     -19.860  40.840 -10.654  0.00  0.00    +0.000 N 
ATOM     13  H   UNL     1     -20.487  41.607 -10.876  0.00  0.00    +0.000 HD
BRANCH  12  14
ATOM     14  C   UNL     1     -20.224  40.006  -9.538  0.00  0.00    +0.000 C 
BRANCH  14  15
ATOM     15  C   UNL     1     -20.667  40.801  -8.357  0.00  0.00    +0.000 A 
ATOM     16  C   UNL     1     -19.736  41.528  -7.614  0.00  0.00    +0.000 A 
ATOM     17  C   UNL     1     -22.014  40.818  -7.994  0.00  0.00    +0.000 A 
ATOM     18  C   UNL     1     -20.152  42.270  -6.510  0.00  0.00    +0.000 A 
ATOM     19  C   UNL     1     -22.429  41.561  -6.889  0.00  0.00    +0.000 A 
ATOM     20  C   UNL     1     -21.498  42.288  -6.147  0.00  0.00    +0.000 A 
ENDBRANCH  14  15
ENDBRANCH  12  14
ENDBRANCH   2  12
TORSDOF 4
ENDMDL
MODEL 5
REMARK VINA RESULT:    -6.251      2.468      5.952
REMARK INTER + INTRA:          -8.354
REMARK INTER:                  -7.720
REMARK INTRA:                  -0.634
REMARK UNBOUND:                -0.641
REMARK  Name = 602287
REMARK  4 active torsions:
REMARK  status: ('A' for Active; 'I' for Inactive)
REMARK    1  A    between atoms: N_2  and  C_5
REMARK    2  A    between atoms: N_2  and  C_7
REMARK    3  A    between atoms: C_5  and  C_6
REMARK    4  A    between atoms: C_8  and  C_16
REMARK                            x       y       z     vdW  Elec       q    Type
REMARK                         _______ _______ _______ _____ _____    ______ ____
ROOT
ATOM      1  N   UNL     1     -18.181  42.569  -8.912  0.00  0.00    +0.000 NA
ATOM      2  C   UNL     1     -18.039  41.754  -9.998  0.00  0.00    +0.000 A 
ATOM      3  C   UNL     1     -18.695  40.520 -10.085  0.00  0.00    +0.000 A 
ATOM      4  C   UNL     1     -19.510  40.114  -9.035  0.00  0.00    +0.000 A 
ATOM      5  C   UNL     1     -19.662  40.935  -7.923  0.00  0.00    +0.000 A 
ATOM      6  C   UNL     1     -18.982  42.143  -7.910  0.00  0.00    +0.000 A 
ENDROOT
BRANCH   3   9
ATOM      7  O   UNL     1     -17.420  39.383 -11.705  0.00  0.00    +0.000 OA
ATOM      8  N   UNL     1     -19.695  39.117 -11.808  0.00  0.00    +0.000 N 
ATOM      9  C   UNL     1     -18.542  39.651 -11.245  0.00  0.00    +0.000 C 
ATOM     10  H   UNL     1     -20.619  39.320 -11.439  0.00  0.00    +0.000 HD
ATOM     11  H   UNL     1     -19.645  38.502 -12.612  0.00  0.00    +0.000 HD
ENDBRANCH   3   9
BRANCH   2  12
ATOM     12  N   UNL     1     -17.223  42.164 -11.043  0.00  0.00    +0.000 N 
ATOM     13  H   UNL     1     -16.226  42.015 -10.929  0.00  0.00    +0.000 HD
BRANCH  12  14
ATOM     14  C   UNL     1     -17.628  43.110 -12.051  0.00  0.00    +0.000 C 
BRANCH  14  15
ATOM     15  C   UNL     1     -16.944  44.427 -11.901  0.00  0.00    +0.000 A 
ATOM     16  C   UNL     1     -17.680  45.561 -11.554  0.00  0.00    +0.000 A 
ATOM     17  C   UNL     1     -15.568  44.525 -12.107  0.00  0.00    +0.000 A 
ATOM     18  C   UNL     1     -17.040  46.791 -11.413  0.00  0.00    +0.000 A 
ATOM     19  C   UNL     1     -14.928  45.757 -11.967  0.00  0.00    +0.000 A 
ATOM     20  C   UNL     1     -15.665  46.890 -11.619  0.00  0.00    +0.000 A 
ENDBRANCH  14  15
ENDBRANCH  12  14
ENDBRANCH   2  12
TORSDOF 4
ENDMDL
