MODEL 1
REMARK VINA RESULT:    -5.923      0.000      0.000
REMARK INTER + INTRA:          -7.970
REMARK INTER:                  -7.308
REMARK INTRA:                  -0.661
REMARK UNBOUND:                -0.661
REMARK  Name = 60725755
REMARK  4 active torsions:
REMARK  status: ('A' for Active; 'I' for Inactive)
REMARK    1  A    between atoms: N_2  and  C_5
REMARK    2  A    between atoms: N_2  and  C_7
REMARK    3  A    between atoms: C_6  and  C_10
REMARK    4  A    between atoms: C_7  and  C_12
REMARK                            x       y       z     vdW  Elec       q    Type
REMARK                         _______ _______ _______ _____ _____    ______ ____
ROOT
ATOM      1  N   UNL     1     -18.497  42.237  -8.299  0.00  0.00    +0.000 NA
ATOM      2  C   UNL     1     -18.414  41.563  -9.468  0.00  0.00    +0.000 A 
ATOM      3  C   UNL     1     -19.371  40.670  -9.918  0.00  0.00    +0.000 A 
ATOM      4  C   UNL     1     -20.489  40.454  -9.118  0.00  0.00    +0.000 A 
ATOM      5  C   UNL     1     -20.611  41.130  -7.909  0.00  0.00    +0.000 A 
ATOM      6  C   UNL     1     -19.597  42.003  -7.548  0.00  0.00    +0.000 A 
ENDROOT
BRANCH   3   9
ATOM      7  O   UNL     1     -18.483  38.986 -11.306  0.00  0.00    +0.000 OA
ATOM      8  N   UNL     1     -20.041  40.383 -12.243  0.00  0.00    +0.000 N 
ATOM      9  C   UNL     1     -19.251  39.955 -11.182  0.00  0.00    +0.000 C 
ATOM     10  H   UNL     1     -20.680  41.168 -12.158  0.00  0.00    +0.000 HD
ATOM     11  H   UNL     1     -20.002  39.917 -13.144  0.00  0.00    +0.000 HD
ENDBRANCH   3   9
BRANCH   2  12
ATOM     12  N   UNL     1     -17.271  41.785 -10.276  0.00  0.00    +0.000 N 
ATOM     13  H   UNL     1     -16.514  41.117 -10.162  0.00  0.00    +0.000 HD
BRANCH  12  14
ATOM     14  C   UNL     1     -16.953  43.064 -10.824  0.00  0.00    +0.000 C 
BRANCH  14  15
ATOM     15  C   UNL     1     -17.802  43.297 -12.032  0.00  0.00    +0.000 C 
ATOM     16  C   UNL     1     -17.524  42.812 -13.247  0.00  0.00    +0.000 C 
ENDBRANCH  14  15
ENDBRANCH  12  14
ENDBRANCH   2  12
TORSDOF 4
ENDMDL
MODEL 2
REMARK VINA RESULT:    -5.490      2.089      4.411
REMARK INTER + INTRA:          -7.435
REMARK INTER:                  -6.974
REMARK INTRA:                  -0.461
REMARK UNBOUND:                -0.661
REMARK  Name = 60725755
REMARK  4 active torsions:
REMARK  status: ('A' for Active; 'I' for Inactive)
REMARK    1  A    between atoms: N_2  and  C_5
REMARK    2  A    between atoms: N_2  and  C_7
REMARK    3  A    between atoms: C_6  and  C_10
REMARK    4  A    between atoms: C_7  and  C_12
REMARK                            x       y       z     vdW  Elec       q    Type
REMARK                         _______ _______ _______ _____ _____    ______ ____
ROOT
ATOM      1  N   UNL     1     -19.090  39.580 -10.765  0.00  0.00    +0.000 NA
ATOM      2  C   UNL     1     -18.064  40.423 -10.512  0.00  0.00    +0.000 A 
ATOM      3  C   UNL     1     -17.215  40.926 -11.485  0.00  0.00    +0.000 A 
ATOM      4  C   UNL     1     -17.434  40.540 -12.803  0.00  0.00    +0.000 A 
ATOM      5  C   UNL     1     -18.480  39.674 -13.103  0.00  0.00    +0.000 A 
ATOM      6  C   UNL     1     -19.272  39.227 -12.058  0.00  0.00    +0.000 A 
ENDROOT
BRANCH   3   9
ATOM      7  O   UNL     1     -16.311  43.039 -10.970  0.00  0.00    +0.000 OA
ATOM      8  N   UNL     1     -14.835  41.290 -11.114  0.00  0.00    +0.000 N 
ATOM      9  C   UNL     1     -16.114  41.830 -11.180  0.00  0.00    +0.000 C 
ATOM     10  H   UNL     1     -14.656  40.303 -11.275  0.00  0.00    +0.000 HD
ATOM     11  H   UNL     1     -14.033  41.873 -10.899  0.00  0.00    +0.000 HD
ENDBRANCH   3   9
BRANCH   2  12
ATOM     12  N   UNL     1     -17.844  40.810  -9.166  0.00  0.00    +0.000 N 
ATOM     13  H   UNL     1     -17.393  40.116  -8.577  0.00  0.00    +0.000 HD
BRANCH  12  14
ATOM     14  C   UNL     1     -18.605  41.833  -8.527  0.00  0.00    +0.000 C 
BRANCH  14  15
ATOM     15  C   UNL     1     -19.657  41.194  -7.678  0.00  0.00    +0.000 C 
ATOM     16  C   UNL     1     -20.967  41.251  -7.942  0.00  0.00    +0.000 C 
ENDBRANCH  14  15
ENDBRANCH  12  14
ENDBRANCH   2  12
TORSDOF 4
ENDMDL
MODEL 3
REMARK VINA RESULT:    -4.973      1.512      3.899
REMARK INTER + INTRA:          -6.797
REMARK INTER:                  -6.564
REMARK INTRA:                  -0.233
REMARK UNBOUND:                -0.661
REMARK  Name = 60725755
REMARK  4 active torsions:
REMARK  status: ('A' for Active; 'I' for Inactive)
REMARK    1  A    between atoms: N_2  and  C_5
REMARK    2  A    between atoms: N_2  and  C_7
REMARK    3  A    between atoms: C_6  and  C_10
REMARK    4  A    between atoms: C_7  and  C_12
REMARK                            x       y       z     vdW  Elec       q    Type
REMARK                         _______ _______ _______ _____ _____    ______ ____
ROOT
ATOM      1  N   UNL     1     -17.621  43.552 -11.240  0.00  0.00    +0.000 NA
ATOM      2  C   UNL     1     -17.689  42.224 -11.481  0.00  0.00    +0.000 A 
ATOM      3  C   UNL     1     -18.207  41.672 -12.641  0.00  0.00    +0.000 A 
ATOM      4  C   UNL     1     -18.685  42.539 -13.618  0.00  0.00    +0.000 A 
ATOM      5  C   UNL     1     -18.631  43.912 -13.407  0.00  0.00    +0.000 A 
ATOM      6  C   UNL     1     -18.094  44.364 -12.212  0.00  0.00    +0.000 A 
ENDROOT
BRANCH   3   9
ATOM      7  O   UNL     1     -17.251  39.577 -13.140  0.00  0.00    +0.000 OA
ATOM      8  N   UNL     1     -19.512  39.618 -12.759  0.00  0.00    +0.000 N 
ATOM      9  C   UNL     1     -18.271  40.234 -12.871  0.00  0.00    +0.000 C 
ATOM     10  H   UNL     1     -20.354  40.137 -12.533  0.00  0.00    +0.000 HD
ATOM     11  H   UNL     1     -19.613  38.618 -12.902  0.00  0.00    +0.000 HD
ENDBRANCH   3   9
BRANCH   2  12
ATOM     12  N   UNL     1     -17.203  41.345 -10.480  0.00  0.00    +0.000 N 
ATOM     13  H   UNL     1     -16.257  41.002 -10.617  0.00  0.00    +0.000 HD
BRANCH  12  14
ATOM     14  C   UNL     1     -18.068  40.592  -9.632  0.00  0.00    +0.000 C 
BRANCH  14  15
ATOM     15  C   UNL     1     -18.662  41.509  -8.611  0.00  0.00    +0.000 C 
ATOM     16  C   UNL     1     -19.612  41.147  -7.743  0.00  0.00    +0.000 C 
ENDBRANCH  14  15
ENDBRANCH  12  14
ENDBRANCH   2  12
TORSDOF 4
ENDMDL
MODEL 4
REMARK VINA RESULT:    -4.910      2.105      3.564
REMARK INTER + INTRA:          -6.719
REMARK INTER:                  -6.293
REMARK INTRA:                  -0.426
REMARK UNBOUND:                -0.661
REMARK  Name = 60725755
REMARK  4 active torsions:
REMARK  status: ('A' for Active; 'I' for Inactive)
REMARK    1  A    between atoms: N_2  and  C_5
REMARK    2  A    between atoms: N_2  and  C_7
REMARK    3  A    between atoms: C_6  and  C_10
REMARK    4  A    between atoms: C_7  and  C_12
REMARK                            x       y       z     vdW  Elec       q    Type
REMARK                         _______ _______ _______ _____ _____    ______ ____
ROOT
ATOM      1  N   UNL     1     -17.251  40.881 -12.504  0.00  0.00    +0.000 NA
ATOM      2  C   UNL     1     -17.379  41.271 -11.216  0.00  0.00    +0.000 A 
ATOM      3  C   UNL     1     -18.334  40.772 -10.346  0.00  0.00    +0.000 A 
ATOM      4  C   UNL     1     -19.215  39.810 -10.829  0.00  0.00    +0.000 A 
ATOM      5  C   UNL     1     -19.114  39.382 -12.148  0.00  0.00    +0.000 A 
ATOM      6  C   UNL     1     -18.123  39.944 -12.937  0.00  0.00    +0.000 A 
ENDROOT
BRANCH   3   9
ATOM      7  O   UNL     1     -18.286  42.407  -8.651  0.00  0.00    +0.000 OA
ATOM      8  N   UNL     1     -18.771  40.261  -8.005  0.00  0.00    +0.000 N 
ATOM      9  C   UNL     1     -18.450  41.216  -8.963  0.00  0.00    +0.000 C 
ATOM     10  H   UNL     1     -18.916  39.285  -8.242  0.00  0.00    +0.000 HD
ATOM     11  H   UNL     1     -18.870  40.516  -7.027  0.00  0.00    +0.000 HD
ENDBRANCH   3   9
BRANCH   2  12
ATOM     12  N   UNL     1     -16.480  42.255 -10.732  0.00  0.00    +0.000 N 
ATOM     13  H   UNL     1     -16.288  42.223  -9.736  0.00  0.00    +0.000 HD
BRANCH  12  14
ATOM     14  C   UNL     1     -16.243  43.483 -11.418  0.00  0.00    +0.000 C 
BRANCH  14  15
ATOM     15  C   UNL     1     -14.797  43.557 -11.790  0.00  0.00    +0.000 C 
ATOM     16  C   UNL     1     -13.825  42.897 -11.151  0.00  0.00    +0.000 C 
ENDBRANCH  14  15
ENDBRANCH  12  14
ENDBRANCH   2  12
TORSDOF 4
ENDMDL
MODEL 5
REMARK VINA RESULT:    -4.730      2.754      4.249
REMARK INTER + INTRA:          -6.498
REMARK INTER:                  -6.027
REMARK INTRA:                  -0.471
REMARK UNBOUND:                -0.661
REMARK  Name = 60725755
REMARK  4 active torsions:
REMARK  status: ('A' for Active; 'I' for Inactive)
REMARK    1  A    between atoms: N_2  and  C_5
REMARK    2  A    between atoms: N_2  and  C_7
REMARK    3  A    between atoms: C_6  and  C_10
REMARK    4  A    between atoms: C_7  and  C_12
REMARK                            x       y       z     vdW  Elec       q    Type
REMARK                         _______ _______ _______ _____ _____    ______ ____
ROOT
ATOM      1  N   UNL     1     -19.069  40.520 -13.232  0.00  0.00    +0.000 NA
ATOM      2  C   UNL     1     -18.308  41.586 -12.895  0.00  0.00    +0.000 A 
ATOM      3  C   UNL     1     -17.680  41.734 -11.670  0.00  0.00    +0.000 A 
ATOM      4  C   UNL     1     -17.842  40.723 -10.729  0.00  0.00    +0.000 A 
ATOM      5  C   UNL     1     -18.616  39.610 -11.038  0.00  0.00    +0.000 A 
ATOM      6  C   UNL     1     -19.203  39.557 -12.293  0.00  0.00    +0.000 A 
ENDROOT
BRANCH   3   9
ATOM      7  O   UNL     1     -17.365  44.035 -11.276  0.00  0.00    +0.000 OA
ATOM      8  N   UNL     1     -15.522  42.687 -11.063  0.00  0.00    +0.000 N 
ATOM      9  C   UNL     1     -16.869  42.897 -11.335  0.00  0.00    +0.000 C 
ATOM     10  H   UNL     1     -15.102  41.763 -11.098  0.00  0.00    +0.000 HD
ATOM     11  H   UNL     1     -14.912  43.460 -10.817  0.00  0.00    +0.000 HD
ENDBRANCH   3   9
BRANCH   2  12
ATOM     12  N   UNL     1     -18.150  42.614 -13.858  0.00  0.00    +0.000 N 
ATOM     13  H   UNL     1     -17.193  42.888 -14.056  0.00  0.00    +0.000 HD
BRANCH  12  14
ATOM     14  C   UNL     1     -19.187  43.545 -14.166  0.00  0.00    +0.000 C 
BRANCH  14  15
ATOM     15  C   UNL     1     -19.709  43.250 -15.536  0.00  0.00    +0.000 C 
ATOM     16  C   UNL     1     -21.009  43.212 -15.848  0.00  0.00    +0.000 C 
ENDBRANCH  14  15
ENDBRANCH  12  14
ENDBRANCH   2  12
TORSDOF 4
ENDMDL
