MODEL 1
REMARK VINA RESULT:    -5.975      0.000      0.000
REMARK INTER + INTRA:          -6.945
REMARK INTER:                  -6.674
REMARK INTRA:                  -0.271
REMARK UNBOUND:                -0.271
REMARK  Name = 61357616
REMARK  3 active torsions:
REMARK  status: ('A' for Active; 'I' for Inactive)
REMARK    1  A    between atoms: N_3  and  C_8
REMARK    2  A    between atoms: N_4  and  C_9
REMARK    3  A    between atoms: C_6  and  C_11
REMARK                            x       y       z     vdW  Elec       q    Type
REMARK                         _______ _______ _______ _____ _____    ______ ____
ROOT
ATOM      1  N   UNL     1     -22.260  40.652  -7.968  0.00  0.00    +0.000 NA
ATOM      2  C   UNL     1     -19.978  41.450  -7.989  0.00  0.00    +0.000 A 
ATOM      3  C   UNL     1     -20.269  42.332  -6.954  0.00  0.00    +0.000 A 
ATOM      4  C   UNL     1     -20.999  40.639  -8.455  0.00  0.00    +0.000 A 
ATOM      5  C   UNL     1     -21.554  42.376  -6.425  0.00  0.00    +0.000 A 
ATOM      6  C   UNL     1     -22.504  41.523  -6.962  0.00  0.00    +0.000 A 
ENDROOT
BRANCH   2   9
ATOM      7  O   UNL     1     -17.990  40.349  -8.608  0.00  0.00    +0.000 OA
ATOM      8  N   UNL     1     -18.085  42.606  -8.996  0.00  0.00    +0.000 N 
ATOM      9  C   UNL     1     -18.628  41.412  -8.537  0.00  0.00    +0.000 C 
ATOM     10  H   UNL     1     -18.595  43.483  -8.952  0.00  0.00    +0.000 HD
ATOM     11  H   UNL     1     -17.152  42.637  -9.392  0.00  0.00    +0.000 HD
ENDBRANCH   2   9
BRANCH   4  12
ATOM     12  N   UNL     1     -20.711  39.736  -9.510  0.00  0.00    +0.000 N 
ATOM     13  H   UNL     1     -20.958  40.002 -10.455  0.00  0.00    +0.000 HD
ATOM     14  H   UNL     1     -20.729  38.751  -9.279  0.00  0.00    +0.000 HD
ENDBRANCH   4  12
BRANCH   5  15
ATOM     15  N   UNL     1     -21.877  43.257  -5.381  0.00  0.00    +0.000 N 
ATOM     16  H   UNL     1     -22.828  43.317  -5.042  0.00  0.00    +0.000 HD
ATOM     17  H   UNL     1     -21.158  43.833  -4.963  0.00  0.00    +0.000 HD
ENDBRANCH   5  15
TORSDOF 3
ENDMDL
MODEL 2
REMARK VINA RESULT:    -5.832      2.069      3.716
REMARK INTER + INTRA:          -6.785
REMARK INTER:                  -6.503
REMARK INTRA:                  -0.282
REMARK UNBOUND:                -0.271
REMARK  Name = 61357616
REMARK  3 active torsions:
REMARK  status: ('A' for Active; 'I' for Inactive)
REMARK    1  A    between atoms: N_3  and  C_8
REMARK    2  A    between atoms: N_4  and  C_9
REMARK    3  A    between atoms: C_6  and  C_11
REMARK                            x       y       z     vdW  Elec       q    Type
REMARK                         _______ _______ _______ _____ _____    ______ ____
ROOT
ATOM      1  N   UNL     1     -21.448  39.839  -8.636  0.00  0.00    +0.000 NA
ATOM      2  C   UNL     1     -21.218  41.817  -7.265  0.00  0.00    +0.000 A 
ATOM      3  C   UNL     1     -19.863  41.880  -7.572  0.00  0.00    +0.000 A 
ATOM      4  C   UNL     1     -21.960  40.786  -7.818  0.00  0.00    +0.000 A 
ATOM      5  C   UNL     1     -19.299  40.924  -8.410  0.00  0.00    +0.000 A 
ATOM      6  C   UNL     1     -20.128  39.934  -8.912  0.00  0.00    +0.000 A 
ENDROOT
BRANCH   2   9
ATOM      7  O   UNL     1     -22.656  43.621  -6.796  0.00  0.00    +0.000 OA
ATOM      8  N   UNL     1     -21.373  42.845  -5.062  0.00  0.00    +0.000 N 
ATOM      9  C   UNL     1     -21.799  42.822  -6.385  0.00  0.00    +0.000 C 
ATOM     10  H   UNL     1     -20.678  42.195  -4.708  0.00  0.00    +0.000 HD
ATOM     11  H   UNL     1     -21.748  43.520  -4.405  0.00  0.00    +0.000 HD
ENDBRANCH   2   9
BRANCH   4  12
ATOM     12  N   UNL     1     -23.342  40.714  -7.511  0.00  0.00    +0.000 N 
ATOM     13  H   UNL     1     -23.692  39.883  -7.049  0.00  0.00    +0.000 HD
ATOM     14  H   UNL     1     -23.970  41.204  -8.135  0.00  0.00    +0.000 HD
ENDBRANCH   4  12
BRANCH   5  15
ATOM     15  N   UNL     1     -17.934  40.963  -8.737  0.00  0.00    +0.000 N 
ATOM     16  H   UNL     1     -17.390  41.794  -8.547  0.00  0.00    +0.000 HD
ATOM     17  H   UNL     1     -17.492  40.159  -9.162  0.00  0.00    +0.000 HD
ENDBRANCH   5  15
TORSDOF 3
ENDMDL
MODEL 3
REMARK VINA RESULT:    -5.665      1.877      3.204
REMARK INTER + INTRA:          -6.598
REMARK INTER:                  -6.324
REMARK INTRA:                  -0.274
REMARK UNBOUND:                -0.271
REMARK  Name = 61357616
REMARK  3 active torsions:
REMARK  status: ('A' for Active; 'I' for Inactive)
REMARK    1  A    between atoms: N_3  and  C_8
REMARK    2  A    between atoms: N_4  and  C_9
REMARK    3  A    between atoms: C_6  and  C_11
REMARK                            x       y       z     vdW  Elec       q    Type
REMARK                         _______ _______ _______ _____ _____    ______ ____
ROOT
ATOM      1  N   UNL     1     -18.463  42.204  -8.229  0.00  0.00    +0.000 NA
ATOM      2  C   UNL     1     -19.360  40.717  -9.910  0.00  0.00    +0.000 A 
ATOM      3  C   UNL     1     -20.550  40.618  -9.198  0.00  0.00    +0.000 A 
ATOM      4  C   UNL     1     -18.356  41.516  -9.387  0.00  0.00    +0.000 A 
ATOM      5  C   UNL     1     -20.698  41.311  -8.001  0.00  0.00    +0.000 A 
ATOM      6  C   UNL     1     -19.634  42.083  -7.565  0.00  0.00    +0.000 A 
ENDROOT
BRANCH   2   9
ATOM      7  O   UNL     1     -18.463  39.001 -11.251  0.00  0.00    +0.000 OA
ATOM      8  N   UNL     1     -19.959  40.419 -12.252  0.00  0.00    +0.000 N 
ATOM      9  C   UNL     1     -19.214  39.986 -11.162  0.00  0.00    +0.000 C 
ATOM     10  H   UNL     1     -20.583  41.219 -12.196  0.00  0.00    +0.000 HD
ATOM     11  H   UNL     1     -19.901  39.945 -13.147  0.00  0.00    +0.000 HD
ENDBRANCH   2   9
BRANCH   4  12
ATOM     12  N   UNL     1     -17.140  41.623 -10.108  0.00  0.00    +0.000 N 
ATOM     13  H   UNL     1     -16.891  42.520 -10.507  0.00  0.00    +0.000 HD
ATOM     14  H   UNL     1     -16.827  40.791 -10.592  0.00  0.00    +0.000 HD
ENDBRANCH   4  12
BRANCH   5  15
ATOM     15  N   UNL     1     -21.888  41.229  -7.260  0.00  0.00    +0.000 N 
ATOM     16  H   UNL     1     -22.200  42.019  -6.711  0.00  0.00    +0.000 HD
ATOM     17  H   UNL     1     -22.437  40.380  -7.275  0.00  0.00    +0.000 HD
ENDBRANCH   5  15
TORSDOF 3
ENDMDL
MODEL 4
REMARK VINA RESULT:    -5.341      2.189      2.742
REMARK INTER + INTRA:          -6.237
REMARK INTER:                  -5.983
REMARK INTRA:                  -0.254
REMARK UNBOUND:                -0.271
REMARK  Name = 61357616
REMARK  3 active torsions:
REMARK  status: ('A' for Active; 'I' for Inactive)
REMARK    1  A    between atoms: N_3  and  C_8
REMARK    2  A    between atoms: N_4  and  C_9
REMARK    3  A    between atoms: C_6  and  C_11
REMARK                            x       y       z     vdW  Elec       q    Type
REMARK                         _______ _______ _______ _____ _____    ______ ____
ROOT
ATOM      1  N   UNL     1     -20.482  39.890  -9.293  0.00  0.00    +0.000 NA
ATOM      2  C   UNL     1     -18.480  41.029 -10.027  0.00  0.00    +0.000 A 
ATOM      3  C   UNL     1     -18.528  41.852  -8.907  0.00  0.00    +0.000 A 
ATOM      4  C   UNL     1     -19.471  40.072 -10.172  0.00  0.00    +0.000 A 
ATOM      5  C   UNL     1     -19.552  41.695  -7.979  0.00  0.00    +0.000 A 
ATOM      6  C   UNL     1     -20.495  40.708  -8.216  0.00  0.00    +0.000 A 
ENDROOT
BRANCH   2   9
ATOM      7  O   UNL     1     -17.596  41.783 -12.076  0.00  0.00    +0.000 OA
ATOM      8  N   UNL     1     -16.149  40.711 -10.658  0.00  0.00    +0.000 N 
ATOM      9  C   UNL     1     -17.404  41.203 -10.994  0.00  0.00    +0.000 C 
ATOM     10  H   UNL     1     -15.973  40.239  -9.776  0.00  0.00    +0.000 HD
ATOM     11  H   UNL     1     -15.363  40.808 -11.291  0.00  0.00    +0.000 HD
ENDBRANCH   2   9
BRANCH   4  12
ATOM     12  N   UNL     1     -19.429  39.230 -11.311  0.00  0.00    +0.000 N 
ATOM     13  H   UNL     1     -19.814  39.575 -12.182  0.00  0.00    +0.000 HD
ATOM     14  H   UNL     1     -19.477  38.234 -11.139  0.00  0.00    +0.000 HD
ENDBRANCH   4  12
BRANCH   5  15
ATOM     15  N   UNL     1     -19.626  42.510  -6.839  0.00  0.00    +0.000 N 
ATOM     16  H   UNL     1     -19.807  42.101  -5.932  0.00  0.00    +0.000 HD
ATOM     17  H   UNL     1     -19.498  43.510  -6.922  0.00  0.00    +0.000 HD
ENDBRANCH   5  15
TORSDOF 3
ENDMDL
MODEL 5
REMARK VINA RESULT:    -5.156      5.379      6.057
REMARK INTER + INTRA:          -6.030
REMARK INTER:                  -5.750
REMARK INTRA:                  -0.280
REMARK UNBOUND:                -0.271
REMARK  Name = 61357616
REMARK  3 active torsions:
REMARK  status: ('A' for Active; 'I' for Inactive)
REMARK    1  A    between atoms: N_3  and  C_8
REMARK    2  A    between atoms: N_4  and  C_9
REMARK    3  A    between atoms: C_6  and  C_11
REMARK                            x       y       z     vdW  Elec       q    Type
REMARK                         _______ _______ _______ _____ _____    ______ ____
ROOT
ATOM      1  N   UNL     1     -19.577  41.665 -13.610  0.00  0.00    +0.000 NA
ATOM      2  C   UNL     1     -17.647  41.116 -12.261  0.00  0.00    +0.000 A 
ATOM      3  C   UNL     1     -17.029  42.299 -12.652  0.00  0.00    +0.000 A 
ATOM      4  C   UNL     1     -18.910  40.849 -12.764  0.00  0.00    +0.000 A 
ATOM      5  C   UNL     1     -17.683  43.165 -13.522  0.00  0.00    +0.000 A 
ATOM      6  C   UNL     1     -18.944  42.805 -13.967  0.00  0.00    +0.000 A 
ENDROOT
BRANCH   2   9
ATOM      7  O   UNL     1     -17.364  40.023 -10.194  0.00  0.00    +0.000 OA
ATOM      8  N   UNL     1     -15.824  39.561 -11.827  0.00  0.00    +0.000 N 
ATOM      9  C   UNL     1     -16.954  40.215 -11.351  0.00  0.00    +0.000 C 
ATOM     10  H   UNL     1     -15.478  39.700 -12.772  0.00  0.00    +0.000 HD
ATOM     11  H   UNL     1     -15.305  38.918 -11.238  0.00  0.00    +0.000 HD
ENDBRANCH   2   9
BRANCH   4  12
ATOM     12  N   UNL     1     -19.548  39.645 -12.370  0.00  0.00    +0.000 N 
ATOM     13  H   UNL     1     -20.168  39.188 -13.027  0.00  0.00    +0.000 HD
ATOM     14  H   UNL     1     -19.752  39.544 -11.384  0.00  0.00    +0.000 HD
ENDBRANCH   4  12
BRANCH   5  15
ATOM     15  N   UNL     1     -17.083  44.366 -13.934  0.00  0.00    +0.000 N 
ATOM     16  H   UNL     1     -16.350  44.784 -13.378  0.00  0.00    +0.000 HD
ATOM     17  H   UNL     1     -17.383  44.814 -14.790  0.00  0.00    +0.000 HD
ENDBRANCH   5  15
TORSDOF 3
ENDMDL
