MODEL 1
REMARK VINA RESULT:    -5.714      0.000      0.000
REMARK INTER + INTRA:          -7.704
REMARK INTER:                  -7.217
REMARK INTRA:                  -0.487
REMARK UNBOUND:                -0.487
REMARK  Name = 62072598
REMARK  6 active torsions:
REMARK  status: ('A' for Active; 'I' for Inactive)
REMARK    1  A    between atoms: O_1  and  C_7
REMARK    2  A    between atoms: O_1  and  C_14
REMARK    3  A    between atoms: N_3  and  C_6
REMARK    4  A    between atoms: N_5  and  C_10
REMARK    5  A    between atoms: C_6  and  C_7
REMARK    6  A    between atoms: C_8  and  C_9
REMARK                            x       y       z     vdW  Elec       q    Type
REMARK                         _______ _______ _______ _____ _____    ______ ____
ROOT
ATOM      1  N   UNL     1     -21.078  40.452  -8.640  0.00  0.00    +0.000 NA
ATOM      2  C   UNL     1     -18.843  41.209  -9.168  0.00  0.00    +0.000 A 
ATOM      3  C   UNL     1     -19.969  40.440  -9.414  0.00  0.00    +0.000 A 
ATOM      4  C   UNL     1     -18.855  42.043  -8.055  0.00  0.00    +0.000 A 
ATOM      5  C   UNL     1     -19.977  42.082  -7.235  0.00  0.00    +0.000 A 
ATOM      6  C   UNL     1     -21.052  41.275  -7.568  0.00  0.00    +0.000 A 
ENDROOT
BRANCH   2   9
ATOM      7  O   UNL     1     -17.128  40.093 -10.312  0.00  0.00    +0.000 OA
ATOM      8  N   UNL     1     -17.198  42.402 -10.506  0.00  0.00    +0.000 N 
ATOM      9  C   UNL     1     -17.664  41.176 -10.022  0.00  0.00    +0.000 C 
ATOM     10  H   UNL     1     -17.682  43.253 -10.235  0.00  0.00    +0.000 HD
BRANCH   8  11
ATOM     11  C   UNL     1     -16.056  42.531 -11.382  0.00  0.00    +0.000 C 
BRANCH  11  12
ATOM     12  C   UNL     1     -16.477  42.851 -12.805  0.00  0.00    +0.000 C 
BRANCH  12  13
ATOM     13  O   UNL     1     -17.083  41.705 -13.387  0.00  0.00    +0.000 OA
ATOM     14  C   UNL     1     -18.458  41.928 -13.670  0.00  0.00    +0.000 C 
ENDBRANCH  12  13
ENDBRANCH  11  12
ENDBRANCH   8  11
ENDBRANCH   2   9
BRANCH   3  15
ATOM     15  N   UNL     1     -19.966  39.589 -10.548  0.00  0.00    +0.000 N 
ATOM     16  H   UNL     1     -19.971  38.587 -10.403  0.00  0.00    +0.000 HD
ATOM     17  H   UNL     1     -19.504  39.943 -11.377  0.00  0.00    +0.000 HD
ENDBRANCH   3  15
TORSDOF 5
ENDMDL
MODEL 2
REMARK VINA RESULT:    -5.589      1.012      1.024
REMARK INTER + INTRA:          -7.546
REMARK INTER:                  -7.011
REMARK INTRA:                  -0.535
REMARK UNBOUND:                -0.487
REMARK  Name = 62072598
REMARK  6 active torsions:
REMARK  status: ('A' for Active; 'I' for Inactive)
REMARK    1  A    between atoms: O_1  and  C_7
REMARK    2  A    between atoms: O_1  and  C_14
REMARK    3  A    between atoms: N_3  and  C_6
REMARK    4  A    between atoms: N_5  and  C_10
REMARK    5  A    between atoms: C_6  and  C_7
REMARK    6  A    between atoms: C_8  and  C_9
REMARK                            x       y       z     vdW  Elec       q    Type
REMARK                         _______ _______ _______ _____ _____    ______ ____
ROOT
ATOM      1  N   UNL     1     -21.619  40.499  -8.229  0.00  0.00    +0.000 NA
ATOM      2  C   UNL     1     -19.377  41.302  -8.646  0.00  0.00    +0.000 A 
ATOM      3  C   UNL     1     -20.461  40.485  -8.925  0.00  0.00    +0.000 A 
ATOM      4  C   UNL     1     -19.489  42.190  -7.582  0.00  0.00    +0.000 A 
ATOM      5  C   UNL     1     -20.665  42.234  -6.841  0.00  0.00    +0.000 A 
ATOM      6  C   UNL     1     -21.691  41.376  -7.202  0.00  0.00    +0.000 A 
ENDROOT
BRANCH   2   9
ATOM      7  O   UNL     1     -17.370  40.297  -9.321  0.00  0.00    +0.000 OA
ATOM      8  N   UNL     1     -17.897  42.345 -10.271  0.00  0.00    +0.000 N 
ATOM      9  C   UNL     1     -18.143  41.265  -9.417  0.00  0.00    +0.000 C 
ATOM     10  H   UNL     1     -18.569  43.106 -10.307  0.00  0.00    +0.000 HD
BRANCH   8  11
ATOM     11  C   UNL     1     -16.729  42.443 -11.118  0.00  0.00    +0.000 C 
BRANCH  11  12
ATOM     12  C   UNL     1     -17.092  42.319 -12.586  0.00  0.00    +0.000 C 
BRANCH  12  13
ATOM     13  O   UNL     1     -17.915  41.177 -12.775  0.00  0.00    +0.000 OA
ATOM     14  C   UNL     1     -17.142  39.992 -12.912  0.00  0.00    +0.000 C 
ENDBRANCH  12  13
ENDBRANCH  11  12
ENDBRANCH   8  11
ENDBRANCH   2   9
BRANCH   3  15
ATOM     15  N   UNL     1     -20.355  39.579 -10.011  0.00  0.00    +0.000 N 
ATOM     16  H   UNL     1     -20.295  38.588  -9.812  0.00  0.00    +0.000 HD
ATOM     17  H   UNL     1     -19.889  39.922 -10.842  0.00  0.00    +0.000 HD
ENDBRANCH   3  15
TORSDOF 5
ENDMDL
MODEL 3
REMARK VINA RESULT:    -5.510      2.377      5.176
REMARK INTER + INTRA:          -7.446
REMARK INTER:                  -7.103
REMARK INTRA:                  -0.343
REMARK UNBOUND:                -0.487
REMARK  Name = 62072598
REMARK  6 active torsions:
REMARK  status: ('A' for Active; 'I' for Inactive)
REMARK    1  A    between atoms: O_1  and  C_7
REMARK    2  A    between atoms: O_1  and  C_14
REMARK    3  A    between atoms: N_3  and  C_6
REMARK    4  A    between atoms: N_5  and  C_10
REMARK    5  A    between atoms: C_6  and  C_7
REMARK    6  A    between atoms: C_8  and  C_9
REMARK                            x       y       z     vdW  Elec       q    Type
REMARK                         _______ _______ _______ _____ _____    ______ ____
ROOT
ATOM      1  N   UNL     1     -18.276  41.646 -13.351  0.00  0.00    +0.000 NA
ATOM      2  C   UNL     1     -18.436  41.350 -10.956  0.00  0.00    +0.000 A 
ATOM      3  C   UNL     1     -18.871  41.128 -12.254  0.00  0.00    +0.000 A 
ATOM      4  C   UNL     1     -17.318  42.156 -10.774  0.00  0.00    +0.000 A 
ATOM      5  C   UNL     1     -16.679  42.709 -11.879  0.00  0.00    +0.000 A 
ATOM      6  C   UNL     1     -17.193  42.426 -13.134  0.00  0.00    +0.000 A 
ENDROOT
BRANCH   2   9
ATOM      7  O   UNL     1     -19.513  39.603  -9.823  0.00  0.00    +0.000 OA
ATOM      8  N   UNL     1     -19.211  41.588  -8.662  0.00  0.00    +0.000 N 
ATOM      9  C   UNL     1     -19.097  40.774  -9.794  0.00  0.00    +0.000 C 
ATOM     10  H   UNL     1     -18.849  42.536  -8.701  0.00  0.00    +0.000 HD
BRANCH   8  11
ATOM     11  C   UNL     1     -19.820  41.153  -7.426  0.00  0.00    +0.000 C 
BRANCH  11  12
ATOM     12  C   UNL     1     -20.668  42.248  -6.805  0.00  0.00    +0.000 C 
BRANCH  12  13
ATOM     13  O   UNL     1     -21.837  41.677  -6.237  0.00  0.00    +0.000 OA
ATOM     14  C   UNL     1     -22.808  41.377  -7.230  0.00  0.00    +0.000 C 
ENDBRANCH  12  13
ENDBRANCH  11  12
ENDBRANCH   8  11
ENDBRANCH   2   9
BRANCH   3  15
ATOM     15  N   UNL     1     -20.009  40.305 -12.447  0.00  0.00    +0.000 N 
ATOM     16  H   UNL     1     -20.925  40.690 -12.258  0.00  0.00    +0.000 HD
ATOM     17  H   UNL     1     -19.877  39.310 -12.303  0.00  0.00    +0.000 HD
ENDBRANCH   3  15
TORSDOF 5
ENDMDL
MODEL 4
REMARK VINA RESULT:    -5.246      2.474      3.386
REMARK INTER + INTRA:          -7.113
REMARK INTER:                  -6.763
REMARK INTRA:                  -0.350
REMARK UNBOUND:                -0.487
REMARK  Name = 62072598
REMARK  6 active torsions:
REMARK  status: ('A' for Active; 'I' for Inactive)
REMARK    1  A    between atoms: O_1  and  C_7
REMARK    2  A    between atoms: O_1  and  C_14
REMARK    3  A    between atoms: N_3  and  C_6
REMARK    4  A    between atoms: N_5  and  C_10
REMARK    5  A    between atoms: C_6  and  C_7
REMARK    6  A    between atoms: C_8  and  C_9
REMARK                            x       y       z     vdW  Elec       q    Type
REMARK                         _______ _______ _______ _____ _____    ______ ____
ROOT
ATOM      1  N   UNL     1     -19.470  39.687 -10.019  0.00  0.00    +0.000 NA
ATOM      2  C   UNL     1     -18.570  41.380 -11.492  0.00  0.00    +0.000 A 
ATOM      3  C   UNL     1     -19.215  40.177 -11.252  0.00  0.00    +0.000 A 
ATOM      4  C   UNL     1     -18.158  42.127 -10.394  0.00  0.00    +0.000 A 
ATOM      5  C   UNL     1     -18.401  41.655  -9.108  0.00  0.00    +0.000 A 
ATOM      6  C   UNL     1     -19.054  40.440  -8.976  0.00  0.00    +0.000 A 
ENDROOT
BRANCH   2   9
ATOM      7  O   UNL     1     -17.334  41.476 -13.481  0.00  0.00    +0.000 OA
ATOM      8  N   UNL     1     -19.225  42.811 -13.348  0.00  0.00    +0.000 N 
ATOM      9  C   UNL     1     -18.313  41.884 -12.833  0.00  0.00    +0.000 C 
ATOM     10  H   UNL     1     -20.007  43.103 -12.769  0.00  0.00    +0.000 HD
BRANCH   8  11
ATOM     11  C   UNL     1     -19.120  43.383 -14.670  0.00  0.00    +0.000 C 
BRANCH  11  12
ATOM     12  C   UNL     1     -20.390  43.169 -15.474  0.00  0.00    +0.000 C 
BRANCH  12  13
ATOM     13  O   UNL     1     -20.080  43.186 -16.860  0.00  0.00    +0.000 OA
ATOM     14  C   UNL     1     -21.172  42.727 -17.645  0.00  0.00    +0.000 C 
ENDBRANCH  12  13
ENDBRANCH  11  12
ENDBRANCH   8  11
ENDBRANCH   2   9
BRANCH   3  15
ATOM     15  N   UNL     1     -19.641  39.412 -12.367  0.00  0.00    +0.000 N 
ATOM     16  H   UNL     1     -20.465  39.708 -12.874  0.00  0.00    +0.000 HD
ATOM     17  H   UNL     1     -19.436  38.420 -12.340  0.00  0.00    +0.000 HD
ENDBRANCH   3  15
TORSDOF 5
ENDMDL
MODEL 5
REMARK VINA RESULT:    -4.824      3.525      5.278
REMARK INTER + INTRA:          -6.580
REMARK INTER:                  -6.183
REMARK INTRA:                  -0.397
REMARK UNBOUND:                -0.487
REMARK  Name = 62072598
REMARK  6 active torsions:
REMARK  status: ('A' for Active; 'I' for Inactive)
REMARK    1  A    between atoms: O_1  and  C_7
REMARK    2  A    between atoms: O_1  and  C_14
REMARK    3  A    between atoms: N_3  and  C_6
REMARK    4  A    between atoms: N_5  and  C_10
REMARK    5  A    between atoms: C_6  and  C_7
REMARK    6  A    between atoms: C_8  and  C_9
REMARK                            x       y       z     vdW  Elec       q    Type
REMARK                         _______ _______ _______ _____ _____    ______ ____
ROOT
ATOM      1  N   UNL     1     -16.826  40.528 -11.793  0.00  0.00    +0.000 NA
ATOM      2  C   UNL     1     -18.598  41.739 -12.907  0.00  0.00    +0.000 A 
ATOM      3  C   UNL     1     -17.269  41.547 -12.563  0.00  0.00    +0.000 A 
ATOM      4  C   UNL     1     -19.532  40.828 -12.428  0.00  0.00    +0.000 A 
ATOM      5  C   UNL     1     -19.115  39.766 -11.631  0.00  0.00    +0.000 A 
ATOM      6  C   UNL     1     -17.763  39.663 -11.346  0.00  0.00    +0.000 A 
ENDROOT
BRANCH   2   9
ATOM      7  O   UNL     1     -18.926  44.018 -13.347  0.00  0.00    +0.000 OA
ATOM      8  N   UNL     1     -19.577  42.520 -14.994  0.00  0.00    +0.000 N 
ATOM      9  C   UNL     1     -19.044  42.845 -13.742  0.00  0.00    +0.000 C 
ATOM     10  H   UNL     1     -19.644  41.542 -15.259  0.00  0.00    +0.000 HD
BRANCH   8  11
ATOM     11  C   UNL     1     -20.040  43.505 -15.944  0.00  0.00    +0.000 C 
BRANCH  11  12
ATOM     12  C   UNL     1     -20.763  42.859 -17.111  0.00  0.00    +0.000 C 
BRANCH  12  13
ATOM     13  O   UNL     1     -20.990  43.830 -18.123  0.00  0.00    +0.000 OA
ATOM     14  C   UNL     1     -22.138  44.619 -17.841  0.00  0.00    +0.000 C 
ENDBRANCH  12  13
ENDBRANCH  11  12
ENDBRANCH   8  11
ENDBRANCH   2   9
BRANCH   3  15
ATOM     15  N   UNL     1     -16.311  42.471 -13.051  0.00  0.00    +0.000 N 
ATOM     16  H   UNL     1     -15.407  42.517 -12.598  0.00  0.00    +0.000 HD
ATOM     17  H   UNL     1     -16.673  43.320 -13.468  0.00  0.00    +0.000 HD
ENDBRANCH   3  15
TORSDOF 5
ENDMDL
