MODEL 1
REMARK VINA RESULT:    -7.732      0.000      0.000
REMARK INTER + INTRA:          -9.473
REMARK INTER:                  -9.088
REMARK INTRA:                  -0.385
REMARK UNBOUND:                -0.385
REMARK  Name = 62074657
REMARK  3 active torsions:
REMARK  status: ('A' for Active; 'I' for Inactive)
REMARK    1  A    between atoms: N_2  and  C_5
REMARK    2  A    between atoms: C_5  and  C_6
REMARK    3  A    between atoms: C_7  and  C_8
REMARK                            x       y       z     vdW  Elec       q    Type
REMARK                         _______ _______ _______ _____ _____    ______ ____
ROOT
ATOM      1  O   UNL     1     -17.708  41.400 -10.042  0.00  0.00    +0.000 OA
ATOM      2  N   UNL     1     -19.908  40.731 -10.348  0.00  0.00    +0.000 N 
ATOM      3  C   UNL     1     -18.736  41.379 -10.714  0.00  0.00    +0.000 C 
ATOM      4  H   UNL     1     -20.742  40.814 -10.918  0.00  0.00    +0.000 HD
ENDROOT
BRANCH   3   7
ATOM      5  N   UNL     1     -19.603  42.254 -14.273  0.00  0.00    +0.000 NA
ATOM      6  N   UNL     1     -18.933  44.078 -15.652  0.00  0.00    +0.000 N 
ATOM      7  C   UNL     1     -18.772  42.108 -12.007  0.00  0.00    +0.000 A 
ATOM      8  C   UNL     1     -18.051  43.283 -12.188  0.00  0.00    +0.000 A 
ATOM      9  C   UNL     1     -19.526  41.640 -13.071  0.00  0.00    +0.000 A 
ATOM     10  C   UNL     1     -18.104  43.944 -13.411  0.00  0.00    +0.000 A 
ATOM     11  C   UNL     1     -18.888  43.393 -14.412  0.00  0.00    +0.000 A 
ATOM     12  H   UNL     1     -18.789  45.081 -15.653  0.00  0.00    +0.000 HD
ATOM     13  H   UNL     1     -19.512  43.675 -16.379  0.00  0.00    +0.000 HD
ENDBRANCH   3   7
BRANCH   2  14
ATOM     14  C   UNL     1     -20.038  40.003  -9.111  0.00  0.00    +0.000 C 
BRANCH  14  15
ATOM     15  C   UNL     1     -20.677  40.816  -8.038  0.00  0.00    +0.000 A 
ATOM     16  C   UNL     1     -19.885  41.539  -7.144  0.00  0.00    +0.000 A 
ATOM     17  C   UNL     1     -22.067  40.855  -7.926  0.00  0.00    +0.000 A 
ATOM     18  C   UNL     1     -20.484  42.300  -6.140  0.00  0.00    +0.000 A 
ATOM     19  C   UNL     1     -22.665  41.616  -6.923  0.00  0.00    +0.000 A 
ATOM     20  C   UNL     1     -21.874  42.339  -6.029  0.00  0.00    +0.000 A 
ENDBRANCH  14  15
ENDBRANCH   2  14
TORSDOF 3
ENDMDL
MODEL 2
REMARK VINA RESULT:    -7.372      1.568      2.090
REMARK INTER + INTRA:          -9.050
REMARK INTER:                  -8.748
REMARK INTRA:                  -0.302
REMARK UNBOUND:                -0.385
REMARK  Name = 62074657
REMARK  3 active torsions:
REMARK  status: ('A' for Active; 'I' for Inactive)
REMARK    1  A    between atoms: N_2  and  C_5
REMARK    2  A    between atoms: C_5  and  C_6
REMARK    3  A    between atoms: C_7  and  C_8
REMARK                            x       y       z     vdW  Elec       q    Type
REMARK                         _______ _______ _______ _____ _____    ______ ____
ROOT
ATOM      1  O   UNL     1     -17.631  39.685 -10.681  0.00  0.00    +0.000 OA
ATOM      2  N   UNL     1     -19.346  41.163 -10.178  0.00  0.00    +0.000 N 
ATOM      3  C   UNL     1     -18.159  40.788 -10.793  0.00  0.00    +0.000 C 
ATOM      4  H   UNL     1     -19.688  42.115 -10.256  0.00  0.00    +0.000 HD
ENDROOT
BRANCH   3   7
ATOM      5  N   UNL     1     -17.639  43.438 -13.417  0.00  0.00    +0.000 NA
ATOM      6  N   UNL     1     -15.728  44.748 -13.973  0.00  0.00    +0.000 N 
ATOM      7  C   UNL     1     -17.496  41.829 -11.619  0.00  0.00    +0.000 A 
ATOM      8  C   UNL     1     -16.168  42.179 -11.401  0.00  0.00    +0.000 A 
ATOM      9  C   UNL     1     -18.182  42.483 -12.630  0.00  0.00    +0.000 A 
ATOM     10  C   UNL     1     -15.574  43.158 -12.191  0.00  0.00    +0.000 A 
ATOM     11  C   UNL     1     -16.346  43.752 -13.177  0.00  0.00    +0.000 A 
ATOM     12  H   UNL     1     -14.970  45.284 -13.569  0.00  0.00    +0.000 HD
ATOM     13  H   UNL     1     -16.297  45.183 -14.688  0.00  0.00    +0.000 HD
ENDBRANCH   3   7
BRANCH   2  14
ATOM     14  C   UNL     1     -20.093  40.274  -9.325  0.00  0.00    +0.000 C 
BRANCH  14  15
ATOM     15  C   UNL     1     -20.671  40.974  -8.143  0.00  0.00    +0.000 A 
ATOM     16  C   UNL     1     -22.049  40.951  -7.923  0.00  0.00    +0.000 A 
ATOM     17  C   UNL     1     -19.836  41.653  -7.256  0.00  0.00    +0.000 A 
ATOM     18  C   UNL     1     -22.590  41.606  -6.817  0.00  0.00    +0.000 A 
ATOM     19  C   UNL     1     -20.376  42.308  -6.150  0.00  0.00    +0.000 A 
ATOM     20  C   UNL     1     -21.754  42.285  -5.930  0.00  0.00    +0.000 A 
ENDBRANCH  14  15
ENDBRANCH   2  14
TORSDOF 3
ENDMDL
MODEL 3
REMARK VINA RESULT:    -7.297      1.658      1.844
REMARK INTER + INTRA:          -8.962
REMARK INTER:                  -8.683
REMARK INTRA:                  -0.279
REMARK UNBOUND:                -0.385
REMARK  Name = 62074657
REMARK  3 active torsions:
REMARK  status: ('A' for Active; 'I' for Inactive)
REMARK    1  A    between atoms: N_2  and  C_5
REMARK    2  A    between atoms: C_5  and  C_6
REMARK    3  A    between atoms: C_7  and  C_8
REMARK                            x       y       z     vdW  Elec       q    Type
REMARK                         _______ _______ _______ _____ _____    ______ ____
ROOT
ATOM      1  O   UNL     1     -19.661  40.402 -12.144  0.00  0.00    +0.000 OA
ATOM      2  N   UNL     1     -19.169  41.200 -10.022  0.00  0.00    +0.000 N 
ATOM      3  C   UNL     1     -19.046  41.166 -11.404  0.00  0.00    +0.000 C 
ATOM      4  H   UNL     1     -18.578  41.808  -9.466  0.00  0.00    +0.000 HD
ENDROOT
BRANCH   3   7
ATOM      5  N   UNL     1     -17.636  43.946 -13.518  0.00  0.00    +0.000 NA
ATOM      6  N   UNL     1     -15.428  44.823 -13.694  0.00  0.00    +0.000 N 
ATOM      7  C   UNL     1     -18.073  42.121 -11.994  0.00  0.00    +0.000 A 
ATOM      8  C   UNL     1     -16.736  42.110 -11.612  0.00  0.00    +0.000 A 
ATOM      9  C   UNL     1     -18.469  43.051 -12.942  0.00  0.00    +0.000 A 
ATOM     10  C   UNL     1     -15.849  43.016 -12.182  0.00  0.00    +0.000 A 
ATOM     11  C   UNL     1     -16.345  43.906 -13.122  0.00  0.00    +0.000 A 
ATOM     12  H   UNL     1     -14.623  45.104 -13.147  0.00  0.00    +0.000 HD
ATOM     13  H   UNL     1     -15.796  45.475 -14.376  0.00  0.00    +0.000 HD
ENDBRANCH   3   7
BRANCH   2  14
ATOM     14  C   UNL     1     -20.053  40.318  -9.300  0.00  0.00    +0.000 C 
BRANCH  14  15
ATOM     15  C   UNL     1     -20.679  40.983  -8.122  0.00  0.00    +0.000 A 
ATOM     16  C   UNL     1     -19.885  41.677  -7.208  0.00  0.00    +0.000 A 
ATOM     17  C   UNL     1     -22.059  40.910  -7.932  0.00  0.00    +0.000 A 
ATOM     18  C   UNL     1     -20.471  42.299  -6.106  0.00  0.00    +0.000 A 
ATOM     19  C   UNL     1     -22.645  41.531  -6.830  0.00  0.00    +0.000 A 
ATOM     20  C   UNL     1     -21.852  42.226  -5.916  0.00  0.00    +0.000 A 
ENDBRANCH  14  15
ENDBRANCH   2  14
TORSDOF 3
ENDMDL
MODEL 4
REMARK VINA RESULT:    -6.711      1.451      2.228
REMARK INTER + INTRA:          -8.273
REMARK INTER:                  -7.869
REMARK INTRA:                  -0.404
REMARK UNBOUND:                -0.385
REMARK  Name = 62074657
REMARK  3 active torsions:
REMARK  status: ('A' for Active; 'I' for Inactive)
REMARK    1  A    between atoms: N_2  and  C_5
REMARK    2  A    between atoms: C_5  and  C_6
REMARK    3  A    between atoms: C_7  and  C_8
REMARK                            x       y       z     vdW  Elec       q    Type
REMARK                         _______ _______ _______ _____ _____    ______ ____
ROOT
ATOM      1  O   UNL     1     -19.977  40.812 -12.723  0.00  0.00    +0.000 OA
ATOM      2  N   UNL     1     -18.363  41.724 -11.330  0.00  0.00    +0.000 N 
ATOM      3  C   UNL     1     -19.181  41.707 -12.451  0.00  0.00    +0.000 C 
ATOM      4  H   UNL     1     -17.677  42.460 -11.204  0.00  0.00    +0.000 HD
ENDROOT
BRANCH   3   7
ATOM      5  N   UNL     1     -19.541  43.857 -15.522  0.00  0.00    +0.000 NA
ATOM      6  N   UNL     1     -18.701  46.027 -16.030  0.00  0.00    +0.000 N 
ATOM      7  C   UNL     1     -19.040  42.859 -13.378  0.00  0.00    +0.000 A 
ATOM      8  C   UNL     1     -18.313  43.987 -13.015  0.00  0.00    +0.000 A 
ATOM      9  C   UNL     1     -19.630  42.844 -14.632  0.00  0.00    +0.000 A 
ATOM     10  C   UNL     1     -18.198  45.050 -13.904  0.00  0.00    +0.000 A 
ATOM     11  C   UNL     1     -18.826  44.936 -15.135  0.00  0.00    +0.000 A 
ATOM     12  H   UNL     1     -18.568  46.954 -15.643  0.00  0.00    +0.000 HD
ATOM     13  H   UNL     1     -19.165  45.942 -16.925  0.00  0.00    +0.000 HD
ENDBRANCH   3   7
BRANCH   2  14
ATOM     14  C   UNL     1     -18.365  40.666 -10.351  0.00  0.00    +0.000 C 
BRANCH  14  15
ATOM     15  C   UNL     1     -19.271  40.957  -9.204  0.00  0.00    +0.000 A 
ATOM     16  C   UNL     1     -20.499  40.302  -9.100  0.00  0.00    +0.000 A 
ATOM     17  C   UNL     1     -18.891  41.883  -8.233  0.00  0.00    +0.000 A 
ATOM     18  C   UNL     1     -21.346  40.574  -8.027  0.00  0.00    +0.000 A 
ATOM     19  C   UNL     1     -19.738  42.155  -7.159  0.00  0.00    +0.000 A 
ATOM     20  C   UNL     1     -20.966  41.502  -7.056  0.00  0.00    +0.000 A 
ENDBRANCH  14  15
ENDBRANCH   2  14
TORSDOF 3
ENDMDL
MODEL 5
REMARK VINA RESULT:    -6.366      3.294      3.871
REMARK INTER + INTRA:          -7.867
REMARK INTER:                  -7.500
REMARK INTRA:                  -0.367
REMARK UNBOUND:                -0.385
REMARK  Name = 62074657
REMARK  3 active torsions:
REMARK  status: ('A' for Active; 'I' for Inactive)
REMARK    1  A    between atoms: N_2  and  C_5
REMARK    2  A    between atoms: C_5  and  C_6
REMARK    3  A    between atoms: C_7  and  C_8
REMARK                            x       y       z     vdW  Elec       q    Type
REMARK                         _______ _______ _______ _____ _____    ______ ____
ROOT
ATOM      1  O   UNL     1     -17.729  42.230 -12.528  0.00  0.00    +0.000 OA
ATOM      2  N   UNL     1     -16.908  41.347 -10.546  0.00  0.00    +0.000 N 
ATOM      3  C   UNL     1     -16.891  42.214 -11.630  0.00  0.00    +0.000 C 
ATOM      4  H   UNL     1     -16.145  41.341  -9.878  0.00  0.00    +0.000 HD
ENDROOT
BRANCH   3   7
ATOM      5  N   UNL     1     -14.924  45.374 -12.202  0.00  0.00    +0.000 NA
ATOM      6  N   UNL     1     -12.616  45.870 -11.883  0.00  0.00    +0.000 N 
ATOM      7  C   UNL     1     -15.747  43.160 -11.688  0.00  0.00    +0.000 A 
ATOM      8  C   UNL     1     -14.470  42.766 -11.305  0.00  0.00    +0.000 A 
ATOM      9  C   UNL     1     -15.920  44.464 -12.125  0.00  0.00    +0.000 A 
ATOM     10  C   UNL     1     -13.419  43.675 -11.371  0.00  0.00    +0.000 A 
ATOM     11  C   UNL     1     -13.696  44.956 -11.823  0.00  0.00    +0.000 A 
ATOM     12  H   UNL     1     -11.843  45.745 -11.240  0.00  0.00    +0.000 HD
ATOM     13  H   UNL     1     -12.824  46.806 -12.208  0.00  0.00    +0.000 HD
ENDBRANCH   3   7
BRANCH   2  14
ATOM     14  C   UNL     1     -17.938  40.355 -10.363  0.00  0.00    +0.000 C 
BRANCH  14  15
ATOM     15  C   UNL     1     -18.944  40.763  -9.342  0.00  0.00    +0.000 A 
ATOM     16  C   UNL     1     -18.646  41.781  -8.435  0.00  0.00    +0.000 A 
ATOM     17  C   UNL     1     -20.185  40.127  -9.292  0.00  0.00    +0.000 A 
ATOM     18  C   UNL     1     -19.587  42.163  -7.480  0.00  0.00    +0.000 A 
ATOM     19  C   UNL     1     -21.126  40.509  -8.337  0.00  0.00    +0.000 A 
ATOM     20  C   UNL     1     -20.828  41.527  -7.431  0.00  0.00    +0.000 A 
ENDBRANCH  14  15
ENDBRANCH   2  14
TORSDOF 3
ENDMDL
