MODEL 1
REMARK VINA RESULT:    -5.781      0.000      0.000
REMARK INTER + INTRA:          -6.750
REMARK INTER:                  -6.457
REMARK INTRA:                  -0.294
REMARK UNBOUND:                -0.294
REMARK  Name = 62075007
REMARK  2 active torsions:
REMARK  status: ('A' for Active; 'I' for Inactive)
REMARK    1  A    between atoms: N_2  and  C_5
REMARK    2  A    between atoms: C_10  and  C_11
REMARK                            x       y       z     vdW  Elec       q    Type
REMARK                         _______ _______ _______ _____ _____    ______ ____
ROOT
ATOM      1  O   UNL     1     -18.791  44.608 -14.212  0.00  0.00    +0.000 OA
ATOM      2  N   UNL     1     -19.287  42.345 -14.110  0.00  0.00    +0.000 N 
ATOM      3  C   UNL     1     -19.263  43.594 -14.716  0.00  0.00    +0.000 C 
ATOM      4  H   UNL     1     -19.784  41.578 -14.550  0.00  0.00    +0.000 HD
ENDROOT
BRANCH   3   7
ATOM      5  N   UNL     1     -19.789  44.484 -18.338  0.00  0.00    +0.000 NA
ATOM      6  N   UNL     1     -21.555  43.953 -19.847  0.00  0.00    +0.000 N 
ATOM      7  C   UNL     1     -19.888  43.675 -16.062  0.00  0.00    +0.000 A 
ATOM      8  C   UNL     1     -21.103  43.054 -16.327  0.00  0.00    +0.000 A 
ATOM      9  C   UNL     1     -19.276  44.372 -17.092  0.00  0.00    +0.000 A 
ATOM     10  C   UNL     1     -21.662  43.148 -17.597  0.00  0.00    +0.000 A 
ATOM     11  C   UNL     1     -20.972  43.868 -18.558  0.00  0.00    +0.000 A 
ATOM     12  H   UNL     1     -22.158  43.200 -20.154  0.00  0.00    +0.000 HD
ATOM     13  H   UNL     1     -21.044  44.476 -20.548  0.00  0.00    +0.000 HD
ENDBRANCH   3   7
BRANCH   2  14
ATOM     14  C   UNL     1     -18.745  42.111 -12.795  0.00  0.00    +0.000 C 
ATOM     15  C   UNL     1     -17.336  41.538 -12.861  0.00  0.00    +0.000 C 
ATOM     16  C   UNL     1     -19.514  41.031 -12.046  0.00  0.00    +0.000 C 
ATOM     17  C   UNL     1     -17.540  40.045 -13.101  0.00  0.00    +0.000 C 
ATOM     18  C   UNL     1     -18.922  39.711 -12.538  0.00  0.00    +0.000 C 
ENDBRANCH   2  14
TORSDOF 2
ENDMDL
MODEL 2
REMARK VINA RESULT:    -5.638      4.506      6.705
REMARK INTER + INTRA:          -6.590
REMARK INTER:                  -6.284
REMARK INTRA:                  -0.306
REMARK UNBOUND:                -0.294
REMARK  Name = 62075007
REMARK  2 active torsions:
REMARK  status: ('A' for Active; 'I' for Inactive)
REMARK    1  A    between atoms: N_2  and  C_5
REMARK    2  A    between atoms: C_10  and  C_11
REMARK                            x       y       z     vdW  Elec       q    Type
REMARK                         _______ _______ _______ _____ _____    ______ ____
ROOT
ATOM      1  O   UNL     1     -15.508  43.912 -11.789  0.00  0.00    +0.000 OA
ATOM      2  N   UNL     1     -14.215  42.142 -11.031  0.00  0.00    +0.000 N 
ATOM      3  C   UNL     1     -15.369  42.717 -11.546  0.00  0.00    +0.000 C 
ATOM      4  H   UNL     1     -14.212  41.164 -10.765  0.00  0.00    +0.000 HD
ENDROOT
BRANCH   3   7
ATOM      5  N   UNL     1     -18.531  41.277 -13.000  0.00  0.00    +0.000 NA
ATOM      6  N   UNL     1     -19.712  39.265 -12.512  0.00  0.00    +0.000 N 
ATOM      7  C   UNL     1     -16.507  41.791 -11.783  0.00  0.00    +0.000 A 
ATOM      8  C   UNL     1     -16.634  40.612 -11.057  0.00  0.00    +0.000 A 
ATOM      9  C   UNL     1     -17.473  42.076 -12.734  0.00  0.00    +0.000 A 
ATOM     10  C   UNL     1     -17.709  39.765 -11.302  0.00  0.00    +0.000 A 
ATOM     11  C   UNL     1     -18.622  40.139 -12.275  0.00  0.00    +0.000 A 
ATOM     12  H   UNL     1     -19.586  38.277 -12.329  0.00  0.00    +0.000 HD
ATOM     13  H   UNL     1     -20.373  39.540 -13.229  0.00  0.00    +0.000 HD
ENDBRANCH   3   7
BRANCH   2  14
ATOM     14  C   UNL     1     -13.036  42.913 -10.724  0.00  0.00    +0.000 C 
ATOM     15  C   UNL     1     -12.100  43.011 -11.921  0.00  0.00    +0.000 C 
ATOM     16  C   UNL     1     -12.169  42.232  -9.672  0.00  0.00    +0.000 C 
ATOM     17  C   UNL     1     -11.315  41.703 -11.903  0.00  0.00    +0.000 C 
ATOM     18  C   UNL     1     -11.323  41.225 -10.450  0.00  0.00    +0.000 C 
ENDBRANCH   2  14
TORSDOF 2
ENDMDL
MODEL 3
REMARK VINA RESULT:    -5.556      2.064      6.148
REMARK INTER + INTRA:          -6.499
REMARK INTER:                  -6.210
REMARK INTRA:                  -0.289
REMARK UNBOUND:                -0.294
REMARK  Name = 62075007
REMARK  2 active torsions:
REMARK  status: ('A' for Active; 'I' for Inactive)
REMARK    1  A    between atoms: N_2  and  C_5
REMARK    2  A    between atoms: C_10  and  C_11
REMARK                            x       y       z     vdW  Elec       q    Type
REMARK                         _______ _______ _______ _____ _____    ______ ____
ROOT
ATOM      1  O   UNL     1     -18.399  45.302 -14.183  0.00  0.00    +0.000 OA
ATOM      2  N   UNL     1     -19.316  43.458 -15.250  0.00  0.00    +0.000 N 
ATOM      3  C   UNL     1     -18.728  44.120 -14.180  0.00  0.00    +0.000 C 
ATOM      4  H   UNL     1     -19.468  42.456 -15.205  0.00  0.00    +0.000 HD
ENDROOT
BRANCH   3   7
ATOM      5  N   UNL     1     -18.872  41.256 -11.738  0.00  0.00    +0.000 NA
ATOM      6  N   UNL     1     -17.817  40.937  -9.625  0.00  0.00    +0.000 N 
ATOM      7  C   UNL     1     -18.473  43.297 -12.969  0.00  0.00    +0.000 A 
ATOM      8  C   UNL     1     -17.635  43.753 -11.957  0.00  0.00    +0.000 A 
ATOM      9  C   UNL     1     -19.063  42.054 -12.813  0.00  0.00    +0.000 A 
ATOM     10  C   UNL     1     -17.415  42.961 -10.836  0.00  0.00    +0.000 A 
ATOM     11  C   UNL     1     -18.052  41.731 -10.775  0.00  0.00    +0.000 A 
ATOM     12  H   UNL     1     -16.938  41.045  -9.135  0.00  0.00    +0.000 HD
ATOM     13  H   UNL     1     -18.280  40.036  -9.588  0.00  0.00    +0.000 HD
ENDBRANCH   3   7
BRANCH   2  14
ATOM     14  C   UNL     1     -19.603  44.113 -16.502  0.00  0.00    +0.000 C 
ATOM     15  C   UNL     1     -20.974  44.776 -16.489  0.00  0.00    +0.000 C 
ATOM     16  C   UNL     1     -19.720  43.118 -17.650  0.00  0.00    +0.000 C 
ATOM     17  C   UNL     1     -21.951  43.644 -16.795  0.00  0.00    +0.000 C 
ATOM     18  C   UNL     1     -21.156  42.599 -17.578  0.00  0.00    +0.000 C 
ENDBRANCH   2  14
TORSDOF 2
ENDMDL
MODEL 4
REMARK VINA RESULT:    -5.404      2.277      6.331
REMARK INTER + INTRA:          -6.329
REMARK INTER:                  -6.029
REMARK INTRA:                  -0.300
REMARK UNBOUND:                -0.294
REMARK  Name = 62075007
REMARK  2 active torsions:
REMARK  status: ('A' for Active; 'I' for Inactive)
REMARK    1  A    between atoms: N_2  and  C_5
REMARK    2  A    between atoms: C_10  and  C_11
REMARK                            x       y       z     vdW  Elec       q    Type
REMARK                         _______ _______ _______ _____ _____    ______ ____
ROOT
ATOM      1  O   UNL     1     -20.219  42.140 -13.949  0.00  0.00    +0.000 OA
ATOM      2  N   UNL     1     -18.983  43.607 -15.252  0.00  0.00    +0.000 N 
ATOM      3  C   UNL     1     -19.162  42.705 -14.213  0.00  0.00    +0.000 C 
ATOM      4  H   UNL     1     -18.105  44.107 -15.345  0.00  0.00    +0.000 HD
ENDROOT
BRANCH   3   7
ATOM      5  N   UNL     1     -16.691  40.903 -12.013  0.00  0.00    +0.000 NA
ATOM      6  N   UNL     1     -14.674  41.642 -10.982  0.00  0.00    +0.000 N 
ATOM      7  C   UNL     1     -17.970  42.448 -13.363  0.00  0.00    +0.000 A 
ATOM      8  C   UNL     1     -17.038  43.449 -13.115  0.00  0.00    +0.000 A 
ATOM      9  C   UNL     1     -17.754  41.203 -12.794  0.00  0.00    +0.000 A 
ATOM     10  C   UNL     1     -15.932  43.178 -12.316  0.00  0.00    +0.000 A 
ATOM     11  C   UNL     1     -15.806  41.901 -11.793  0.00  0.00    +0.000 A 
ATOM     12  H   UNL     1     -13.831  42.177 -11.145  0.00  0.00    +0.000 HD
ATOM     13  H   UNL     1     -14.583  40.705 -10.607  0.00  0.00    +0.000 HD
ENDBRANCH   3   7
BRANCH   2  14
ATOM     14  C   UNL     1     -20.051  43.979 -16.148  0.00  0.00    +0.000 C 
ATOM     15  C   UNL     1     -20.124  43.050 -17.352  0.00  0.00    +0.000 C 
ATOM     16  C   UNL     1     -19.809  45.341 -16.786  0.00  0.00    +0.000 C 
ATOM     17  C   UNL     1     -19.063  43.579 -18.311  0.00  0.00    +0.000 C 
ATOM     18  C   UNL     1     -18.892  45.061 -17.976  0.00  0.00    +0.000 C 
ENDBRANCH   2  14
TORSDOF 2
ENDMDL
MODEL 5
REMARK VINA RESULT:    -5.268      2.215      6.278
REMARK INTER + INTRA:          -6.178
REMARK INTER:                  -5.897
REMARK INTRA:                  -0.281
REMARK UNBOUND:                -0.294
REMARK  Name = 62075007
REMARK  2 active torsions:
REMARK  status: ('A' for Active; 'I' for Inactive)
REMARK    1  A    between atoms: N_2  and  C_5
REMARK    2  A    between atoms: C_10  and  C_11
REMARK                            x       y       z     vdW  Elec       q    Type
REMARK                         _______ _______ _______ _____ _____    ______ ____
ROOT
ATOM      1  O   UNL     1     -19.998  42.326 -16.820  0.00  0.00    +0.000 OA
ATOM      2  N   UNL     1     -21.227  44.220 -16.289  0.00  0.00    +0.000 N 
ATOM      3  C   UNL     1     -20.245  43.263 -16.068  0.00  0.00    +0.000 C 
ATOM      4  H   UNL     1     -21.437  44.906 -15.573  0.00  0.00    +0.000 HD
ENDROOT
BRANCH   3   7
ATOM      5  N   UNL     1     -18.735  42.432 -12.719  0.00  0.00    +0.000 NA
ATOM      6  N   UNL     1     -17.349  43.708 -11.259  0.00  0.00    +0.000 N 
ATOM      7  C   UNL     1     -19.474  43.404 -14.805  0.00  0.00    +0.000 A 
ATOM      8  C   UNL     1     -18.788  44.577 -14.511  0.00  0.00    +0.000 A 
ATOM      9  C   UNL     1     -19.417  42.370 -13.885  0.00  0.00    +0.000 A 
ATOM     10  C   UNL     1     -18.076  44.679 -13.322  0.00  0.00    +0.000 A 
ATOM     11  C   UNL     1     -18.080  43.588 -12.467  0.00  0.00    +0.000 A 
ATOM     12  H   UNL     1     -16.549  44.327 -11.239  0.00  0.00    +0.000 HD
ATOM     13  H   UNL     1     -17.350  42.906 -10.640  0.00  0.00    +0.000 HD
ENDBRANCH   3   7
BRANCH   2  14
ATOM     14  C   UNL     1     -22.075  44.204 -17.455  0.00  0.00    +0.000 C 
ATOM     15  C   UNL     1     -21.406  44.875 -18.647  0.00  0.00    +0.000 C 
ATOM     16  C   UNL     1     -23.331  45.043 -17.256  0.00  0.00    +0.000 C 
ATOM     17  C   UNL     1     -21.641  46.367 -18.429  0.00  0.00    +0.000 C 
ATOM     18  C   UNL     1     -22.903  46.475 -17.572  0.00  0.00    +0.000 C 
ENDBRANCH   2  14
TORSDOF 2
ENDMDL
