MODEL 1
REMARK VINA RESULT:    -6.567      0.000      0.000
REMARK INTER + INTRA:          -7.967
REMARK INTER:                  -7.718
REMARK INTRA:                  -0.248
REMARK UNBOUND:                -0.248
REMARK  Name = 62074154
REMARK  4 active torsions:
REMARK  status: ('A' for Active; 'I' for Inactive)
REMARK    1  A    between atoms: N_2  and  C_5
REMARK    2  A    between atoms: C_5  and  C_6
REMARK    3  A    between atoms: C_6  and  C_7
REMARK    4  A    between atoms: C_8  and  C_9
REMARK                            x       y       z     vdW  Elec       q    Type
REMARK                         _______ _______ _______ _____ _____    ______ ____
ROOT
ATOM      1  N   UNL     1     -22.228  41.365  -7.448  0.00  0.00    +0.000 NA
ATOM      2  N   UNL     1     -22.496  42.890  -5.636  0.00  0.00    +0.000 N 
ATOM      3  C   UNL     1     -20.038  41.047  -8.421  0.00  0.00    +0.000 A 
ATOM      4  C   UNL     1     -19.499  41.965  -7.525  0.00  0.00    +0.000 A 
ATOM      5  C   UNL     1     -21.396  40.785  -8.341  0.00  0.00    +0.000 A 
ATOM      6  C   UNL     1     -20.324  42.583  -6.591  0.00  0.00    +0.000 A 
ATOM      7  C   UNL     1     -21.669  42.251  -6.594  0.00  0.00    +0.000 A 
ATOM      8  H   UNL     1     -22.080  43.191  -4.764  0.00  0.00    +0.000 HD
ATOM      9  H   UNL     1     -23.478  42.640  -5.638  0.00  0.00    +0.000 HD
ENDROOT
BRANCH   3  12
ATOM     10  O   UNL     1     -17.970  40.312  -9.247  0.00  0.00    +0.000 OA
ATOM     11  N   UNL     1     -19.845  39.818 -10.521  0.00  0.00    +0.000 N 
ATOM     12  C   UNL     1     -19.183  40.370  -9.430  0.00  0.00    +0.000 C 
ATOM     13  H   UNL     1     -20.858  39.853 -10.580  0.00  0.00    +0.000 HD
BRANCH  11  14
ATOM     14  C   UNL     1     -19.161  39.110 -11.567  0.00  0.00    +0.000 C 
BRANCH  14  15
ATOM     15  C   UNL     1     -18.684  40.037 -12.679  0.00  0.00    +0.000 C 
ATOM     16  C   UNL     1     -17.169  40.048 -12.827  0.00  0.00    +0.000 C 
ENDBRANCH  14  15
ENDBRANCH  11  14
ENDBRANCH   3  12
TORSDOF 3
ENDMDL
MODEL 2
REMARK VINA RESULT:    -6.421      1.600      2.113
REMARK INTER + INTRA:          -7.796
REMARK INTER:                  -7.613
REMARK INTRA:                  -0.183
REMARK UNBOUND:                -0.248
REMARK  Name = 62074154
REMARK  4 active torsions:
REMARK  status: ('A' for Active; 'I' for Inactive)
REMARK    1  A    between atoms: N_2  and  C_5
REMARK    2  A    between atoms: C_5  and  C_6
REMARK    3  A    between atoms: C_6  and  C_7
REMARK    4  A    between atoms: C_8  and  C_9
REMARK                            x       y       z     vdW  Elec       q    Type
REMARK                         _______ _______ _______ _____ _____    ______ ____
ROOT
ATOM      1  N   UNL     1     -19.333  42.292  -7.234  0.00  0.00    +0.000 NA
ATOM      2  N   UNL     1     -21.290  42.648  -5.921  0.00  0.00    +0.000 N 
ATOM      3  C   UNL     1     -19.408  40.734  -9.081  0.00  0.00    +0.000 A 
ATOM      4  C   UNL     1     -20.745  40.463  -8.807  0.00  0.00    +0.000 A 
ATOM      5  C   UNL     1     -18.754  41.648  -8.272  0.00  0.00    +0.000 A 
ATOM      6  C   UNL     1     -21.376  41.105  -7.747  0.00  0.00    +0.000 A 
ATOM      7  C   UNL     1     -20.633  42.002  -6.998  0.00  0.00    +0.000 A 
ATOM      8  H   UNL     1     -22.291  42.789  -5.982  0.00  0.00    +0.000 HD
ATOM      9  H   UNL     1     -20.745  43.307  -5.380  0.00  0.00    +0.000 HD
ENDROOT
BRANCH   3  12
ATOM     10  O   UNL     1     -19.293  39.201 -10.852  0.00  0.00    +0.000 OA
ATOM     11  N   UNL     1     -17.410  40.500 -10.464  0.00  0.00    +0.000 N 
ATOM     12  C   UNL     1     -18.705  40.066 -10.207  0.00  0.00    +0.000 C 
ATOM     13  H   UNL     1     -17.006  41.260  -9.926  0.00  0.00    +0.000 HD
BRANCH  11  14
ATOM     14  C   UNL     1     -16.611  39.968 -11.533  0.00  0.00    +0.000 C 
BRANCH  14  15
ATOM     15  C   UNL     1     -17.026  40.512 -12.894  0.00  0.00    +0.000 C 
ATOM     16  C   UNL     1     -17.038  42.033 -12.940  0.00  0.00    +0.000 C 
ENDBRANCH  14  15
ENDBRANCH  11  14
ENDBRANCH   3  12
TORSDOF 3
ENDMDL
MODEL 3
REMARK VINA RESULT:    -5.535      2.891      5.734
REMARK INTER + INTRA:          -6.754
REMARK INTER:                  -6.584
REMARK INTRA:                  -0.170
REMARK UNBOUND:                -0.248
REMARK  Name = 62074154
REMARK  4 active torsions:
REMARK  status: ('A' for Active; 'I' for Inactive)
REMARK    1  A    between atoms: N_2  and  C_5
REMARK    2  A    between atoms: C_5  and  C_6
REMARK    3  A    between atoms: C_6  and  C_7
REMARK    4  A    between atoms: C_8  and  C_9
REMARK                            x       y       z     vdW  Elec       q    Type
REMARK                         _______ _______ _______ _____ _____    ______ ____
ROOT
ATOM      1  N   UNL     1     -19.651  42.158 -14.075  0.00  0.00    +0.000 NA
ATOM      2  N   UNL     1     -18.865  44.024 -15.331  0.00  0.00    +0.000 N 
ATOM      3  C   UNL     1     -18.746  41.740 -11.872  0.00  0.00    +0.000 A 
ATOM      4  C   UNL     1     -17.922  42.855 -11.992  0.00  0.00    +0.000 A 
ATOM      5  C   UNL     1     -19.585  41.438 -12.932  0.00  0.00    +0.000 A 
ATOM      6  C   UNL     1     -17.962  43.621 -13.152  0.00  0.00    +0.000 A 
ATOM      7  C   UNL     1     -18.836  43.233 -14.155  0.00  0.00    +0.000 A 
ATOM      8  H   UNL     1     -18.624  45.005 -15.258  0.00  0.00    +0.000 HD
ATOM      9  H   UNL     1     -19.509  43.741 -16.058  0.00  0.00    +0.000 HD
ENDROOT
BRANCH   3  12
ATOM     10  O   UNL     1     -17.668  40.398 -10.280  0.00  0.00    +0.000 OA
ATOM     11  N   UNL     1     -19.938  40.769  -9.976  0.00  0.00    +0.000 N 
ATOM     12  C   UNL     1     -18.727  40.902 -10.646  0.00  0.00    +0.000 C 
ATOM     13  H   UNL     1     -20.763  41.261 -10.303  0.00  0.00    +0.000 HD
BRANCH  11  14
ATOM     14  C   UNL     1     -20.076  40.012  -8.763  0.00  0.00    +0.000 C 
BRANCH  14  15
ATOM     15  C   UNL     1     -19.625  40.794  -7.536  0.00  0.00    +0.000 C 
ATOM     16  C   UNL     1     -20.640  41.840  -7.099  0.00  0.00    +0.000 C 
ENDBRANCH  14  15
ENDBRANCH  11  14
ENDBRANCH   3  12
TORSDOF 3
ENDMDL
MODEL 4
REMARK VINA RESULT:    -5.364      2.145      5.681
REMARK INTER + INTRA:          -6.553
REMARK INTER:                  -6.418
REMARK INTRA:                  -0.135
REMARK UNBOUND:                -0.248
REMARK  Name = 62074154
REMARK  4 active torsions:
REMARK  status: ('A' for Active; 'I' for Inactive)
REMARK    1  A    between atoms: N_2  and  C_5
REMARK    2  A    between atoms: C_5  and  C_6
REMARK    3  A    between atoms: C_6  and  C_7
REMARK    4  A    between atoms: C_8  and  C_9
REMARK                            x       y       z     vdW  Elec       q    Type
REMARK                         _______ _______ _______ _____ _____    ______ ____
ROOT
ATOM      1  N   UNL     1     -18.556  40.771 -12.413  0.00  0.00    +0.000 NA
ATOM      2  N   UNL     1     -16.523  41.867 -12.997  0.00  0.00    +0.000 N 
ATOM      3  C   UNL     1     -19.343  40.861 -10.129  0.00  0.00    +0.000 A 
ATOM      4  C   UNL     1     -18.238  41.626  -9.771  0.00  0.00    +0.000 A 
ATOM      5  C   UNL     1     -19.455  40.462 -11.451  0.00  0.00    +0.000 A 
ATOM      6  C   UNL     1     -17.292  41.964 -10.734  0.00  0.00    +0.000 A 
ATOM      7  C   UNL     1     -17.496  41.515 -12.028  0.00  0.00    +0.000 A 
ATOM      8  H   UNL     1     -15.998  42.723 -12.864  0.00  0.00    +0.000 HD
ATOM      9  H   UNL     1     -16.679  41.543 -13.943  0.00  0.00    +0.000 HD
ENDROOT
BRANCH   3  12
ATOM     10  O   UNL     1     -20.704  39.306  -9.021  0.00  0.00    +0.000 OA
ATOM     11  N   UNL     1     -20.873  41.519  -8.344  0.00  0.00    +0.000 N 
ATOM     12  C   UNL     1     -20.371  40.484  -9.125  0.00  0.00    +0.000 C 
ATOM     13  H   UNL     1     -20.511  42.462  -8.445  0.00  0.00    +0.000 HD
BRANCH  11  14
ATOM     14  C   UNL     1     -21.854  41.310  -7.315  0.00  0.00    +0.000 C 
BRANCH  14  15
ATOM     15  C   UNL     1     -22.309  42.615  -6.674  0.00  0.00    +0.000 C 
ATOM     16  C   UNL     1     -21.896  42.729  -5.214  0.00  0.00    +0.000 C 
ENDBRANCH  14  15
ENDBRANCH  11  14
ENDBRANCH   3  12
TORSDOF 3
ENDMDL
MODEL 5
REMARK VINA RESULT:    -5.158      3.456      4.603
REMARK INTER + INTRA:          -6.311
REMARK INTER:                  -6.173
REMARK INTRA:                  -0.138
REMARK UNBOUND:                -0.248
REMARK  Name = 62074154
REMARK  4 active torsions:
REMARK  status: ('A' for Active; 'I' for Inactive)
REMARK    1  A    between atoms: N_2  and  C_5
REMARK    2  A    between atoms: C_5  and  C_6
REMARK    3  A    between atoms: C_6  and  C_7
REMARK    4  A    between atoms: C_8  and  C_9
REMARK                            x       y       z     vdW  Elec       q    Type
REMARK                         _______ _______ _______ _____ _____    ______ ____
ROOT
ATOM      1  N   UNL     1     -19.627  40.286 -10.343  0.00  0.00    +0.000 NA
ATOM      2  N   UNL     1     -19.078  40.257  -8.024  0.00  0.00    +0.000 N 
ATOM      3  C   UNL     1     -18.606  41.934 -11.786  0.00  0.00    +0.000 A 
ATOM      4  C   UNL     1     -17.903  42.456 -10.705  0.00  0.00    +0.000 A 
ATOM      5  C   UNL     1     -19.447  40.859 -11.554  0.00  0.00    +0.000 A 
ATOM      6  C   UNL     1     -18.061  41.893  -9.443  0.00  0.00    +0.000 A 
ATOM      7  C   UNL     1     -18.928  40.820  -9.316  0.00  0.00    +0.000 A 
ATOM      8  H   UNL     1     -18.304  40.327  -7.374  0.00  0.00    +0.000 HD
ATOM      9  H   UNL     1     -19.707  39.469  -7.937  0.00  0.00    +0.000 HD
ENDROOT
BRANCH   3  12
ATOM     10  O   UNL     1     -17.358  42.924 -13.507  0.00  0.00    +0.000 OA
ATOM     11  N   UNL     1     -19.602  42.520 -13.936  0.00  0.00    +0.000 N 
ATOM     12  C   UNL     1     -18.458  42.512 -13.147  0.00  0.00    +0.000 C 
ATOM     13  H   UNL     1     -20.466  42.111 -13.595  0.00  0.00    +0.000 HD
BRANCH  11  14
ATOM     14  C   UNL     1     -19.613  43.023 -15.282  0.00  0.00    +0.000 C 
BRANCH  14  15
ATOM     15  C   UNL     1     -21.025  43.158 -15.839  0.00  0.00    +0.000 C 
ATOM     16  C   UNL     1     -21.065  43.109 -17.360  0.00  0.00    +0.000 C 
ENDBRANCH  14  15
ENDBRANCH  11  14
ENDBRANCH   3  12
TORSDOF 3
ENDMDL
