MODEL 1
REMARK VINA RESULT:    -5.631      0.000      0.000
REMARK INTER + INTRA:          -7.760
REMARK INTER:                  -7.277
REMARK INTRA:                  -0.482
REMARK UNBOUND:                -0.482
REMARK  Name = 62073450
REMARK  7 active torsions:
REMARK  status: ('A' for Active; 'I' for Inactive)
REMARK    1  A    between atoms: N_2  and  C_5
REMARK    2  A    between atoms: N_2  and  C_6
REMARK    3  A    between atoms: C_5  and  C_7
REMARK    4  A    between atoms: C_6  and  C_8
REMARK    5  A    between atoms: C_7  and  C_10
REMARK    6  A    between atoms: C_8  and  C_11
REMARK    7  A    between atoms: C_9  and  C_12
REMARK                            x       y       z     vdW  Elec       q    Type
REMARK                         _______ _______ _______ _____ _____    ______ ____
ROOT
ATOM      1  O   UNL     1     -17.728  42.739  -8.786  0.00  0.00    +0.000 OA
ATOM      2  N   UNL     1     -18.820  41.182 -10.146  0.00  0.00    +0.000 N 
ATOM      3  C   UNL     1     -17.989  42.291  -9.902  0.00  0.00    +0.000 C 
ENDROOT
BRANCH   3   6
ATOM      4  N   UNL     1     -15.439  43.437 -12.407  0.00  0.00    +0.000 NA
ATOM      5  N   UNL     1     -15.610  44.943 -14.245  0.00  0.00    +0.000 N 
ATOM      6  C   UNL     1     -17.387  42.997 -11.044  0.00  0.00    +0.000 A 
ATOM      7  C   UNL     1     -18.142  43.862 -11.831  0.00  0.00    +0.000 A 
ATOM      8  C   UNL     1     -16.053  42.821 -11.372  0.00  0.00    +0.000 A 
ATOM      9  C   UNL     1     -17.545  44.515 -12.904  0.00  0.00    +0.000 A 
ATOM     10  C   UNL     1     -16.204  44.271 -13.147  0.00  0.00    +0.000 A 
ATOM     11  H   UNL     1     -14.631  44.757 -14.423  0.00  0.00    +0.000 HD
ATOM     12  H   UNL     1     -16.199  45.201 -15.027  0.00  0.00    +0.000 HD
ENDBRANCH   3   6
BRANCH   2  13
ATOM     13  C   UNL     1     -19.089  40.700 -11.508  0.00  0.00    +0.000 C 
BRANCH  13  14
ATOM     14  C   UNL     1     -18.170  39.553 -11.910  0.00  0.00    +0.000 C 
ATOM     15  C   UNL     1     -17.284  39.897 -13.099  0.00  0.00    +0.000 C 
ENDBRANCH  13  14
ENDBRANCH   2  13
BRANCH   2  16
ATOM     16  C   UNL     1     -19.453  40.459  -9.077  0.00  0.00    +0.000 C 
BRANCH  16  17
ATOM     17  C   UNL     1     -20.713  41.153  -8.574  0.00  0.00    +0.000 C 
ATOM     18  C   UNL     1     -20.589  41.627  -7.132  0.00  0.00    +0.000 C 
ENDBRANCH  16  17
ENDBRANCH   2  16
TORSDOF 5
ENDMDL
MODEL 2
REMARK VINA RESULT:    -5.305      1.851      5.387
REMARK INTER + INTRA:          -7.338
REMARK INTER:                  -6.801
REMARK INTRA:                  -0.536
REMARK UNBOUND:                -0.482
REMARK  Name = 62073450
REMARK  7 active torsions:
REMARK  status: ('A' for Active; 'I' for Inactive)
REMARK    1  A    between atoms: N_2  and  C_5
REMARK    2  A    between atoms: N_2  and  C_6
REMARK    3  A    between atoms: C_5  and  C_7
REMARK    4  A    between atoms: C_6  and  C_8
REMARK    5  A    between atoms: C_7  and  C_10
REMARK    6  A    between atoms: C_8  and  C_11
REMARK    7  A    between atoms: C_9  and  C_12
REMARK                            x       y       z     vdW  Elec       q    Type
REMARK                         _______ _______ _______ _____ _____    ______ ____
ROOT
ATOM      1  O   UNL     1     -15.335  41.418 -11.239  0.00  0.00    +0.000 OA
ATOM      2  N   UNL     1     -16.601  43.138 -12.191  0.00  0.00    +0.000 N 
ATOM      3  C   UNL     1     -16.414  41.988 -11.402  0.00  0.00    +0.000 C 
ENDROOT
BRANCH   3   6
ATOM      4  N   UNL     1     -19.241  39.638 -10.642  0.00  0.00    +0.000 NA
ATOM      5  N   UNL     1     -20.849  39.634  -8.885  0.00  0.00    +0.000 N 
ATOM      6  C   UNL     1     -17.575  41.389 -10.726  0.00  0.00    +0.000 A 
ATOM      7  C   UNL     1     -18.107  41.960  -9.574  0.00  0.00    +0.000 A 
ATOM      8  C   UNL     1     -18.173  40.239 -11.215  0.00  0.00    +0.000 A 
ATOM      9  C   UNL     1     -19.205  41.371  -8.957  0.00  0.00    +0.000 A 
ATOM     10  C   UNL     1     -19.730  40.222  -9.525  0.00  0.00    +0.000 A 
ATOM     11  H   UNL     1     -21.226  38.790  -9.300  0.00  0.00    +0.000 HD
ATOM     12  H   UNL     1     -20.957  39.766  -7.887  0.00  0.00    +0.000 HD
ENDBRANCH   3   6
BRANCH   2  13
ATOM     13  C   UNL     1     -17.921  43.768 -12.342  0.00  0.00    +0.000 C 
BRANCH  13  14
ATOM     14  C   UNL     1     -18.490  43.593 -13.745  0.00  0.00    +0.000 C 
ATOM     15  C   UNL     1     -19.627  42.582 -13.797  0.00  0.00    +0.000 C 
ENDBRANCH  13  14
ENDBRANCH   2  13
BRANCH   2  16
ATOM     16  C   UNL     1     -15.514  43.762 -12.892  0.00  0.00    +0.000 C 
BRANCH  16  17
ATOM     17  C   UNL     1     -14.852  44.865 -12.074  0.00  0.00    +0.000 C 
ATOM     18  C   UNL     1     -13.479  44.467 -11.551  0.00  0.00    +0.000 C 
ENDBRANCH  16  17
ENDBRANCH   2  16
TORSDOF 5
ENDMDL
MODEL 3
REMARK VINA RESULT:    -4.738      2.367      5.489
REMARK INTER + INTRA:          -6.605
REMARK INTER:                  -6.111
REMARK INTRA:                  -0.494
REMARK UNBOUND:                -0.482
REMARK  Name = 62073450
REMARK  7 active torsions:
REMARK  status: ('A' for Active; 'I' for Inactive)
REMARK    1  A    between atoms: N_2  and  C_5
REMARK    2  A    between atoms: N_2  and  C_6
REMARK    3  A    between atoms: C_5  and  C_7
REMARK    4  A    between atoms: C_6  and  C_8
REMARK    5  A    between atoms: C_7  and  C_10
REMARK    6  A    between atoms: C_8  and  C_11
REMARK    7  A    between atoms: C_9  and  C_12
REMARK                            x       y       z     vdW  Elec       q    Type
REMARK                         _______ _______ _______ _____ _____    ______ ____
ROOT
ATOM      1  O   UNL     1     -18.729  45.088 -12.563  0.00  0.00    +0.000 OA
ATOM      2  N   UNL     1     -16.469  44.537 -12.801  0.00  0.00    +0.000 N 
ATOM      3  C   UNL     1     -17.831  44.247 -12.594  0.00  0.00    +0.000 C 
ENDROOT
BRANCH   3   6
ATOM      4  N   UNL     1     -19.088  40.782 -13.303  0.00  0.00    +0.000 NA
ATOM      5  N   UNL     1     -19.407  38.904 -11.872  0.00  0.00    +0.000 N 
ATOM      6  C   UNL     1     -18.239  42.850 -12.381  0.00  0.00    +0.000 A 
ATOM      7  C   UNL     1     -18.173  42.268 -11.119  0.00  0.00    +0.000 A 
ATOM      8  C   UNL     1     -18.698  42.071 -13.430  0.00  0.00    +0.000 A 
ATOM      9  C   UNL     1     -18.565  40.945 -10.949  0.00  0.00    +0.000 A 
ATOM     10  C   UNL     1     -19.011  40.252 -12.062  0.00  0.00    +0.000 A 
ATOM     11  H   UNL     1     -19.726  38.399 -12.690  0.00  0.00    +0.000 HD
ATOM     12  H   UNL     1     -18.979  38.378 -11.121  0.00  0.00    +0.000 HD
ENDBRANCH   3   6
BRANCH   2  13
ATOM     13  C   UNL     1     -15.447  43.481 -12.827  0.00  0.00    +0.000 C 
BRANCH  13  14
ATOM     14  C   UNL     1     -14.662  43.399 -11.523  0.00  0.00    +0.000 C 
ATOM     15  C   UNL     1     -13.176  43.670 -11.711  0.00  0.00    +0.000 C 
ENDBRANCH  13  14
ENDBRANCH   2  13
BRANCH   2  16
ATOM     16  C   UNL     1     -16.001  45.881 -12.997  0.00  0.00    +0.000 C 
BRANCH  16  17
ATOM     17  C   UNL     1     -15.995  46.689 -11.705  0.00  0.00    +0.000 C 
ATOM     18  C   UNL     1     -14.639  47.315 -11.408  0.00  0.00    +0.000 C 
ENDBRANCH  16  17
ENDBRANCH   2  16
TORSDOF 5
ENDMDL
MODEL 4
REMARK VINA RESULT:    -4.588      2.115      3.004
REMARK INTER + INTRA:          -6.411
REMARK INTER:                  -6.006
REMARK INTRA:                  -0.405
REMARK UNBOUND:                -0.482
REMARK  Name = 62073450
REMARK  7 active torsions:
REMARK  status: ('A' for Active; 'I' for Inactive)
REMARK    1  A    between atoms: N_2  and  C_5
REMARK    2  A    between atoms: N_2  and  C_6
REMARK    3  A    between atoms: C_5  and  C_7
REMARK    4  A    between atoms: C_6  and  C_8
REMARK    5  A    between atoms: C_7  and  C_10
REMARK    6  A    between atoms: C_8  and  C_11
REMARK    7  A    between atoms: C_9  and  C_12
REMARK                            x       y       z     vdW  Elec       q    Type
REMARK                         _______ _______ _______ _____ _____    ______ ____
ROOT
ATOM      1  O   UNL     1     -17.950  42.587 -10.013  0.00  0.00    +0.000 OA
ATOM      2  N   UNL     1     -18.587  42.150 -12.219  0.00  0.00    +0.000 N 
ATOM      3  C   UNL     1     -17.844  42.804 -11.219  0.00  0.00    +0.000 C 
ENDROOT
BRANCH   3   6
ATOM      4  N   UNL     1     -14.619  44.412 -12.272  0.00  0.00    +0.000 NA
ATOM      5  N   UNL     1     -14.074  46.685 -12.729  0.00  0.00    +0.000 N 
ATOM      6  C   UNL     1     -16.874  43.838 -11.612  0.00  0.00    +0.000 A 
ATOM      7  C   UNL     1     -17.248  45.175 -11.703  0.00  0.00    +0.000 A 
ATOM      8  C   UNL     1     -15.560  43.512 -11.905  0.00  0.00    +0.000 A 
ATOM      9  C   UNL     1     -16.309  46.129 -12.078  0.00  0.00    +0.000 A 
ATOM     10  C   UNL     1     -15.020  45.700 -12.349  0.00  0.00    +0.000 A 
ATOM     11  H   UNL     1     -13.135  46.366 -12.933  0.00  0.00    +0.000 HD
ATOM     12  H   UNL     1     -14.409  47.519 -13.196  0.00  0.00    +0.000 HD
ENDBRANCH   3   6
BRANCH   2  13
ATOM     13  C   UNL     1     -18.409  42.460 -13.645  0.00  0.00    +0.000 C 
BRANCH  13  14
ATOM     14  C   UNL     1     -19.511  43.364 -14.186  0.00  0.00    +0.000 C 
ATOM     15  C   UNL     1     -19.792  43.131 -15.664  0.00  0.00    +0.000 C 
ENDBRANCH  13  14
ENDBRANCH   2  13
BRANCH   2  16
ATOM     16  C   UNL     1     -19.563  41.144 -11.903  0.00  0.00    +0.000 C 
BRANCH  16  17
ATOM     17  C   UNL     1     -19.071  39.737 -12.224  0.00  0.00    +0.000 C 
ATOM     18  C   UNL     1     -17.720  39.428 -11.592  0.00  0.00    +0.000 C 
ENDBRANCH  16  17
ENDBRANCH   2  16
TORSDOF 5
ENDMDL
MODEL 5
REMARK VINA RESULT:    -4.523      2.032      3.461
REMARK INTER + INTRA:          -6.328
REMARK INTER:                  -6.227
REMARK INTRA:                  -0.101
REMARK UNBOUND:                -0.482
REMARK  Name = 62073450
REMARK  7 active torsions:
REMARK  status: ('A' for Active; 'I' for Inactive)
REMARK    1  A    between atoms: N_2  and  C_5
REMARK    2  A    between atoms: N_2  and  C_6
REMARK    3  A    between atoms: C_5  and  C_7
REMARK    4  A    between atoms: C_6  and  C_8
REMARK    5  A    between atoms: C_7  and  C_10
REMARK    6  A    between atoms: C_8  and  C_11
REMARK    7  A    between atoms: C_9  and  C_12
REMARK                            x       y       z     vdW  Elec       q    Type
REMARK                         _______ _______ _______ _____ _____    ______ ____
ROOT
ATOM      1  O   UNL     1     -18.433  42.588 -13.697  0.00  0.00    +0.000 OA
ATOM      2  N   UNL     1     -18.446  41.944 -11.449  0.00  0.00    +0.000 N 
ATOM      3  C   UNL     1     -18.142  42.804 -12.521  0.00  0.00    +0.000 C 
ENDROOT
BRANCH   3   6
ATOM      4  N   UNL     1     -15.291  45.197 -12.036  0.00  0.00    +0.000 NA
ATOM      5  N   UNL     1     -15.264  47.518 -11.498  0.00  0.00    +0.000 N 
ATOM      6  C   UNL     1     -17.410  44.051 -12.249  0.00  0.00    +0.000 A 
ATOM      7  C   UNL     1     -18.086  45.231 -11.959  0.00  0.00    +0.000 A 
ATOM      8  C   UNL     1     -16.025  44.087 -12.276  0.00  0.00    +0.000 A 
ATOM      9  C   UNL     1     -17.366  46.394 -11.707  0.00  0.00    +0.000 A 
ATOM     10  C   UNL     1     -15.983  46.325 -11.757  0.00  0.00    +0.000 A 
ATOM     11  H   UNL     1     -14.253  47.464 -11.542  0.00  0.00    +0.000 HD
ATOM     12  H   UNL     1     -15.706  48.403 -11.712  0.00  0.00    +0.000 HD
ENDBRANCH   3   6
BRANCH   2  13
ATOM     13  C   UNL     1     -18.069  42.265 -10.066  0.00  0.00    +0.000 C 
BRANCH  13  14
ATOM     14  C   UNL     1     -18.467  41.168  -9.085  0.00  0.00    +0.000 C 
ATOM     15  C   UNL     1     -19.297  41.692  -7.921  0.00  0.00    +0.000 C 
ENDBRANCH  13  14
ENDBRANCH   2  13
BRANCH   2  16
ATOM     16  C   UNL     1     -19.143  40.703 -11.647  0.00  0.00    +0.000 C 
BRANCH  16  17
ATOM     17  C   UNL     1     -18.325  39.699 -12.451  0.00  0.00    +0.000 C 
ATOM     18  C   UNL     1     -16.854  39.689 -12.057  0.00  0.00    +0.000 C 
ENDBRANCH  16  17
ENDBRANCH   2  16
TORSDOF 5
ENDMDL
