MODEL 1
REMARK VINA RESULT:    -6.376      0.000      0.000
REMARK INTER + INTRA:          -7.242
REMARK INTER:                  -7.122
REMARK INTRA:                  -0.121
REMARK UNBOUND:                -0.121
REMARK  Name = 62073744
REMARK  3 active torsions:
REMARK  status: ('A' for Active; 'I' for Inactive)
REMARK    1  A    between atoms: N_2  and  C_5
REMARK    2  A    between atoms: C_5  and  C_9
REMARK    3  A    between atoms: C_6  and  C_7
REMARK                            x       y       z     vdW  Elec       q    Type
REMARK                         _______ _______ _______ _____ _____    ______ ____
ROOT
ATOM      1  N   UNL     1     -19.304  42.325  -7.257  0.00  0.00    +0.000 NA
ATOM      2  N   UNL     1     -21.252  42.689  -5.934  0.00  0.00    +0.000 N 
ATOM      3  C   UNL     1     -19.385  40.743  -9.083  0.00  0.00    +0.000 A 
ATOM      4  C   UNL     1     -20.718  40.469  -8.795  0.00  0.00    +0.000 A 
ATOM      5  C   UNL     1     -18.729  41.672  -8.291  0.00  0.00    +0.000 A 
ATOM      6  C   UNL     1     -21.344  41.121  -7.739  0.00  0.00    +0.000 A 
ATOM      7  C   UNL     1     -20.600  42.033  -7.007  0.00  0.00    +0.000 A 
ATOM      8  H   UNL     1     -22.254  42.824  -5.990  0.00  0.00    +0.000 HD
ATOM      9  H   UNL     1     -20.707  43.359  -5.405  0.00  0.00    +0.000 HD
ENDROOT
BRANCH   3  12
ATOM     10  O   UNL     1     -19.291  39.221 -10.863  0.00  0.00    +0.000 OA
ATOM     11  N   UNL     1     -17.382  40.465 -10.436  0.00  0.00    +0.000 N 
ATOM     12  C   UNL     1     -18.703  40.078 -10.179  0.00  0.00    +0.000 C 
ATOM     13  H   UNL     1     -16.960  41.214  -9.897  0.00  0.00    +0.000 HD
BRANCH  11  14
ATOM     14  C   UNL     1     -16.580  39.915 -11.505  0.00  0.00    +0.000 C 
ATOM     15  C   UNL     1     -16.906  40.565 -12.834  0.00  0.00    +0.000 C 
ENDBRANCH  11  14
ENDBRANCH   3  12
TORSDOF 2
ENDMDL
MODEL 2
REMARK VINA RESULT:    -6.340      1.805      2.193
REMARK INTER + INTRA:          -7.202
REMARK INTER:                  -7.041
REMARK INTRA:                  -0.160
REMARK UNBOUND:                -0.121
REMARK  Name = 62073744
REMARK  3 active torsions:
REMARK  status: ('A' for Active; 'I' for Inactive)
REMARK    1  A    between atoms: N_2  and  C_5
REMARK    2  A    between atoms: C_5  and  C_9
REMARK    3  A    between atoms: C_6  and  C_7
REMARK                            x       y       z     vdW  Elec       q    Type
REMARK                         _______ _______ _______ _____ _____    ______ ____
ROOT
ATOM      1  N   UNL     1     -22.306  41.348  -7.388  0.00  0.00    +0.000 NA
ATOM      2  N   UNL     1     -22.586  42.846  -5.556  0.00  0.00    +0.000 N 
ATOM      3  C   UNL     1     -20.105  41.032  -8.339  0.00  0.00    +0.000 A 
ATOM      4  C   UNL     1     -19.572  41.931  -7.422  0.00  0.00    +0.000 A 
ATOM      5  C   UNL     1     -21.466  40.777  -8.279  0.00  0.00    +0.000 A 
ATOM      6  C   UNL     1     -20.404  42.540  -6.489  0.00  0.00    +0.000 A 
ATOM      7  C   UNL     1     -21.751  42.217  -6.513  0.00  0.00    +0.000 A 
ATOM      8  H   UNL     1     -22.178  43.131  -4.674  0.00  0.00    +0.000 HD
ATOM      9  H   UNL     1     -23.569  42.603  -5.573  0.00  0.00    +0.000 HD
ENDROOT
BRANCH   3  12
ATOM     10  O   UNL     1     -18.032  40.308  -9.158  0.00  0.00    +0.000 OA
ATOM     11  N   UNL     1     -19.900  39.824 -10.441  0.00  0.00    +0.000 N 
ATOM     12  C   UNL     1     -19.262  40.380  -9.325  0.00  0.00    +0.000 C 
ATOM     13  H   UNL     1     -20.913  39.847 -10.509  0.00  0.00    +0.000 HD
BRANCH  11  14
ATOM     14  C   UNL     1     -19.204  39.123 -11.495  0.00  0.00    +0.000 C 
ATOM     15  C   UNL     1     -18.790  40.065 -12.608  0.00  0.00    +0.000 C 
ENDBRANCH  11  14
ENDBRANCH   3  12
TORSDOF 2
ENDMDL
MODEL 3
REMARK VINA RESULT:    -6.168      2.038      5.384
REMARK INTER + INTRA:          -7.010
REMARK INTER:                  -6.894
REMARK INTRA:                  -0.117
REMARK UNBOUND:                -0.121
REMARK  Name = 62073744
REMARK  3 active torsions:
REMARK  status: ('A' for Active; 'I' for Inactive)
REMARK    1  A    between atoms: N_2  and  C_5
REMARK    2  A    between atoms: C_5  and  C_9
REMARK    3  A    between atoms: C_6  and  C_7
REMARK                            x       y       z     vdW  Elec       q    Type
REMARK                         _______ _______ _______ _____ _____    ______ ____
ROOT
ATOM      1  N   UNL     1     -18.688  39.374 -11.091  0.00  0.00    +0.000 NA
ATOM      2  N   UNL     1     -16.897  39.629 -12.642  0.00  0.00    +0.000 N 
ATOM      3  C   UNL     1     -19.012  41.036  -9.366  0.00  0.00    +0.000 A 
ATOM      4  C   UNL     1     -17.918  41.752  -9.840  0.00  0.00    +0.000 A 
ATOM      5  C   UNL     1     -19.352  39.864 -10.022  0.00  0.00    +0.000 A 
ATOM      6  C   UNL     1     -17.208  41.281 -10.939  0.00  0.00    +0.000 A 
ATOM      7  C   UNL     1     -17.630  40.097 -11.524  0.00  0.00    +0.000 A 
ATOM      8  H   UNL     1     -16.421  40.308 -13.224  0.00  0.00    +0.000 HD
ATOM      9  H   UNL     1     -17.212  38.767 -13.071  0.00  0.00    +0.000 HD
ENDROOT
BRANCH   3  12
ATOM     10  O   UNL     1     -19.208  42.097  -7.285  0.00  0.00    +0.000 OA
ATOM     11  N   UNL     1     -21.155  41.276  -8.239  0.00  0.00    +0.000 N 
ATOM     12  C   UNL     1     -19.773  41.503  -8.221  0.00  0.00    +0.000 C 
ATOM     13  H   UNL     1     -21.586  40.846  -9.050  0.00  0.00    +0.000 HD
BRANCH  11  14
ATOM     14  C   UNL     1     -22.050  41.701  -7.187  0.00  0.00    +0.000 C 
ATOM     15  C   UNL     1     -23.340  40.908  -7.202  0.00  0.00    +0.000 C 
ENDBRANCH  11  14
ENDBRANCH   3  12
TORSDOF 2
ENDMDL
MODEL 4
REMARK VINA RESULT:    -5.820      1.635      5.248
REMARK INTER + INTRA:          -6.621
REMARK INTER:                  -6.525
REMARK INTRA:                  -0.096
REMARK UNBOUND:                -0.121
REMARK  Name = 62073744
REMARK  3 active torsions:
REMARK  status: ('A' for Active; 'I' for Inactive)
REMARK    1  A    between atoms: N_2  and  C_5
REMARK    2  A    between atoms: C_5  and  C_9
REMARK    3  A    between atoms: C_6  and  C_7
REMARK                            x       y       z     vdW  Elec       q    Type
REMARK                         _______ _______ _______ _____ _____    ______ ____
ROOT
ATOM      1  N   UNL     1     -18.902  40.074 -12.156  0.00  0.00    +0.000 NA
ATOM      2  N   UNL     1     -16.694  40.014 -13.051  0.00  0.00    +0.000 N 
ATOM      3  C   UNL     1     -19.217  40.492  -9.796  0.00  0.00    +0.000 A 
ATOM      4  C   UNL     1     -17.840  40.590  -9.622  0.00  0.00    +0.000 A 
ATOM      5  C   UNL     1     -19.692  40.237 -11.072  0.00  0.00    +0.000 A 
ATOM      6  C   UNL     1     -16.994  40.429 -10.714  0.00  0.00    +0.000 A 
ATOM      7  C   UNL     1     -17.569  40.176 -11.949  0.00  0.00    +0.000 A 
ATOM      8  H   UNL     1     -15.798  40.486 -13.028  0.00  0.00    +0.000 HD
ATOM      9  H   UNL     1     -17.118  39.835 -13.953  0.00  0.00    +0.000 HD
ENDROOT
BRANCH   3  12
ATOM     10  O   UNL     1     -21.157  39.965  -8.592  0.00  0.00    +0.000 OA
ATOM     11  N   UNL     1     -19.773  41.597  -7.701  0.00  0.00    +0.000 N 
ATOM     12  C   UNL     1     -20.126  40.656  -8.676  0.00  0.00    +0.000 C 
ATOM     13  H   UNL     1     -18.891  42.093  -7.772  0.00  0.00    +0.000 HD
BRANCH  11  14
ATOM     14  C   UNL     1     -20.560  41.857  -6.517  0.00  0.00    +0.000 C 
ATOM     15  C   UNL     1     -21.755  42.735  -6.828  0.00  0.00    +0.000 C 
ENDBRANCH  11  14
ENDBRANCH   3  12
TORSDOF 2
ENDMDL
MODEL 5
REMARK VINA RESULT:    -5.434      1.808      2.093
REMARK INTER + INTRA:          -6.190
REMARK INTER:                  -6.077
REMARK INTRA:                  -0.114
REMARK UNBOUND:                -0.121
REMARK  Name = 62073744
REMARK  3 active torsions:
REMARK  status: ('A' for Active; 'I' for Inactive)
REMARK    1  A    between atoms: N_2  and  C_5
REMARK    2  A    between atoms: C_5  and  C_9
REMARK    3  A    between atoms: C_6  and  C_7
REMARK                            x       y       z     vdW  Elec       q    Type
REMARK                         _______ _______ _______ _____ _____    ______ ____
ROOT
ATOM      1  N   UNL     1     -21.429  40.618  -8.520  0.00  0.00    +0.000 NA
ATOM      2  N   UNL     1     -22.576  41.504  -6.629  0.00  0.00    +0.000 N 
ATOM      3  C   UNL     1     -19.147  41.291  -8.949  0.00  0.00    +0.000 A 
ATOM      4  C   UNL     1     -19.168  42.105  -7.821  0.00  0.00    +0.000 A 
ATOM      5  C   UNL     1     -20.294  40.574  -9.251  0.00  0.00    +0.000 A 
ATOM      6  C   UNL     1     -20.318  42.176  -7.043  0.00  0.00    +0.000 A 
ATOM      7  C   UNL     1     -21.412  41.420  -7.432  0.00  0.00    +0.000 A 
ATOM      8  H   UNL     1     -22.469  41.720  -5.645  0.00  0.00    +0.000 HD
ATOM      9  H   UNL     1     -23.372  40.945  -6.912  0.00  0.00    +0.000 HD
ENDROOT
BRANCH   3  12
ATOM     10  O   UNL     1     -17.396  40.099  -9.953  0.00  0.00    +0.000 OA
ATOM     11  N   UNL     1     -17.511  42.374 -10.387  0.00  0.00    +0.000 N 
ATOM     12  C   UNL     1     -17.961  41.194  -9.781  0.00  0.00    +0.000 C 
ATOM     13  H   UNL     1     -18.037  43.234 -10.274  0.00  0.00    +0.000 HD
BRANCH  11  14
ATOM     14  C   UNL     1     -16.361  42.436 -11.261  0.00  0.00    +0.000 C 
ATOM     15  C   UNL     1     -16.625  43.320 -12.463  0.00  0.00    +0.000 C 
ENDBRANCH  11  14
ENDBRANCH   3  12
TORSDOF 2
ENDMDL
