MODEL 1
REMARK VINA RESULT:    -7.786      0.000      0.000
REMARK INTER + INTRA:          -9.923
REMARK INTER:                  -9.606
REMARK INTRA:                  -0.316
REMARK UNBOUND:                -0.316
REMARK  Name = 62072664
REMARK  4 active torsions:
REMARK  status: ('A' for Active; 'I' for Inactive)
REMARK    1  A    between atoms: N_2  and  C_7
REMARK    2  A    between atoms: C_6  and  C_7
REMARK    3  A    between atoms: C_6  and  C_8
REMARK    4  A    between atoms: C_9  and  C_11
REMARK                            x       y       z     vdW  Elec       q    Type
REMARK                         _______ _______ _______ _____ _____    ______ ____
ROOT
ATOM      1  O   UNL     1     -19.234  39.172 -10.814  0.00  0.00    +0.000 OA
ATOM      2  N   UNL     1     -17.382  40.516 -10.441  0.00  0.00    +0.000 N 
ATOM      3  C   UNL     1     -18.683  40.078 -10.163  0.00  0.00    +0.000 C 
ATOM      4  H   UNL     1     -16.987  41.293  -9.923  0.00  0.00    +0.000 HD
ENDROOT
BRANCH   3   7
ATOM      5  N   UNL     1     -19.346  42.337  -7.263  0.00  0.00    +0.000 NA
ATOM      6  N   UNL     1     -21.320  42.703  -5.981  0.00  0.00    +0.000 N 
ATOM      7  C   UNL     1     -19.388  40.747  -9.084  0.00  0.00    +0.000 A 
ATOM      8  C   UNL     1     -20.725  40.470  -8.821  0.00  0.00    +0.000 A 
ATOM      9  C   UNL     1     -18.750  41.680  -8.284  0.00  0.00    +0.000 A 
ATOM     10  C   UNL     1     -21.373  41.126  -7.780  0.00  0.00    +0.000 A 
ATOM     11  C   UNL     1     -20.646  42.042  -7.038  0.00  0.00    +0.000 A 
ATOM     12  H   UNL     1     -22.321  42.835  -6.056  0.00  0.00    +0.000 HD
ATOM     13  H   UNL     1     -20.787  43.376  -5.445  0.00  0.00    +0.000 HD
ENDBRANCH   3   7
BRANCH   2  14
ATOM     14  C   UNL     1     -16.562  39.968 -11.497  0.00  0.00    +0.000 C 
BRANCH  14  15
ATOM     15  C   UNL     1     -17.138  40.237 -12.886  0.00  0.00    +0.000 C 
BRANCH  15  17
ATOM     16  N   UNL     1     -16.896  44.007 -13.163  0.00  0.00    +0.000 NA
ATOM     17  C   UNL     1     -17.537  41.677 -13.088  0.00  0.00    +0.000 A 
ATOM     18  C   UNL     1     -18.854  42.023 -13.374  0.00  0.00    +0.000 A 
ATOM     19  C   UNL     1     -16.605  42.698 -12.994  0.00  0.00    +0.000 A 
ATOM     20  C   UNL     1     -19.192  43.360 -13.555  0.00  0.00    +0.000 A 
ATOM     21  C   UNL     1     -18.185  44.305 -13.441  0.00  0.00    +0.000 A 
ENDBRANCH  15  17
ENDBRANCH  14  15
ENDBRANCH   2  14
TORSDOF 4
ENDMDL
MODEL 2
REMARK VINA RESULT:    -7.426      1.974      6.421
REMARK INTER + INTRA:          -9.478
REMARK INTER:                  -9.153
REMARK INTRA:                  -0.326
REMARK UNBOUND:                -0.316
REMARK  Name = 62072664
REMARK  4 active torsions:
REMARK  status: ('A' for Active; 'I' for Inactive)
REMARK    1  A    between atoms: N_2  and  C_7
REMARK    2  A    between atoms: C_6  and  C_7
REMARK    3  A    between atoms: C_6  and  C_8
REMARK    4  A    between atoms: C_9  and  C_11
REMARK                            x       y       z     vdW  Elec       q    Type
REMARK                         _______ _______ _______ _____ _____    ______ ____
ROOT
ATOM      1  O   UNL     1     -16.785  41.705 -11.118  0.00  0.00    +0.000 OA
ATOM      2  N   UNL     1     -18.993  41.099 -10.750  0.00  0.00    +0.000 N 
ATOM      3  C   UNL     1     -17.984  41.777 -11.446  0.00  0.00    +0.000 C 
ATOM      4  H   UNL     1     -19.963  41.224 -11.016  0.00  0.00    +0.000 HD
ENDROOT
BRANCH   3   7
ATOM      5  N   UNL     1     -19.479  42.759 -14.724  0.00  0.00    +0.000 NA
ATOM      6  N   UNL     1     -19.605  44.871 -15.819  0.00  0.00    +0.000 N 
ATOM      7  C   UNL     1     -18.395  42.600 -12.569  0.00  0.00    +0.000 A 
ATOM      8  C   UNL     1     -18.123  43.963 -12.597  0.00  0.00    +0.000 A 
ATOM      9  C   UNL     1     -19.070  42.051 -13.647  0.00  0.00    +0.000 A 
ATOM     10  C   UNL     1     -18.529  44.725 -13.687  0.00  0.00    +0.000 A 
ATOM     11  C   UNL     1     -19.198  44.081 -14.716  0.00  0.00    +0.000 A 
ATOM     12  H   UNL     1     -19.799  45.853 -15.664  0.00  0.00    +0.000 HD
ATOM     13  H   UNL     1     -20.099  44.398 -16.566  0.00  0.00    +0.000 HD
ENDBRANCH   3   7
BRANCH   2  14
ATOM     14  C   UNL     1     -18.747  40.261  -9.599  0.00  0.00    +0.000 C 
BRANCH  14  15
ATOM     15  C   UNL     1     -18.812  41.038  -8.285  0.00  0.00    +0.000 C 
BRANCH  15  17
ATOM     16  N   UNL     1     -22.559  40.647  -7.887  0.00  0.00    +0.000 NA
ATOM     17  C   UNL     1     -20.224  41.270  -7.809  0.00  0.00    +0.000 A 
ATOM     18  C   UNL     1     -20.515  42.273  -6.890  0.00  0.00    +0.000 A 
ATOM     19  C   UNL     1     -21.273  40.492  -8.273  0.00  0.00    +0.000 A 
ATOM     20  C   UNL     1     -21.827  42.463  -6.469  0.00  0.00    +0.000 A 
ATOM     21  C   UNL     1     -22.803  41.631  -6.993  0.00  0.00    +0.000 A 
ENDBRANCH  15  17
ENDBRANCH  14  15
ENDBRANCH   2  14
TORSDOF 4
ENDMDL
MODEL 3
REMARK VINA RESULT:    -6.438      1.905      6.219
REMARK INTER + INTRA:          -8.260
REMARK INTER:                  -7.882
REMARK INTRA:                  -0.378
REMARK UNBOUND:                -0.316
REMARK  Name = 62072664
REMARK  4 active torsions:
REMARK  status: ('A' for Active; 'I' for Inactive)
REMARK    1  A    between atoms: N_2  and  C_7
REMARK    2  A    between atoms: C_6  and  C_7
REMARK    3  A    between atoms: C_6  and  C_8
REMARK    4  A    between atoms: C_9  and  C_11
REMARK                            x       y       z     vdW  Elec       q    Type
REMARK                         _______ _______ _______ _____ _____    ______ ____
ROOT
ATOM      1  O   UNL     1     -16.678  42.984 -10.930  0.00  0.00    +0.000 OA
ATOM      2  N   UNL     1     -18.523  41.675 -11.443  0.00  0.00    +0.000 N 
ATOM      3  C   UNL     1     -17.704  42.799 -11.612  0.00  0.00    +0.000 C 
ATOM      4  H   UNL     1     -19.378  41.587 -11.980  0.00  0.00    +0.000 HD
ENDROOT
BRANCH   3   7
ATOM      5  N   UNL     1     -18.501  46.079 -13.210  0.00  0.00    +0.000 NA
ATOM      6  N   UNL     1     -19.262  46.609 -15.404  0.00  0.00    +0.000 N 
ATOM      7  C   UNL     1     -18.112  43.769 -12.612  0.00  0.00    +0.000 A 
ATOM      8  C   UNL     1     -18.495  43.367 -13.887  0.00  0.00    +0.000 A 
ATOM      9  C   UNL     1     -18.132  45.124 -12.327  0.00  0.00    +0.000 A 
ATOM     10  C   UNL     1     -18.880  44.320 -14.824  0.00  0.00    +0.000 A 
ATOM     11  C   UNL     1     -18.867  45.651 -14.439  0.00  0.00    +0.000 A 
ATOM     12  H   UNL     1     -19.122  46.393 -16.383  0.00  0.00    +0.000 HD
ATOM     13  H   UNL     1     -19.245  47.581 -15.121  0.00  0.00    +0.000 HD
ENDBRANCH   3   7
BRANCH   2  14
ATOM     14  C   UNL     1     -18.265  40.635 -10.473  0.00  0.00    +0.000 C 
BRANCH  14  15
ATOM     15  C   UNL     1     -19.548  40.034  -9.903  0.00  0.00    +0.000 C 
BRANCH  15  17
ATOM     16  N   UNL     1     -19.612  42.254  -6.834  0.00  0.00    +0.000 NA
ATOM     17  C   UNL     1     -20.062  40.782  -8.699  0.00  0.00    +0.000 A 
ATOM     18  C   UNL     1     -21.401  40.711  -8.329  0.00  0.00    +0.000 A 
ATOM     19  C   UNL     1     -19.216  41.560  -7.924  0.00  0.00    +0.000 A 
ATOM     20  C   UNL     1     -21.846  41.411  -7.213  0.00  0.00    +0.000 A 
ATOM     21  C   UNL     1     -20.920  42.162  -6.506  0.00  0.00    +0.000 A 
ENDBRANCH  15  17
ENDBRANCH  14  15
ENDBRANCH   2  14
TORSDOF 4
ENDMDL
MODEL 4
REMARK VINA RESULT:    -6.407      3.523      7.320
REMARK INTER + INTRA:          -8.221
REMARK INTER:                  -7.937
REMARK INTRA:                  -0.284
REMARK UNBOUND:                -0.316
REMARK  Name = 62072664
REMARK  4 active torsions:
REMARK  status: ('A' for Active; 'I' for Inactive)
REMARK    1  A    between atoms: N_2  and  C_7
REMARK    2  A    between atoms: C_6  and  C_7
REMARK    3  A    between atoms: C_6  and  C_8
REMARK    4  A    between atoms: C_9  and  C_11
REMARK                            x       y       z     vdW  Elec       q    Type
REMARK                         _______ _______ _______ _____ _____    ______ ____
ROOT
ATOM      1  O   UNL     1     -18.805  44.844 -13.857  0.00  0.00    +0.000 OA
ATOM      2  N   UNL     1     -18.571  42.541 -13.996  0.00  0.00    +0.000 N 
ATOM      3  C   UNL     1     -18.971  43.788 -14.495  0.00  0.00    +0.000 C 
ATOM      4  H   UNL     1     -18.771  41.697 -14.522  0.00  0.00    +0.000 HD
ENDROOT
BRANCH   3   7
ATOM      5  N   UNL     1     -19.924  44.883 -17.936  0.00  0.00    +0.000 NA
ATOM      6  N   UNL     1     -21.415  43.926 -19.528  0.00  0.00    +0.000 N 
ATOM      7  C   UNL     1     -19.617  43.802 -15.795  0.00  0.00    +0.000 A 
ATOM      8  C   UNL     1     -20.516  42.807 -16.160  0.00  0.00    +0.000 A 
ATOM      9  C   UNL     1     -19.357  44.809 -16.710  0.00  0.00    +0.000 A 
ATOM     10  C   UNL     1     -21.119  42.848 -17.413  0.00  0.00    +0.000 A 
ATOM     11  C   UNL     1     -20.792  43.898 -18.255  0.00  0.00    +0.000 A 
ATOM     12  H   UNL     1     -21.699  43.048 -19.945  0.00  0.00    +0.000 HD
ATOM     13  H   UNL     1     -21.169  44.692 -20.144  0.00  0.00    +0.000 HD
ENDBRANCH   3   7
BRANCH   2  14
ATOM     14  C   UNL     1     -17.938  42.359 -12.710  0.00  0.00    +0.000 C 
BRANCH  14  15
ATOM     15  C   UNL     1     -18.259  41.003 -12.086  0.00  0.00    +0.000 C 
BRANCH  15  17
ATOM     16  N   UNL     1     -18.409  42.220  -8.501  0.00  0.00    +0.000 NA
ATOM     17  C   UNL     1     -18.649  41.103 -10.632  0.00  0.00    +0.000 A 
ATOM     18  C   UNL     1     -19.567  40.220 -10.074  0.00  0.00    +0.000 A 
ATOM     19  C   UNL     1     -18.103  42.076  -9.810  0.00  0.00    +0.000 A 
ATOM     20  C   UNL     1     -19.907  40.336  -8.730  0.00  0.00    +0.000 A 
ATOM     21  C   UNL     1     -19.305  41.345  -7.994  0.00  0.00    +0.000 A 
ENDBRANCH  15  17
ENDBRANCH  14  15
ENDBRANCH   2  14
TORSDOF 4
ENDMDL
MODEL 5
REMARK VINA RESULT:    -6.182      3.754      7.595
REMARK INTER + INTRA:          -7.944
REMARK INTER:                  -7.561
REMARK INTRA:                  -0.383
REMARK UNBOUND:                -0.316
REMARK  Name = 62072664
REMARK  4 active torsions:
REMARK  status: ('A' for Active; 'I' for Inactive)
REMARK    1  A    between atoms: N_2  and  C_7
REMARK    2  A    between atoms: C_6  and  C_7
REMARK    3  A    between atoms: C_6  and  C_8
REMARK    4  A    between atoms: C_9  and  C_11
REMARK                            x       y       z     vdW  Elec       q    Type
REMARK                         _______ _______ _______ _____ _____    ______ ____
ROOT
ATOM      1  O   UNL     1     -20.311  42.651 -14.338  0.00  0.00    +0.000 OA
ATOM      2  N   UNL     1     -18.414  43.953 -14.627  0.00  0.00    +0.000 N 
ATOM      3  C   UNL     1     -19.624  43.395 -15.062  0.00  0.00    +0.000 C 
ATOM      4  H   UNL     1     -17.857  44.511 -15.264  0.00  0.00    +0.000 HD
ENDROOT
BRANCH   3   7
ATOM      5  N   UNL     1     -19.656  44.911 -18.475  0.00  0.00    +0.000 NA
ATOM      6  N   UNL     1     -21.166  44.635 -20.297  0.00  0.00    +0.000 N 
ATOM      7  C   UNL     1     -20.043  43.701 -16.417  0.00  0.00    +0.000 A 
ATOM      8  C   UNL     1     -21.182  43.121 -16.964  0.00  0.00    +0.000 A 
ATOM      9  C   UNL     1     -19.321  44.581 -17.207  0.00  0.00    +0.000 A 
ATOM     10  C   UNL     1     -21.559  43.434 -18.265  0.00  0.00    +0.000 A 
ATOM     11  C   UNL     1     -20.769  44.327 -18.972  0.00  0.00    +0.000 A 
ATOM     12  H   UNL     1     -21.687  43.942 -20.818  0.00  0.00    +0.000 HD
ATOM     13  H   UNL     1     -20.583  45.284 -20.813  0.00  0.00    +0.000 HD
ENDBRANCH   3   7
BRANCH   2  14
ATOM     14  C   UNL     1     -17.852  43.724 -13.316  0.00  0.00    +0.000 C 
BRANCH  14  15
ATOM     15  C   UNL     1     -17.181  42.357 -13.197  0.00  0.00    +0.000 C 
BRANCH  15  17
ATOM     16  N   UNL     1     -19.037  39.326 -11.886  0.00  0.00    +0.000 NA
ATOM     17  C   UNL     1     -17.902  41.429 -12.251  0.00  0.00    +0.000 A 
ATOM     18  C   UNL     1     -18.105  41.778 -10.921  0.00  0.00    +0.000 A 
ATOM     19  C   UNL     1     -18.384  40.203 -12.680  0.00  0.00    +0.000 A 
ATOM     20  C   UNL     1     -18.773  40.902 -10.072  0.00  0.00    +0.000 A 
ATOM     21  C   UNL     1     -19.215  39.699 -10.599  0.00  0.00    +0.000 A 
ENDBRANCH  15  17
ENDBRANCH  14  15
ENDBRANCH   2  14
TORSDOF 4
ENDMDL
