MODEL 1
REMARK VINA RESULT:    -6.407      0.000      0.000
REMARK INTER + INTRA:          -8.133
REMARK INTER:                  -7.717
REMARK INTRA:                  -0.416
REMARK UNBOUND:                -0.416
REMARK  Name = 62074367
REMARK  4 active torsions:
REMARK  status: ('A' for Active; 'I' for Inactive)
REMARK    1  A    between atoms: N_2  and  C_8
REMARK    2  A    between atoms: N_4  and  C_11
REMARK    3  A    between atoms: C_5  and  C_8
REMARK    4  A    between atoms: C_9  and  C_10
REMARK                            x       y       z     vdW  Elec       q    Type
REMARK                         _______ _______ _______ _____ _____    ______ ____
ROOT
ATOM      1  N   UNL     1     -18.185  41.809 -13.446  0.00  0.00    +0.000 NA
ATOM      2  C   UNL     1     -18.335  41.421 -11.063  0.00  0.00    +0.000 A 
ATOM      3  C   UNL     1     -18.787  41.266 -12.364  0.00  0.00    +0.000 A 
ATOM      4  C   UNL     1     -17.189  42.183 -10.860  0.00  0.00    +0.000 A 
ATOM      5  C   UNL     1     -16.541  42.758 -11.947  0.00  0.00    +0.000 A 
ATOM      6  C   UNL     1     -17.073  42.543 -13.208  0.00  0.00    +0.000 A 
ENDROOT
BRANCH   2   9
ATOM      7  O   UNL     1     -19.398  39.642  -9.966  0.00  0.00    +0.000 OA
ATOM      8  N   UNL     1     -19.155  41.621  -8.782  0.00  0.00    +0.000 N 
ATOM      9  C   UNL     1     -19.005  40.821  -9.919  0.00  0.00    +0.000 C 
ATOM     10  H   UNL     1     -18.788  42.568  -8.794  0.00  0.00    +0.000 HD
BRANCH   8  11
ATOM     11  C   UNL     1     -19.777  41.162  -7.560  0.00  0.00    +0.000 C 
BRANCH  11  12
ATOM     12  C   UNL     1     -20.467  42.281  -6.855  0.00  0.00    +0.000 C 
ATOM     13  C   UNL     1     -21.966  42.333  -6.854  0.00  0.00    +0.000 C 
ATOM     14  C   UNL     1     -21.227  41.994  -5.592  0.00  0.00    +0.000 C 
ENDBRANCH  11  12
ENDBRANCH   8  11
ENDBRANCH   2   9
BRANCH   3  15
ATOM     15  N   UNL     1     -19.954  40.490 -12.581  0.00  0.00    +0.000 N 
ATOM     16  H   UNL     1     -19.862  39.483 -12.639  0.00  0.00    +0.000 HD
ATOM     17  H   UNL     1     -20.693  40.926 -13.118  0.00  0.00    +0.000 HD
ENDBRANCH   3  15
TORSDOF 4
ENDMDL
MODEL 2
REMARK VINA RESULT:    -6.233      2.005      5.872
REMARK INTER + INTRA:          -7.924
REMARK INTER:                  -7.535
REMARK INTRA:                  -0.389
REMARK UNBOUND:                -0.416
REMARK  Name = 62074367
REMARK  4 active torsions:
REMARK  status: ('A' for Active; 'I' for Inactive)
REMARK    1  A    between atoms: N_2  and  C_8
REMARK    2  A    between atoms: N_4  and  C_11
REMARK    3  A    between atoms: C_5  and  C_8
REMARK    4  A    between atoms: C_9  and  C_10
REMARK                            x       y       z     vdW  Elec       q    Type
REMARK                         _______ _______ _______ _____ _____    ______ ____
ROOT
ATOM      1  N   UNL     1     -21.512  42.644  -6.492  0.00  0.00    +0.000 NA
ATOM      2  C   UNL     1     -20.713  41.021  -8.098  0.00  0.00    +0.000 A 
ATOM      3  C   UNL     1     -20.542  42.126  -7.280  0.00  0.00    +0.000 A 
ATOM      4  C   UNL     1     -21.961  40.406  -8.108  0.00  0.00    +0.000 A 
ATOM      5  C   UNL     1     -22.984  40.909  -7.312  0.00  0.00    +0.000 A 
ATOM      6  C   UNL     1     -22.711  42.019  -6.529  0.00  0.00    +0.000 A 
ENDROOT
BRANCH   2   9
ATOM      7  O   UNL     1     -18.477  40.453  -8.516  0.00  0.00    +0.000 OA
ATOM      8  N   UNL     1     -20.014  39.998 -10.191  0.00  0.00    +0.000 N 
ATOM      9  C   UNL     1     -19.648  40.485  -8.933  0.00  0.00    +0.000 C 
ATOM     10  H   UNL     1     -20.992  40.026 -10.465  0.00  0.00    +0.000 HD
BRANCH   8  11
ATOM     11  C   UNL     1     -19.077  39.415 -11.125  0.00  0.00    +0.000 C 
BRANCH  11  12
ATOM     12  C   UNL     1     -19.143  40.097 -12.450  0.00  0.00    +0.000 C 
ATOM     13  C   UNL     1     -19.361  41.580 -12.501  0.00  0.00    +0.000 C 
ATOM     14  C   UNL     1     -18.022  41.006 -12.864  0.00  0.00    +0.000 C 
ENDBRANCH  11  12
ENDBRANCH   8  11
ENDBRANCH   2   9
BRANCH   3  15
ATOM     15  N   UNL     1     -19.273  42.758  -7.262  0.00  0.00    +0.000 N 
ATOM     16  H   UNL     1     -19.204  43.696  -6.888  0.00  0.00    +0.000 HD
ATOM     17  H   UNL     1     -18.629  42.497  -7.999  0.00  0.00    +0.000 HD
ENDBRANCH   3  15
TORSDOF 4
ENDMDL
MODEL 3
REMARK VINA RESULT:    -5.833      1.822      5.284
REMARK INTER + INTRA:          -7.442
REMARK INTER:                  -6.968
REMARK INTRA:                  -0.474
REMARK UNBOUND:                -0.416
REMARK  Name = 62074367
REMARK  4 active torsions:
REMARK  status: ('A' for Active; 'I' for Inactive)
REMARK    1  A    between atoms: N_2  and  C_8
REMARK    2  A    between atoms: N_4  and  C_11
REMARK    3  A    between atoms: C_5  and  C_8
REMARK    4  A    between atoms: C_9  and  C_10
REMARK                            x       y       z     vdW  Elec       q    Type
REMARK                         _______ _______ _______ _____ _____    ______ ____
ROOT
ATOM      1  N   UNL     1     -21.039  40.399  -8.677  0.00  0.00    +0.000 NA
ATOM      2  C   UNL     1     -18.812  41.189  -9.194  0.00  0.00    +0.000 A 
ATOM      3  C   UNL     1     -19.927  40.405  -9.446  0.00  0.00    +0.000 A 
ATOM      4  C   UNL     1     -18.841  42.022  -8.081  0.00  0.00    +0.000 A 
ATOM      5  C   UNL     1     -19.967  42.044  -7.265  0.00  0.00    +0.000 A 
ATOM      6  C   UNL     1     -21.030  41.222  -7.603  0.00  0.00    +0.000 A 
ENDROOT
BRANCH   2   9
ATOM      7  O   UNL     1     -17.106  40.098 -10.376  0.00  0.00    +0.000 OA
ATOM      8  N   UNL     1     -17.145  42.414 -10.474  0.00  0.00    +0.000 N 
ATOM      9  C   UNL     1     -17.630  41.175 -10.044  0.00  0.00    +0.000 C 
ATOM     10  H   UNL     1     -17.634  43.259 -10.192  0.00  0.00    +0.000 HD
BRANCH   8  11
ATOM     11  C   UNL     1     -15.997  42.565 -11.338  0.00  0.00    +0.000 C 
BRANCH  11  12
ATOM     12  C   UNL     1     -16.414  42.838 -12.744  0.00  0.00    +0.000 C 
ATOM     13  C   UNL     1     -17.605  43.714 -12.998  0.00  0.00    +0.000 C 
ATOM     14  C   UNL     1     -16.225  44.216 -13.310  0.00  0.00    +0.000 C 
ENDBRANCH  11  12
ENDBRANCH   8  11
ENDBRANCH   2   9
BRANCH   3  15
ATOM     15  N   UNL     1     -19.907  39.554 -10.580  0.00  0.00    +0.000 N 
ATOM     16  H   UNL     1     -19.033  39.430 -11.077  0.00  0.00    +0.000 HD
ATOM     17  H   UNL     1     -20.764  39.495 -11.116  0.00  0.00    +0.000 HD
ENDBRANCH   3  15
TORSDOF 4
ENDMDL
MODEL 4
REMARK VINA RESULT:    -5.468      4.020      6.517
REMARK INTER + INTRA:          -7.002
REMARK INTER:                  -6.532
REMARK INTRA:                  -0.470
REMARK UNBOUND:                -0.416
REMARK  Name = 62074367
REMARK  4 active torsions:
REMARK  status: ('A' for Active; 'I' for Inactive)
REMARK    1  A    between atoms: N_2  and  C_8
REMARK    2  A    between atoms: N_4  and  C_11
REMARK    3  A    between atoms: C_5  and  C_8
REMARK    4  A    between atoms: C_9  and  C_10
REMARK                            x       y       z     vdW  Elec       q    Type
REMARK                         _______ _______ _______ _____ _____    ______ ____
ROOT
ATOM      1  N   UNL     1     -16.717  40.624 -12.011  0.00  0.00    +0.000 NA
ATOM      2  C   UNL     1     -18.512  41.821 -13.103  0.00  0.00    +0.000 A 
ATOM      3  C   UNL     1     -17.181  41.653 -12.756  0.00  0.00    +0.000 A 
ATOM      4  C   UNL     1     -19.426  40.872 -12.658  0.00  0.00    +0.000 A 
ATOM      5  C   UNL     1     -18.987  39.800 -11.889  0.00  0.00    +0.000 A 
ATOM      6  C   UNL     1     -17.636  39.722 -11.596  0.00  0.00    +0.000 A 
ENDROOT
BRANCH   2   9
ATOM      7  O   UNL     1     -18.967  44.095 -13.453  0.00  0.00    +0.000 OA
ATOM      8  N   UNL     1     -19.415  42.645 -15.207  0.00  0.00    +0.000 N 
ATOM      9  C   UNL     1     -18.981  42.939 -13.910  0.00  0.00    +0.000 C 
ATOM     10  H   UNL     1     -19.376  41.684 -15.533  0.00  0.00    +0.000 HD
BRANCH   8  11
ATOM     11  C   UNL     1     -19.887  43.647 -16.136  0.00  0.00    +0.000 C 
BRANCH  11  12
ATOM     12  C   UNL     1     -21.095  43.172 -16.871  0.00  0.00    +0.000 C 
ATOM     13  C   UNL     1     -22.431  43.772 -16.548  0.00  0.00    +0.000 C 
ATOM     14  C   UNL     1     -21.762  44.089 -17.854  0.00  0.00    +0.000 C 
ENDBRANCH  11  12
ENDBRANCH   8  11
ENDBRANCH   2   9
BRANCH   3  15
ATOM     15  N   UNL     1     -16.243  42.615 -13.208  0.00  0.00    +0.000 N 
ATOM     16  H   UNL     1     -16.555  43.568 -13.346  0.00  0.00    +0.000 HD
ATOM     17  H   UNL     1     -15.497  42.274 -13.802  0.00  0.00    +0.000 HD
ENDBRANCH   3  15
TORSDOF 4
ENDMDL
MODEL 5
REMARK VINA RESULT:    -5.086      2.817      5.761
REMARK INTER + INTRA:          -6.543
REMARK INTER:                  -6.080
REMARK INTRA:                  -0.463
REMARK UNBOUND:                -0.416
REMARK  Name = 62074367
REMARK  4 active torsions:
REMARK  status: ('A' for Active; 'I' for Inactive)
REMARK    1  A    between atoms: N_2  and  C_8
REMARK    2  A    between atoms: N_4  and  C_11
REMARK    3  A    between atoms: C_5  and  C_8
REMARK    4  A    between atoms: C_9  and  C_10
REMARK                            x       y       z     vdW  Elec       q    Type
REMARK                         _______ _______ _______ _____ _____    ______ ____
ROOT
ATOM      1  N   UNL     1     -19.282  39.582 -10.498  0.00  0.00    +0.000 NA
ATOM      2  C   UNL     1     -17.784  41.468 -10.723  0.00  0.00    +0.000 A 
ATOM      3  C   UNL     1     -18.361  40.295 -11.184  0.00  0.00    +0.000 A 
ATOM      4  C   UNL     1     -18.179  41.939  -9.475  0.00  0.00    +0.000 A 
ATOM      5  C   UNL     1     -19.125  41.234  -8.738  0.00  0.00    +0.000 A 
ATOM      6  C   UNL     1     -19.641  40.072  -9.289  0.00  0.00    +0.000 A 
ENDROOT
BRANCH   2   9
ATOM      7  O   UNL     1     -17.091  42.699 -12.594  0.00  0.00    +0.000 OA
ATOM      8  N   UNL     1     -15.534  42.374 -10.907  0.00  0.00    +0.000 N 
ATOM      9  C   UNL     1     -16.796  42.215 -11.487  0.00  0.00    +0.000 C 
ATOM     10  H   UNL     1     -15.362  41.979  -9.987  0.00  0.00    +0.000 HD
BRANCH   8  11
ATOM     11  C   UNL     1     -14.456  43.108 -11.530  0.00  0.00    +0.000 C 
BRANCH  11  12
ATOM     12  C   UNL     1     -13.199  42.994 -10.736  0.00  0.00    +0.000 C 
ATOM     13  C   UNL     1     -12.493  41.672 -10.667  0.00  0.00    +0.000 C 
ATOM     14  C   UNL     1     -11.894  42.801 -11.454  0.00  0.00    +0.000 C 
ENDBRANCH  11  12
ENDBRANCH   8  11
ENDBRANCH   2   9
BRANCH   3  15
ATOM     15  N   UNL     1     -17.965  39.809 -12.456  0.00  0.00    +0.000 N 
ATOM     16  H   UNL     1     -17.381  40.396 -13.039  0.00  0.00    +0.000 HD
ATOM     17  H   UNL     1     -18.609  39.179 -12.919  0.00  0.00    +0.000 HD
ENDBRANCH   3  15
TORSDOF 4
ENDMDL
