MODEL 1
REMARK VINA RESULT:    -7.020      0.000      0.000
REMARK INTER + INTRA:          -8.956
REMARK INTER:                  -8.661
REMARK INTRA:                  -0.295
REMARK UNBOUND:                -0.295
REMARK  Name = 62074491
REMARK  6 active torsions:
REMARK  status: ('A' for Active; 'I' for Inactive)
REMARK    1  A    between atoms: N_2  and  C_7
REMARK    2  A    between atoms: C_5  and  C_6
REMARK    3  A    between atoms: C_5  and  C_8
REMARK    4  A    between atoms: C_5  and  C_9
REMARK    5  A    between atoms: C_6  and  C_7
REMARK    6  A    between atoms: C_10  and  C_11
REMARK                            x       y       z     vdW  Elec       q    Type
REMARK                         _______ _______ _______ _____ _____    ______ ____
ROOT
ATOM      1  O   UNL     1     -17.925  40.398  -9.158  0.00  0.00    +0.000 OA
ATOM      2  N   UNL     1     -19.777  39.810 -10.425  0.00  0.00    +0.000 N 
ATOM      3  C   UNL     1     -19.139  40.408  -9.343  0.00  0.00    +0.000 C 
ATOM      4  H   UNL     1     -20.789  39.811 -10.489  0.00  0.00    +0.000 HD
ENDROOT
BRANCH   3   7
ATOM      5  N   UNL     1     -22.236  41.384  -7.434  0.00  0.00    +0.000 NA
ATOM      6  N   UNL     1     -22.550  42.882  -5.608  0.00  0.00    +0.000 N 
ATOM      7  C   UNL     1     -20.020  41.073  -8.349  0.00  0.00    +0.000 A 
ATOM      8  C   UNL     1     -19.504  41.975  -7.426  0.00  0.00    +0.000 A 
ATOM      9  C   UNL     1     -21.381  40.814  -8.312  0.00  0.00    +0.000 A 
ATOM     10  C   UNL     1     -20.352  42.583  -6.506  0.00  0.00    +0.000 A 
ATOM     11  C   UNL     1     -21.698  42.256  -6.552  0.00  0.00    +0.000 A 
ATOM     12  H   UNL     1     -23.532  42.636  -5.642  0.00  0.00    +0.000 HD
ATOM     13  H   UNL     1     -22.158  43.169  -4.720  0.00  0.00    +0.000 HD
ENDBRANCH   3   7
BRANCH   2  14
ATOM     14  C   UNL     1     -19.065  39.108 -11.455  0.00  0.00    +0.000 C 
BRANCH  14  15
ATOM     15  C   UNL     1     -18.835  39.967 -12.696  0.00  0.00    +0.000 C 
BRANCH  15  16
ATOM     16  C   UNL     1     -17.361  40.310 -12.988  0.00  0.00    +0.000 C 
ATOM     17  C   UNL     1     -16.460  39.655 -11.938  0.00  0.00    +0.000 C 
ATOM     18  C   UNL     1     -17.107  41.818 -13.018  0.00  0.00    +0.000 C 
ENDBRANCH  15  16
ENDBRANCH  14  15
ENDBRANCH   2  14
TORSDOF 4
ENDMDL
MODEL 2
REMARK VINA RESULT:    -6.764      1.456      2.194
REMARK INTER + INTRA:          -8.641
REMARK INTER:                  -8.295
REMARK INTRA:                  -0.346
REMARK UNBOUND:                -0.295
REMARK  Name = 62074491
REMARK  6 active torsions:
REMARK  status: ('A' for Active; 'I' for Inactive)
REMARK    1  A    between atoms: N_2  and  C_7
REMARK    2  A    between atoms: C_5  and  C_6
REMARK    3  A    between atoms: C_5  and  C_8
REMARK    4  A    between atoms: C_5  and  C_9
REMARK    5  A    between atoms: C_6  and  C_7
REMARK    6  A    between atoms: C_10  and  C_11
REMARK                            x       y       z     vdW  Elec       q    Type
REMARK                         _______ _______ _______ _____ _____    ______ ____
ROOT
ATOM      1  O   UNL     1     -19.381  39.280 -10.685  0.00  0.00    +0.000 OA
ATOM      2  N   UNL     1     -17.503  40.582 -10.281  0.00  0.00    +0.000 N 
ATOM      3  C   UNL     1     -18.803  40.150 -10.038  0.00  0.00    +0.000 C 
ATOM      4  H   UNL     1     -17.104  41.341  -9.740  0.00  0.00    +0.000 HD
ENDROOT
BRANCH   3   7
ATOM      5  N   UNL     1     -19.463  42.369  -7.066  0.00  0.00    +0.000 NA
ATOM      6  N   UNL     1     -21.449  42.763  -5.810  0.00  0.00    +0.000 N 
ATOM      7  C   UNL     1     -19.522  40.828  -8.928  0.00  0.00    +0.000 A 
ATOM      8  C   UNL     1     -20.871  40.587  -8.696  0.00  0.00    +0.000 A 
ATOM      9  C   UNL     1     -18.869  41.720  -8.092  0.00  0.00    +0.000 A 
ATOM     10  C   UNL     1     -21.518  41.236  -7.650  0.00  0.00    +0.000 A 
ATOM     11  C   UNL     1     -20.775  42.110  -6.872  0.00  0.00    +0.000 A 
ATOM     12  H   UNL     1     -20.903  43.405  -5.247  0.00  0.00    +0.000 HD
ATOM     13  H   UNL     1     -22.444  42.930  -5.899  0.00  0.00    +0.000 HD
ENDBRANCH   3   7
BRANCH   2  14
ATOM     14  C   UNL     1     -16.689  40.041 -11.333  0.00  0.00    +0.000 C 
BRANCH  14  15
ATOM     15  C   UNL     1     -16.982  40.683 -12.687  0.00  0.00    +0.000 C 
BRANCH  15  16
ATOM     16  C   UNL     1     -17.407  42.163 -12.628  0.00  0.00    +0.000 C 
ATOM     17  C   UNL     1     -18.524  42.421 -13.642  0.00  0.00    +0.000 C 
ATOM     18  C   UNL     1     -16.241  43.118 -12.891  0.00  0.00    +0.000 C 
ENDBRANCH  15  16
ENDBRANCH  14  15
ENDBRANCH   2  14
TORSDOF 4
ENDMDL
MODEL 3
REMARK VINA RESULT:    -6.238      2.660      6.163
REMARK INTER + INTRA:          -7.992
REMARK INTER:                  -7.735
REMARK INTRA:                  -0.257
REMARK UNBOUND:                -0.295
REMARK  Name = 62074491
REMARK  6 active torsions:
REMARK  status: ('A' for Active; 'I' for Inactive)
REMARK    1  A    between atoms: N_2  and  C_7
REMARK    2  A    between atoms: C_5  and  C_6
REMARK    3  A    between atoms: C_5  and  C_8
REMARK    4  A    between atoms: C_5  and  C_9
REMARK    5  A    between atoms: C_6  and  C_7
REMARK    6  A    between atoms: C_10  and  C_11
REMARK                            x       y       z     vdW  Elec       q    Type
REMARK                         _______ _______ _______ _____ _____    ______ ____
ROOT
ATOM      1  O   UNL     1     -17.569  40.440 -10.316  0.00  0.00    +0.000 OA
ATOM      2  N   UNL     1     -19.852  40.802 -10.113  0.00  0.00    +0.000 N 
ATOM      3  C   UNL     1     -18.602  40.988 -10.694  0.00  0.00    +0.000 C 
ATOM      4  H   UNL     1     -20.655  41.326 -10.442  0.00  0.00    +0.000 HD
ENDROOT
BRANCH   3   7
ATOM      5  N   UNL     1     -17.580  43.930 -12.812  0.00  0.00    +0.000 NA
ATOM      6  N   UNL     1     -18.314  44.649 -14.962  0.00  0.00    +0.000 N 
ATOM      7  C   UNL     1     -18.543  41.941 -11.832  0.00  0.00    +0.000 A 
ATOM      8  C   UNL     1     -19.351  41.772 -12.950  0.00  0.00    +0.000 A 
ATOM      9  C   UNL     1     -17.683  43.027 -11.812  0.00  0.00    +0.000 A 
ATOM     10  C   UNL     1     -19.275  42.680 -14.001  0.00  0.00    +0.000 A 
ATOM     11  C   UNL     1     -18.381  43.732 -13.883  0.00  0.00    +0.000 A 
ATOM     12  H   UNL     1     -17.656  45.414 -14.874  0.00  0.00    +0.000 HD
ATOM     13  H   UNL     1     -18.544  44.319 -15.891  0.00  0.00    +0.000 HD
ENDBRANCH   3   7
BRANCH   2  14
ATOM     14  C   UNL     1     -20.064  39.932  -8.990  0.00  0.00    +0.000 C 
BRANCH  14  15
ATOM     15  C   UNL     1     -21.370  40.230  -8.258  0.00  0.00    +0.000 C 
BRANCH  15  16
ATOM     16  C   UNL     1     -21.450  41.627  -7.611  0.00  0.00    +0.000 C 
ATOM     17  C   UNL     1     -20.271  41.822  -6.655  0.00  0.00    +0.000 C 
ATOM     18  C   UNL     1     -22.765  41.849  -6.861  0.00  0.00    +0.000 C 
ENDBRANCH  15  16
ENDBRANCH  14  15
ENDBRANCH   2  14
TORSDOF 4
ENDMDL
MODEL 4
REMARK VINA RESULT:    -5.639      4.656      6.182
REMARK INTER + INTRA:          -7.252
REMARK INTER:                  -6.956
REMARK INTRA:                  -0.296
REMARK UNBOUND:                -0.295
REMARK  Name = 62074491
REMARK  6 active torsions:
REMARK  status: ('A' for Active; 'I' for Inactive)
REMARK    1  A    between atoms: N_2  and  C_7
REMARK    2  A    between atoms: C_5  and  C_6
REMARK    3  A    between atoms: C_5  and  C_8
REMARK    4  A    between atoms: C_5  and  C_9
REMARK    5  A    between atoms: C_6  and  C_7
REMARK    6  A    between atoms: C_10  and  C_11
REMARK                            x       y       z     vdW  Elec       q    Type
REMARK                         _______ _______ _______ _____ _____    ______ ____
ROOT
ATOM      1  O   UNL     1     -18.778  44.571 -14.243  0.00  0.00    +0.000 OA
ATOM      2  N   UNL     1     -19.747  42.610 -15.017  0.00  0.00    +0.000 N 
ATOM      3  C   UNL     1     -19.099  43.397 -14.072  0.00  0.00    +0.000 C 
ATOM      4  H   UNL     1     -19.937  41.632 -14.829  0.00  0.00    +0.000 HD
ENDROOT
BRANCH   3   7
ATOM      5  N   UNL     1     -19.107  40.888 -11.263  0.00  0.00    +0.000 NA
ATOM      6  N   UNL     1     -17.887  40.815  -9.217  0.00  0.00    +0.000 N 
ATOM      7  C   UNL     1     -18.763  42.734 -12.785  0.00  0.00    +0.000 A 
ATOM      8  C   UNL     1     -17.834  43.290 -11.914  0.00  0.00    +0.000 A 
ATOM      9  C   UNL     1     -19.367  41.543 -12.416  0.00  0.00    +0.000 A 
ATOM     10  C   UNL     1     -17.540  42.647 -10.716  0.00  0.00    +0.000 A 
ATOM     11  C   UNL     1     -18.198  41.459 -10.441  0.00  0.00    +0.000 A 
ATOM     12  H   UNL     1     -18.367  39.944  -9.022  0.00  0.00    +0.000 HD
ATOM     13  H   UNL     1     -16.967  40.956  -8.817  0.00  0.00    +0.000 HD
ENDBRANCH   3   7
BRANCH   2  14
ATOM     14  C   UNL     1     -20.115  43.101 -16.316  0.00  0.00    +0.000 C 
BRANCH  14  15
ATOM     15  C   UNL     1     -21.622  43.288 -16.465  0.00  0.00    +0.000 C 
BRANCH  15  16
ATOM     16  C   UNL     1     -22.047  44.491 -17.330  0.00  0.00    +0.000 C 
ATOM     17  C   UNL     1     -21.004  45.605 -17.215  0.00  0.00    +0.000 C 
ATOM     18  C   UNL     1     -23.425  45.031 -16.942  0.00  0.00    +0.000 C 
ENDBRANCH  15  16
ENDBRANCH  14  15
ENDBRANCH   2  14
TORSDOF 4
ENDMDL
MODEL 5
REMARK VINA RESULT:    -5.522      3.260      6.242
REMARK INTER + INTRA:          -7.108
REMARK INTER:                  -6.917
REMARK INTRA:                  -0.192
REMARK UNBOUND:                -0.295
REMARK  Name = 62074491
REMARK  6 active torsions:
REMARK  status: ('A' for Active; 'I' for Inactive)
REMARK    1  A    between atoms: N_2  and  C_7
REMARK    2  A    between atoms: C_5  and  C_6
REMARK    3  A    between atoms: C_5  and  C_8
REMARK    4  A    between atoms: C_5  and  C_9
REMARK    5  A    between atoms: C_6  and  C_7
REMARK    6  A    between atoms: C_10  and  C_11
REMARK                            x       y       z     vdW  Elec       q    Type
REMARK                         _______ _______ _______ _____ _____    ______ ____
ROOT
ATOM      1  O   UNL     1     -16.851  41.094 -12.152  0.00  0.00    +0.000 OA
ATOM      2  N   UNL     1     -18.860  41.382 -11.027  0.00  0.00    +0.000 N 
ATOM      3  C   UNL     1     -17.915  41.689 -12.001  0.00  0.00    +0.000 C 
ATOM      4  H   UNL     1     -19.695  41.948 -10.925  0.00  0.00    +0.000 HD
ENDROOT
BRANCH   3   7
ATOM      5  N   UNL     1     -19.241  43.650 -14.931  0.00  0.00    +0.000 NA
ATOM      6  N   UNL     1     -19.176  45.981 -15.420  0.00  0.00    +0.000 N 
ATOM      7  C   UNL     1     -18.237  42.837 -12.888  0.00  0.00    +0.000 A 
ATOM      8  C   UNL     1     -17.864  44.132 -12.546  0.00  0.00    +0.000 A 
ATOM      9  C   UNL     1     -18.917  42.651 -14.081  0.00  0.00    +0.000 A 
ATOM     10  C   UNL     1     -18.179  45.187 -13.395  0.00  0.00    +0.000 A 
ATOM     11  C   UNL     1     -18.862  44.895 -14.565  0.00  0.00    +0.000 A 
ATOM     12  H   UNL     1     -19.680  45.764 -16.271  0.00  0.00    +0.000 HD
ATOM     13  H   UNL     1     -19.300  46.898 -15.009  0.00  0.00    +0.000 HD
ENDBRANCH   3   7
BRANCH   2  14
ATOM     14  C   UNL     1     -18.681  40.317 -10.081  0.00  0.00    +0.000 C 
BRANCH  14  15
ATOM     15  C   UNL     1     -18.461  40.828  -8.660  0.00  0.00    +0.000 C 
BRANCH  15  16
ATOM     16  C   UNL     1     -19.673  40.683  -7.719  0.00  0.00    +0.000 C 
ATOM     17  C   UNL     1     -20.911  40.285  -8.527  0.00  0.00    +0.000 C 
ATOM     18  C   UNL     1     -19.960  41.963  -6.932  0.00  0.00    +0.000 C 
ENDBRANCH  15  16
ENDBRANCH  14  15
ENDBRANCH   2  14
TORSDOF 4
ENDMDL
