MODEL 1
REMARK VINA RESULT:    -6.065      0.000      0.000
REMARK INTER + INTRA:          -7.471
REMARK INTER:                  -6.951
REMARK INTRA:                  -0.520
REMARK UNBOUND:                -0.520
REMARK  Name = 62075008
REMARK  3 active torsions:
REMARK  status: ('A' for Active; 'I' for Inactive)
REMARK    1  A    between atoms: N_2  and  C_5
REMARK    2  A    between atoms: N_4  and  C_12
REMARK    3  A    between atoms: C_10  and  C_11
REMARK                            x       y       z     vdW  Elec       q    Type
REMARK                         _______ _______ _______ _____ _____    ______ ____
ROOT
ATOM      1  O   UNL     1     -17.322  40.234  -9.829  0.00  0.00    +0.000 OA
ATOM      2  N   UNL     1     -17.710  42.432 -10.458  0.00  0.00    +0.000 N 
ATOM      3  C   UNL     1     -17.984  41.267  -9.757  0.00  0.00    +0.000 C 
ATOM      4  H   UNL     1     -18.300  43.247 -10.312  0.00  0.00    +0.000 HD
ENDROOT
BRANCH   3   6
ATOM      5  N   UNL     1     -21.401  40.502  -8.332  0.00  0.00    +0.000 NA
ATOM      6  C   UNL     1     -19.187  41.299  -8.887  0.00  0.00    +0.000 A 
ATOM      7  C   UNL     1     -20.292  40.492  -9.105  0.00  0.00    +0.000 A 
ATOM      8  C   UNL     1     -19.223  42.173  -7.805  0.00  0.00    +0.000 A 
ATOM      9  C   UNL     1     -20.346  42.212  -6.986  0.00  0.00    +0.000 A 
ATOM     10  C   UNL     1     -21.399  41.364  -7.291  0.00  0.00    +0.000 A 
BRANCH   7  11
ATOM     11  N   UNL     1     -20.265  39.600 -10.206  0.00  0.00    +0.000 N 
ATOM     12  H   UNL     1     -20.499  38.627 -10.049  0.00  0.00    +0.000 HD
ATOM     13  H   UNL     1     -19.608  39.813 -10.946  0.00  0.00    +0.000 HD
ENDBRANCH   7  11
ENDBRANCH   3   6
BRANCH   2  14
ATOM     14  C   UNL     1     -16.593  42.549 -11.362  0.00  0.00    +0.000 C 
ATOM     15  C   UNL     1     -16.261  44.006 -11.662  0.00  0.00    +0.000 C 
ATOM     16  C   UNL     1     -16.915  41.986 -12.741  0.00  0.00    +0.000 C 
ATOM     17  C   UNL     1     -17.252  44.409 -12.749  0.00  0.00    +0.000 C 
ATOM     18  C   UNL     1     -17.639  43.117 -13.470  0.00  0.00    +0.000 C 
ENDBRANCH   2  14
TORSDOF 3
ENDMDL
MODEL 2
REMARK VINA RESULT:    -5.786      1.216      1.634
REMARK INTER + INTRA:          -7.152
REMARK INTER:                  -6.616
REMARK INTRA:                  -0.536
REMARK UNBOUND:                -0.520
REMARK  Name = 62075008
REMARK  3 active torsions:
REMARK  status: ('A' for Active; 'I' for Inactive)
REMARK    1  A    between atoms: N_2  and  C_5
REMARK    2  A    between atoms: N_4  and  C_12
REMARK    3  A    between atoms: C_10  and  C_11
REMARK                            x       y       z     vdW  Elec       q    Type
REMARK                         _______ _______ _______ _____ _____    ______ ____
ROOT
ATOM      1  O   UNL     1     -16.818  40.526 -11.523  0.00  0.00    +0.000 OA
ATOM      2  N   UNL     1     -17.726  42.643 -11.794  0.00  0.00    +0.000 N 
ATOM      3  C   UNL     1     -17.610  41.403 -11.184  0.00  0.00    +0.000 C 
ATOM      4  H   UNL     1     -18.393  43.315 -11.424  0.00  0.00    +0.000 HD
ENDROOT
BRANCH   3   6
ATOM      5  N   UNL     1     -20.343  39.857  -9.079  0.00  0.00    +0.000 NA
ATOM      6  C   UNL     1     -18.545  41.141 -10.060  0.00  0.00    +0.000 A 
ATOM      7  C   UNL     1     -19.479  40.117 -10.085  0.00  0.00    +0.000 A 
ATOM      8  C   UNL     1     -18.496  41.949  -8.930  0.00  0.00    +0.000 A 
ATOM      9  C   UNL     1     -19.369  41.714  -7.874  0.00  0.00    +0.000 A 
ATOM     10  C   UNL     1     -20.266  40.665  -7.998  0.00  0.00    +0.000 A 
BRANCH   7  11
ATOM     11  N   UNL     1     -19.538  39.289 -11.234  0.00  0.00    +0.000 N 
ATOM     12  H   UNL     1     -18.926  39.498 -12.015  0.00  0.00    +0.000 HD
ATOM     13  H   UNL     1     -20.431  38.859 -11.438  0.00  0.00    +0.000 HD
ENDBRANCH   7  11
ENDBRANCH   3   6
BRANCH   2  14
ATOM     14  C   UNL     1     -16.907  43.036 -12.914  0.00  0.00    +0.000 C 
ATOM     15  C   UNL     1     -15.550  43.562 -12.461  0.00  0.00    +0.000 C 
ATOM     16  C   UNL     1     -17.497  44.226 -13.660  0.00  0.00    +0.000 C 
ATOM     17  C   UNL     1     -15.810  45.014 -12.073  0.00  0.00    +0.000 C 
ATOM     18  C   UNL     1     -17.036  45.454 -12.876  0.00  0.00    +0.000 C 
ENDBRANCH   2  14
TORSDOF 3
ENDMDL
MODEL 3
REMARK VINA RESULT:    -5.725      3.754      5.467
REMARK INTER + INTRA:          -7.082
REMARK INTER:                  -6.545
REMARK INTRA:                  -0.537
REMARK UNBOUND:                -0.520
REMARK  Name = 62075008
REMARK  3 active torsions:
REMARK  status: ('A' for Active; 'I' for Inactive)
REMARK    1  A    between atoms: N_2  and  C_5
REMARK    2  A    between atoms: N_4  and  C_12
REMARK    3  A    between atoms: C_10  and  C_11
REMARK                            x       y       z     vdW  Elec       q    Type
REMARK                         _______ _______ _______ _____ _____    ______ ____
ROOT
ATOM      1  O   UNL     1     -18.887  44.158 -13.245  0.00  0.00    +0.000 OA
ATOM      2  N   UNL     1     -19.937  42.775 -14.782  0.00  0.00    +0.000 N 
ATOM      3  C   UNL     1     -19.175  43.035 -13.653  0.00  0.00    +0.000 C 
ATOM      4  H   UNL     1     -20.147  41.810 -15.024  0.00  0.00    +0.000 HD
ENDROOT
BRANCH   3   6
ATOM      5  N   UNL     1     -16.822  40.531 -12.076  0.00  0.00    +0.000 NA
ATOM      6  C   UNL     1     -18.665  41.845 -12.923  0.00  0.00    +0.000 A 
ATOM      7  C   UNL     1     -17.314  41.605 -12.733  0.00  0.00    +0.000 A 
ATOM      8  C   UNL     1     -19.569  40.924 -12.407  0.00  0.00    +0.000 A 
ATOM      9  C   UNL     1     -19.102  39.805 -11.726  0.00  0.00    +0.000 A 
ATOM     10  C   UNL     1     -17.731  39.657 -11.589  0.00  0.00    +0.000 A 
BRANCH   7  11
ATOM     11  N   UNL     1     -16.385  42.539 -13.257  0.00  0.00    +0.000 N 
ATOM     12  H   UNL     1     -16.579  42.963 -14.157  0.00  0.00    +0.000 HD
ATOM     13  H   UNL     1     -15.416  42.409 -12.997  0.00  0.00    +0.000 HD
ENDBRANCH   7  11
ENDBRANCH   3   6
BRANCH   2  14
ATOM     14  C   UNL     1     -20.481  43.823 -15.609  0.00  0.00    +0.000 C 
ATOM     15  C   UNL     1     -21.694  43.344 -16.399  0.00  0.00    +0.000 C 
ATOM     16  C   UNL     1     -19.510  44.245 -16.705  0.00  0.00    +0.000 C 
ATOM     17  C   UNL     1     -21.104  42.623 -17.608  0.00  0.00    +0.000 C 
ATOM     18  C   UNL     1     -19.719  43.232 -17.829  0.00  0.00    +0.000 C 
ENDBRANCH   2  14
TORSDOF 3
ENDMDL
MODEL 4
REMARK VINA RESULT:    -5.670      2.029      5.396
REMARK INTER + INTRA:          -7.019
REMARK INTER:                  -6.524
REMARK INTRA:                  -0.495
REMARK UNBOUND:                -0.520
REMARK  Name = 62075008
REMARK  3 active torsions:
REMARK  status: ('A' for Active; 'I' for Inactive)
REMARK    1  A    between atoms: N_2  and  C_5
REMARK    2  A    between atoms: N_4  and  C_12
REMARK    3  A    between atoms: C_10  and  C_11
REMARK                            x       y       z     vdW  Elec       q    Type
REMARK                         _______ _______ _______ _____ _____    ______ ____
ROOT
ATOM      1  O   UNL     1     -16.600  41.732 -11.760  0.00  0.00    +0.000 OA
ATOM      2  N   UNL     1     -18.695  41.859 -10.774  0.00  0.00    +0.000 N 
ATOM      3  C   UNL     1     -17.654  42.331 -11.559  0.00  0.00    +0.000 C 
ATOM      4  H   UNL     1     -19.542  42.415 -10.691  0.00  0.00    +0.000 HD
ENDROOT
BRANCH   3   6
ATOM      5  N   UNL     1     -18.451  45.058 -14.053  0.00  0.00    +0.000 NA
ATOM      6  C   UNL     1     -17.852  43.673 -12.165  0.00  0.00    +0.000 A 
ATOM      7  C   UNL     1     -18.265  43.850 -13.476  0.00  0.00    +0.000 A 
ATOM      8  C   UNL     1     -17.615  44.808 -11.398  0.00  0.00    +0.000 A 
ATOM      9  C   UNL     1     -17.795  46.069 -11.957  0.00  0.00    +0.000 A 
ATOM     10  C   UNL     1     -18.210  46.138 -13.277  0.00  0.00    +0.000 A 
BRANCH   7  11
ATOM     11  N   UNL     1     -18.506  42.698 -14.265  0.00  0.00    +0.000 N 
ATOM     12  H   UNL     1     -18.694  42.817 -15.254  0.00  0.00    +0.000 HD
ATOM     13  H   UNL     1     -18.933  41.909 -13.797  0.00  0.00    +0.000 HD
ENDBRANCH   7  11
ENDBRANCH   3   6
BRANCH   2  14
ATOM     14  C   UNL     1     -18.643  40.586 -10.099  0.00  0.00    +0.000 C 
ATOM     15  C   UNL     1     -20.031  39.981  -9.930  0.00  0.00    +0.000 C 
ATOM     16  C   UNL     1     -18.157  40.724  -8.662  0.00  0.00    +0.000 C 
ATOM     17  C   UNL     1     -20.603  40.672  -8.696  0.00  0.00    +0.000 C 
ATOM     18  C   UNL     1     -19.399  41.111  -7.861  0.00  0.00    +0.000 C 
ENDBRANCH   2  14
TORSDOF 3
ENDMDL
MODEL 5
REMARK VINA RESULT:    -5.404      3.643      6.042
REMARK INTER + INTRA:          -6.714
REMARK INTER:                  -6.188
REMARK INTRA:                  -0.526
REMARK UNBOUND:                -0.520
REMARK  Name = 62075008
REMARK  3 active torsions:
REMARK  status: ('A' for Active; 'I' for Inactive)
REMARK    1  A    between atoms: N_2  and  C_5
REMARK    2  A    between atoms: N_4  and  C_12
REMARK    3  A    between atoms: C_10  and  C_11
REMARK                            x       y       z     vdW  Elec       q    Type
REMARK                         _______ _______ _______ _____ _____    ______ ____
ROOT
ATOM      1  O   UNL     1     -19.952  42.434 -14.569  0.00  0.00    +0.000 OA
ATOM      2  N   UNL     1     -18.122  41.997 -13.215  0.00  0.00    +0.000 N 
ATOM      3  C   UNL     1     -18.993  42.824 -13.908  0.00  0.00    +0.000 C 
ATOM      4  H   UNL     1     -17.371  42.415 -12.671  0.00  0.00    +0.000 HD
ENDROOT
BRANCH   3   6
ATOM      5  N   UNL     1     -18.412  46.414 -14.940  0.00  0.00    +0.000 NA
ATOM      6  C   UNL     1     -18.698  44.279 -13.844  0.00  0.00    +0.000 A 
ATOM      7  C   UNL     1     -18.680  45.089 -14.968  0.00  0.00    +0.000 A 
ATOM      8  C   UNL     1     -18.425  44.865 -12.614  0.00  0.00    +0.000 A 
ATOM      9  C   UNL     1     -18.145  46.226 -12.544  0.00  0.00    +0.000 A 
ATOM     10  C   UNL     1     -18.151  46.949 -13.726  0.00  0.00    +0.000 A 
BRANCH   7  11
ATOM     11  N   UNL     1     -18.955  44.499 -16.227  0.00  0.00    +0.000 N 
ATOM     12  H   UNL     1     -19.559  44.993 -16.873  0.00  0.00    +0.000 HD
ATOM     13  H   UNL     1     -18.954  43.488 -16.263  0.00  0.00    +0.000 HD
ENDBRANCH   7  11
ENDBRANCH   3   6
BRANCH   2  14
ATOM     14  C   UNL     1     -18.260  40.561 -13.201  0.00  0.00    +0.000 C 
ATOM     15  C   UNL     1     -19.146  40.092 -12.053  0.00  0.00    +0.000 C 
ATOM     16  C   UNL     1     -16.936  39.865 -12.913  0.00  0.00    +0.000 C 
ATOM     17  C   UNL     1     -18.220  40.068 -10.840  0.00  0.00    +0.000 C 
ATOM     18  C   UNL     1     -16.806  39.879 -11.390  0.00  0.00    +0.000 C 
ENDBRANCH   2  14
TORSDOF 3
ENDMDL
