MODEL 1
REMARK VINA RESULT:    -7.051      0.000      0.000
REMARK INTER + INTRA:          -8.594
REMARK INTER:                  -8.288
REMARK INTRA:                  -0.306
REMARK UNBOUND:                -0.306
REMARK  Name = 62072404
REMARK  3 active torsions:
REMARK  status: ('A' for Active; 'I' for Inactive)
REMARK    1  A    between atoms: N_5  and  C_8
REMARK    2  A    between atoms: C_8  and  C_11
REMARK    3  A    between atoms: C_9  and  C_10
REMARK                            x       y       z     vdW  Elec       q    Type
REMARK                         _______ _______ _______ _____ _____    ______ ____
ROOT
ATOM      1  N   UNL     1     -22.257  41.382  -7.426  0.00  0.00    +0.000 NA
ATOM      2  N   UNL     1     -22.565  42.898  -5.613  0.00  0.00    +0.000 N 
ATOM      3  C   UNL     1     -20.046  41.075  -8.355  0.00  0.00    +0.000 A 
ATOM      4  C   UNL     1     -19.528  41.990  -7.445  0.00  0.00    +0.000 A 
ATOM      5  C   UNL     1     -21.404  40.808  -8.305  0.00  0.00    +0.000 A 
ATOM      6  C   UNL     1     -20.373  42.601  -6.525  0.00  0.00    +0.000 A 
ATOM      7  C   UNL     1     -21.717  42.267  -6.556  0.00  0.00    +0.000 A 
ATOM      8  H   UNL     1     -22.168  43.197  -4.732  0.00  0.00    +0.000 HD
ATOM      9  H   UNL     1     -23.546  42.645  -5.636  0.00  0.00    +0.000 HD
ENDROOT
BRANCH   3  12
ATOM     10  O   UNL     1     -17.970  40.294  -9.115  0.00  0.00    +0.000 OA
ATOM     11  N   UNL     1     -19.803  39.924 -10.485  0.00  0.00    +0.000 N 
ATOM     12  C   UNL     1     -19.189  40.419  -9.328  0.00  0.00    +0.000 C 
ATOM     13  H   UNL     1     -20.809  39.990 -10.593  0.00  0.00    +0.000 HD
BRANCH  11  14
ATOM     14  C   UNL     1     -19.091  39.229 -11.533  0.00  0.00    +0.000 C 
BRANCH  14  18
ATOM     15  F   UNL     1     -17.531  40.898 -12.136  0.00  0.00    +0.000 F 
ATOM     16  F   UNL     1     -18.178  39.503 -13.682  0.00  0.00    +0.000 F 
ATOM     17  F   UNL     1     -19.545  41.046 -12.974  0.00  0.00    +0.000 F 
ATOM     18  C   UNL     1     -18.583  40.182 -12.586  0.00  0.00    +0.000 C 
ENDBRANCH  14  18
ENDBRANCH  11  14
ENDBRANCH   3  12
TORSDOF 3
ENDMDL
MODEL 2
REMARK VINA RESULT:    -6.788      1.609      1.983
REMARK INTER + INTRA:          -8.285
REMARK INTER:                  -8.028
REMARK INTRA:                  -0.257
REMARK UNBOUND:                -0.306
REMARK  Name = 62072404
REMARK  3 active torsions:
REMARK  status: ('A' for Active; 'I' for Inactive)
REMARK    1  A    between atoms: N_5  and  C_8
REMARK    2  A    between atoms: C_8  and  C_11
REMARK    3  A    between atoms: C_9  and  C_10
REMARK                            x       y       z     vdW  Elec       q    Type
REMARK                         _______ _______ _______ _____ _____    ______ ____
ROOT
ATOM      1  N   UNL     1     -19.352  42.291  -7.124  0.00  0.00    +0.000 NA
ATOM      2  N   UNL     1     -20.988  42.578  -5.415  0.00  0.00    +0.000 N 
ATOM      3  C   UNL     1     -19.891  40.967  -9.074  0.00  0.00    +0.000 A 
ATOM      4  C   UNL     1     -21.163  40.725  -8.567  0.00  0.00    +0.000 A 
ATOM      5  C   UNL     1     -19.031  41.748  -8.320  0.00  0.00    +0.000 A 
ATOM      6  C   UNL     1     -21.531  41.266  -7.340  0.00  0.00    +0.000 A 
ATOM      7  C   UNL     1     -20.598  42.035  -6.664  0.00  0.00    +0.000 A 
ATOM      8  H   UNL     1     -21.969  42.770  -5.258  0.00  0.00    +0.000 HD
ATOM      9  H   UNL     1     -20.304  43.145  -4.928  0.00  0.00    +0.000 HD
ENDROOT
BRANCH   3  12
ATOM     10  O   UNL     1     -19.490  39.187 -10.548  0.00  0.00    +0.000 OA
ATOM     11  N   UNL     1     -19.090  41.328 -11.343  0.00  0.00    +0.000 N 
ATOM     12  C   UNL     1     -19.476  40.416 -10.353  0.00  0.00    +0.000 C 
ATOM     13  H   UNL     1     -19.151  42.325 -11.166  0.00  0.00    +0.000 HD
BRANCH  11  14
ATOM     14  C   UNL     1     -18.674  40.938 -12.671  0.00  0.00    +0.000 C 
BRANCH  14  18
ATOM     15  F   UNL     1     -16.581  40.934 -11.573  0.00  0.00    +0.000 F 
ATOM     16  F   UNL     1     -16.793  39.708 -13.364  0.00  0.00    +0.000 F 
ATOM     17  F   UNL     1     -16.689  41.879 -13.541  0.00  0.00    +0.000 F 
ATOM     18  C   UNL     1     -17.172  40.870 -12.786  0.00  0.00    +0.000 C 
ENDBRANCH  14  18
ENDBRANCH  11  14
ENDBRANCH   3  12
TORSDOF 3
ENDMDL
MODEL 3
REMARK VINA RESULT:    -6.538      3.625      5.931
REMARK INTER + INTRA:          -7.991
REMARK INTER:                  -7.707
REMARK INTRA:                  -0.284
REMARK UNBOUND:                -0.306
REMARK  Name = 62072404
REMARK  3 active torsions:
REMARK  status: ('A' for Active; 'I' for Inactive)
REMARK    1  A    between atoms: N_5  and  C_8
REMARK    2  A    between atoms: C_8  and  C_11
REMARK    3  A    between atoms: C_9  and  C_10
REMARK                            x       y       z     vdW  Elec       q    Type
REMARK                         _______ _______ _______ _____ _____    ______ ____
ROOT
ATOM      1  N   UNL     1     -17.992  39.506 -11.299  0.00  0.00    +0.000 NA
ATOM      2  N   UNL     1     -16.622  39.715 -13.237  0.00  0.00    +0.000 N 
ATOM      3  C   UNL     1     -18.202  41.380  -9.785  0.00  0.00    +0.000 A 
ATOM      4  C   UNL     1     -17.353  42.134 -10.587  0.00  0.00    +0.000 A 
ATOM      5  C   UNL     1     -18.488  40.084 -10.180  0.00  0.00    +0.000 A 
ATOM      6  C   UNL     1     -16.822  41.575 -11.746  0.00  0.00    +0.000 A 
ATOM      7  C   UNL     1     -17.170  40.270 -12.054  0.00  0.00    +0.000 A 
ATOM      8  H   UNL     1     -16.386  40.339 -13.998  0.00  0.00    +0.000 HD
ATOM      9  H   UNL     1     -16.883  38.763 -13.461  0.00  0.00    +0.000 HD
ENDROOT
BRANCH   3  12
ATOM     10  O   UNL     1     -18.443  43.069  -8.176  0.00  0.00    +0.000 OA
ATOM     11  N   UNL     1     -19.711  41.149  -7.890  0.00  0.00    +0.000 N 
ATOM     12  C   UNL     1     -18.772  41.935  -8.569  0.00  0.00    +0.000 C 
ATOM     13  H   UNL     1     -19.999  40.256  -8.276  0.00  0.00    +0.000 HD
BRANCH  11  14
ATOM     14  C   UNL     1     -20.382  41.570  -6.682  0.00  0.00    +0.000 C 
BRANCH  14  18
ATOM     15  F   UNL     1     -22.107  43.127  -7.112  0.00  0.00    +0.000 F 
ATOM     16  F   UNL     1     -22.272  41.149  -8.017  0.00  0.00    +0.000 F 
ATOM     17  F   UNL     1     -22.596  41.392  -5.875  0.00  0.00    +0.000 F 
ATOM     18  C   UNL     1     -21.851  41.815  -6.918  0.00  0.00    +0.000 C 
ENDBRANCH  14  18
ENDBRANCH  11  14
ENDBRANCH   3  12
TORSDOF 3
ENDMDL
MODEL 4
REMARK VINA RESULT:    -6.452      3.897      5.949
REMARK INTER + INTRA:          -7.889
REMARK INTER:                  -7.547
REMARK INTRA:                  -0.342
REMARK UNBOUND:                -0.306
REMARK  Name = 62072404
REMARK  3 active torsions:
REMARK  status: ('A' for Active; 'I' for Inactive)
REMARK    1  A    between atoms: N_5  and  C_8
REMARK    2  A    between atoms: C_8  and  C_11
REMARK    3  A    between atoms: C_9  and  C_10
REMARK                            x       y       z     vdW  Elec       q    Type
REMARK                         _______ _______ _______ _____ _____    ______ ____
ROOT
ATOM      1  N   UNL     1     -18.789  40.822 -12.078  0.00  0.00    +0.000 NA
ATOM      2  N   UNL     1     -16.837  41.822 -13.008  0.00  0.00    +0.000 N 
ATOM      3  C   UNL     1     -19.306  41.172  -9.742  0.00  0.00    +0.000 A 
ATOM      4  C   UNL     1     -18.167  41.957  -9.600  0.00  0.00    +0.000 A 
ATOM      5  C   UNL     1     -19.570  40.632 -10.990  0.00  0.00    +0.000 A 
ATOM      6  C   UNL     1     -17.339  42.175 -10.696  0.00  0.00    +0.000 A 
ATOM      7  C   UNL     1     -17.691  41.591 -11.902  0.00  0.00    +0.000 A 
ATOM      8  H   UNL     1     -16.300  42.680 -13.032  0.00  0.00    +0.000 HD
ATOM      9  H   UNL     1     -17.102  41.398 -13.889  0.00  0.00    +0.000 HD
ENDROOT
BRANCH   3  12
ATOM     10  O   UNL     1     -21.016  39.995  -8.652  0.00  0.00    +0.000 OA
ATOM     11  N   UNL     1     -20.052  41.763  -7.503  0.00  0.00    +0.000 N 
ATOM     12  C   UNL     1     -20.191  40.926  -8.617  0.00  0.00    +0.000 C 
ATOM     13  H   UNL     1     -19.327  42.471  -7.488  0.00  0.00    +0.000 HD
BRANCH  11  14
ATOM     14  C   UNL     1     -20.842  41.630  -6.300  0.00  0.00    +0.000 C 
BRANCH  14  18
ATOM     15  F   UNL     1     -21.855  43.644  -7.010  0.00  0.00    +0.000 F 
ATOM     16  F   UNL     1     -23.078  41.838  -6.998  0.00  0.00    +0.000 F 
ATOM     17  F   UNL     1     -22.528  42.787  -5.114  0.00  0.00    +0.000 F 
ATOM     18  C   UNL     1     -22.083  42.486  -6.353  0.00  0.00    +0.000 C 
ENDBRANCH  14  18
ENDBRANCH  11  14
ENDBRANCH   3  12
TORSDOF 3
ENDMDL
MODEL 5
REMARK VINA RESULT:    -6.240      2.106      2.628
REMARK INTER + INTRA:          -7.640
REMARK INTER:                  -7.405
REMARK INTRA:                  -0.235
REMARK UNBOUND:                -0.306
REMARK  Name = 62072404
REMARK  3 active torsions:
REMARK  status: ('A' for Active; 'I' for Inactive)
REMARK    1  A    between atoms: N_5  and  C_8
REMARK    2  A    between atoms: C_8  and  C_11
REMARK    3  A    between atoms: C_9  and  C_10
REMARK                            x       y       z     vdW  Elec       q    Type
REMARK                         _______ _______ _______ _____ _____    ______ ____
ROOT
ATOM      1  N   UNL     1     -21.717  40.674  -8.166  0.00  0.00    +0.000 NA
ATOM      2  N   UNL     1     -22.395  41.917  -6.249  0.00  0.00    +0.000 N 
ATOM      3  C   UNL     1     -19.462  40.919  -9.004  0.00  0.00    +0.000 A 
ATOM      4  C   UNL     1     -19.178  41.833  -7.995  0.00  0.00    +0.000 A 
ATOM      5  C   UNL     1     -20.735  40.374  -9.046  0.00  0.00    +0.000 A 
ATOM      6  C   UNL     1     -20.162  42.167  -7.070  0.00  0.00    +0.000 A 
ATOM      7  C   UNL     1     -21.404  41.566  -7.199  0.00  0.00    +0.000 A 
ATOM      8  H   UNL     1     -22.098  42.208  -5.327  0.00  0.00    +0.000 HD
ATOM      9  H   UNL     1     -23.299  41.470  -6.344  0.00  0.00    +0.000 HD
ENDROOT
BRANCH   3  12
ATOM     10  O   UNL     1     -18.519  39.455 -10.574  0.00  0.00    +0.000 OA
ATOM     11  N   UNL     1     -17.444  41.482 -10.242  0.00  0.00    +0.000 N 
ATOM     12  C   UNL     1     -18.456  40.549  -9.985  0.00  0.00    +0.000 C 
ATOM     13  H   UNL     1     -17.462  42.388  -9.786  0.00  0.00    +0.000 HD
BRANCH  11  14
ATOM     14  C   UNL     1     -16.387  41.271 -11.204  0.00  0.00    +0.000 C 
BRANCH  14  18
ATOM     15  F   UNL     1     -16.201  42.587 -13.158  0.00  0.00    +0.000 F 
ATOM     16  F   UNL     1     -16.587  43.613 -11.272  0.00  0.00    +0.000 F 
ATOM     17  F   UNL     1     -14.616  42.767 -11.663  0.00  0.00    +0.000 F 
ATOM     18  C   UNL     1     -15.940  42.567 -11.833  0.00  0.00    +0.000 C 
ENDBRANCH  14  18
ENDBRANCH  11  14
ENDBRANCH   3  12
TORSDOF 3
ENDMDL
