MODEL 1
REMARK VINA RESULT:    -6.492      0.000      0.000
REMARK INTER + INTRA:          -9.489
REMARK INTER:                  -8.769
REMARK INTRA:                  -0.720
REMARK UNBOUND:                -0.720
REMARK  Name = 62074661
REMARK  7 active torsions:
REMARK  status: ('A' for Active; 'I' for Inactive)
REMARK    1  A    between atoms: N_2  and  C_8
REMARK    2  A    between atoms: C_5  and  C_6
REMARK    3  A    between atoms: C_5  and  C_7
REMARK    4  A    between atoms: C_6  and  C_8
REMARK    5  A    between atoms: C_7  and  C_9
REMARK    6  A    between atoms: C_9  and  C_10
REMARK    7  A    between atoms: C_11  and  C_12
REMARK                            x       y       z     vdW  Elec       q    Type
REMARK                         _______ _______ _______ _____ _____    ______ ____
ROOT
ATOM      1  O   UNL     1     -17.945  40.123  -9.192  0.00  0.00    +0.000 OA
ATOM      2  N   UNL     1     -19.760  39.902 -10.619  0.00  0.00    +0.000 N 
ATOM      3  C   UNL     1     -19.130  40.310  -9.448  0.00  0.00    +0.000 C 
ATOM      4  H   UNL     1     -20.757  40.039 -10.742  0.00  0.00    +0.000 HD
ENDROOT
BRANCH   3   7
ATOM      5  N   UNL     1     -22.189  41.340  -7.505  0.00  0.00    +0.000 NA
ATOM      6  N   UNL     1     -22.461  42.867  -5.696  0.00  0.00    +0.000 N 
ATOM      7  C   UNL     1     -19.990  40.997  -8.450  0.00  0.00    +0.000 A 
ATOM      8  C   UNL     1     -19.452  41.907  -7.546  0.00  0.00    +0.000 A 
ATOM      9  C   UNL     1     -21.351  40.750  -8.387  0.00  0.00    +0.000 A 
ATOM     10  C   UNL     1     -20.281  42.534  -6.623  0.00  0.00    +0.000 A 
ATOM     11  C   UNL     1     -21.630  42.219  -6.643  0.00  0.00    +0.000 A 
ATOM     12  H   UNL     1     -23.445  42.628  -5.710  0.00  0.00    +0.000 HD
ATOM     13  H   UNL     1     -22.052  43.162  -4.818  0.00  0.00    +0.000 HD
ENDBRANCH   3   7
BRANCH   2  14
ATOM     14  C   UNL     1     -19.069  39.204 -11.668  0.00  0.00    +0.000 C 
BRANCH  14  15
ATOM     15  C   UNL     1     -18.708  40.114 -12.839  0.00  0.00    +0.000 C 
BRANCH  15  16
ATOM     16  C   UNL     1     -17.359  40.815 -12.645  0.00  0.00    +0.000 C 
BRANCH  16  17
ATOM     17  C   UNL     1     -17.403  42.253 -13.168  0.00  0.00    +0.000 C 
BRANCH  17  18
ATOM     18  C   UNL     1     -18.095  43.226 -12.211  0.00  0.00    +0.000 C 
ATOM     19  C   UNL     1     -17.486  43.243 -10.818  0.00  0.00    +0.000 C 
ENDBRANCH  17  18
ENDBRANCH  16  17
ENDBRANCH  15  16
ENDBRANCH  14  15
ENDBRANCH   2  14
TORSDOF 6
ENDMDL
MODEL 2
REMARK VINA RESULT:    -5.976      1.469      2.044
REMARK INTER + INTRA:          -8.793
REMARK INTER:                  -8.319
REMARK INTRA:                  -0.474
REMARK UNBOUND:                -0.720
REMARK  Name = 62074661
REMARK  7 active torsions:
REMARK  status: ('A' for Active; 'I' for Inactive)
REMARK    1  A    between atoms: N_2  and  C_8
REMARK    2  A    between atoms: C_5  and  C_6
REMARK    3  A    between atoms: C_5  and  C_7
REMARK    4  A    between atoms: C_6  and  C_8
REMARK    5  A    between atoms: C_7  and  C_9
REMARK    6  A    between atoms: C_9  and  C_10
REMARK    7  A    between atoms: C_11  and  C_12
REMARK                            x       y       z     vdW  Elec       q    Type
REMARK                         _______ _______ _______ _____ _____    ______ ____
ROOT
ATOM      1  O   UNL     1     -19.919  39.330  -9.948  0.00  0.00    +0.000 OA
ATOM      2  N   UNL     1     -18.126  40.768  -9.642  0.00  0.00    +0.000 N 
ATOM      3  C   UNL     1     -19.401  40.283  -9.374  0.00  0.00    +0.000 C 
ATOM      4  H   UNL     1     -17.781  41.597  -9.169  0.00  0.00    +0.000 HD
ENDROOT
BRANCH   3   7
ATOM      5  N   UNL     1     -20.181  42.551  -6.469  0.00  0.00    +0.000 NA
ATOM      6  N   UNL     1     -22.242  43.077  -5.395  0.00  0.00    +0.000 N 
ATOM      7  C   UNL     1     -20.171  41.010  -8.332  0.00  0.00    +0.000 A 
ATOM      8  C   UNL     1     -21.549  40.858  -8.223  0.00  0.00    +0.000 A 
ATOM      9  C   UNL     1     -19.541  41.861  -7.440  0.00  0.00    +0.000 A 
ATOM     10  C   UNL     1     -22.244  41.551  -7.237  0.00  0.00    +0.000 A 
ATOM     11  C   UNL     1     -21.520  42.378  -6.393  0.00  0.00    +0.000 A 
ATOM     12  H   UNL     1     -21.710  43.685  -4.785  0.00  0.00    +0.000 HD
ATOM     13  H   UNL     1     -23.212  43.307  -5.573  0.00  0.00    +0.000 HD
ENDBRANCH   3   7
BRANCH   2  14
ATOM     14  C   UNL     1     -17.269  40.188 -10.638  0.00  0.00    +0.000 C 
BRANCH  14  15
ATOM     15  C   UNL     1     -16.562  41.240 -11.488  0.00  0.00    +0.000 C 
BRANCH  15  16
ATOM     16  C   UNL     1     -17.020  41.220 -12.950  0.00  0.00    +0.000 C 
BRANCH  16  17
ATOM     17  C   UNL     1     -18.508  40.873 -13.058  0.00  0.00    +0.000 C 
BRANCH  17  18
ATOM     18  C   UNL     1     -19.418  42.103 -13.062  0.00  0.00    +0.000 C 
ATOM     19  C   UNL     1     -19.070  43.112 -14.145  0.00  0.00    +0.000 C 
ENDBRANCH  17  18
ENDBRANCH  16  17
ENDBRANCH  15  16
ENDBRANCH  14  15
ENDBRANCH   2  14
TORSDOF 6
ENDMDL
MODEL 3
REMARK VINA RESULT:    -5.434      2.745      6.199
REMARK INTER + INTRA:          -8.060
REMARK INTER:                  -7.650
REMARK INTRA:                  -0.410
REMARK UNBOUND:                -0.720
REMARK  Name = 62074661
REMARK  7 active torsions:
REMARK  status: ('A' for Active; 'I' for Inactive)
REMARK    1  A    between atoms: N_2  and  C_8
REMARK    2  A    between atoms: C_5  and  C_6
REMARK    3  A    between atoms: C_5  and  C_7
REMARK    4  A    between atoms: C_6  and  C_8
REMARK    5  A    between atoms: C_7  and  C_9
REMARK    6  A    between atoms: C_9  and  C_10
REMARK    7  A    between atoms: C_11  and  C_12
REMARK                            x       y       z     vdW  Elec       q    Type
REMARK                         _______ _______ _______ _____ _____    ______ ____
ROOT
ATOM      1  O   UNL     1     -16.523  42.215 -10.897  0.00  0.00    +0.000 OA
ATOM      2  N   UNL     1     -18.606  41.389 -10.299  0.00  0.00    +0.000 N 
ATOM      3  C   UNL     1     -17.722  42.080 -11.120  0.00  0.00    +0.000 C 
ATOM      4  H   UNL     1     -19.597  41.366 -10.515  0.00  0.00    +0.000 HD
ENDROOT
BRANCH   3   7
ATOM      5  N   UNL     1     -18.290  44.515 -13.938  0.00  0.00    +0.000 NA
ATOM      6  N   UNL     1     -19.888  44.528 -15.706  0.00  0.00    +0.000 N 
ATOM      7  C   UNL     1     -18.310  42.708 -12.332  0.00  0.00    +0.000 A 
ATOM      8  C   UNL     1     -19.386  42.125 -12.991  0.00  0.00    +0.000 A 
ATOM      9  C   UNL     1     -17.803  43.892 -12.841  0.00  0.00    +0.000 A 
ATOM     10  C   UNL     1     -19.916  42.736 -14.123  0.00  0.00    +0.000 A 
ATOM     11  C   UNL     1     -19.337  43.919 -14.552  0.00  0.00    +0.000 A 
ATOM     12  H   UNL     1     -19.457  45.389 -16.020  0.00  0.00    +0.000 HD
ATOM     13  H   UNL     1     -20.336  43.938 -16.395  0.00  0.00    +0.000 HD
ENDBRANCH   3   7
BRANCH   2  14
ATOM     14  C   UNL     1     -18.194  40.750  -9.080  0.00  0.00    +0.000 C 
BRANCH  14  15
ATOM     15  C   UNL     1     -19.356  40.511  -8.121  0.00  0.00    +0.000 C 
BRANCH  15  16
ATOM     16  C   UNL     1     -20.705  40.933  -8.715  0.00  0.00    +0.000 C 
BRANCH  16  17
ATOM     17  C   UNL     1     -21.782  41.023  -7.631  0.00  0.00    +0.000 C 
BRANCH  17  18
ATOM     18  C   UNL     1     -21.848  42.393  -6.954  0.00  0.00    +0.000 C 
ATOM     19  C   UNL     1     -21.428  42.370  -5.493  0.00  0.00    +0.000 C 
ENDBRANCH  17  18
ENDBRANCH  16  17
ENDBRANCH  15  16
ENDBRANCH  14  15
ENDBRANCH   2  14
TORSDOF 6
ENDMDL
MODEL 4
REMARK VINA RESULT:    -5.281      3.234      6.466
REMARK INTER + INTRA:          -7.853
REMARK INTER:                  -7.600
REMARK INTRA:                  -0.253
REMARK UNBOUND:                -0.720
REMARK  Name = 62074661
REMARK  7 active torsions:
REMARK  status: ('A' for Active; 'I' for Inactive)
REMARK    1  A    between atoms: N_2  and  C_8
REMARK    2  A    between atoms: C_5  and  C_6
REMARK    3  A    between atoms: C_5  and  C_7
REMARK    4  A    between atoms: C_6  and  C_8
REMARK    5  A    between atoms: C_7  and  C_9
REMARK    6  A    between atoms: C_9  and  C_10
REMARK    7  A    between atoms: C_11  and  C_12
REMARK                            x       y       z     vdW  Elec       q    Type
REMARK                         _______ _______ _______ _____ _____    ______ ____
ROOT
ATOM      1  O   UNL     1     -18.262  41.283 -12.070  0.00  0.00    +0.000 OA
ATOM      2  N   UNL     1     -17.723  41.542  -9.828  0.00  0.00    +0.000 N 
ATOM      3  C   UNL     1     -17.672  41.882 -11.176  0.00  0.00    +0.000 C 
ATOM      4  H   UNL     1     -17.164  42.047  -9.149  0.00  0.00    +0.000 HD
ENDROOT
BRANCH   3   7
ATOM      5  N   UNL     1     -14.599  43.930 -11.926  0.00  0.00    +0.000 NA
ATOM      6  N   UNL     1     -14.343  46.231 -12.490  0.00  0.00    +0.000 N 
ATOM      7  C   UNL     1     -16.813  43.044 -11.524  0.00  0.00    +0.000 A 
ATOM      8  C   UNL     1     -17.366  44.296 -11.770  0.00  0.00    +0.000 A 
ATOM      9  C   UNL     1     -15.437  42.915 -11.615  0.00  0.00    +0.000 A 
ATOM     10  C   UNL     1     -16.538  45.365 -12.094  0.00  0.00    +0.000 A 
ATOM     11  C   UNL     1     -15.174  45.132 -12.158  0.00  0.00    +0.000 A 
ATOM     12  H   UNL     1     -13.348  46.054 -12.542  0.00  0.00    +0.000 HD
ATOM     13  H   UNL     1     -14.729  46.971 -13.061  0.00  0.00    +0.000 HD
ENDBRANCH   3   7
BRANCH   2  14
ATOM     14  C   UNL     1     -18.489  40.429  -9.339  0.00  0.00    +0.000 C 
BRANCH  14  15
ATOM     15  C   UNL     1     -19.970  40.758  -9.186  0.00  0.00    +0.000 C 
BRANCH  15  16
ATOM     16  C   UNL     1     -20.340  41.157  -7.754  0.00  0.00    +0.000 C 
BRANCH  16  17
ATOM     17  C   UNL     1     -21.855  41.311  -7.596  0.00  0.00    +0.000 C 
BRANCH  17  18
ATOM     18  C   UNL     1     -22.258  42.540  -6.779  0.00  0.00    +0.000 C 
ATOM     19  C   UNL     1     -21.705  42.535  -5.362  0.00  0.00    +0.000 C 
ENDBRANCH  17  18
ENDBRANCH  16  17
ENDBRANCH  15  16
ENDBRANCH  14  15
ENDBRANCH   2  14
TORSDOF 6
ENDMDL
MODEL 5
REMARK VINA RESULT:    -5.172      3.272      6.358
REMARK INTER + INTRA:          -7.706
REMARK INTER:                  -7.356
REMARK INTRA:                  -0.350
REMARK UNBOUND:                -0.720
REMARK  Name = 62074661
REMARK  7 active torsions:
REMARK  status: ('A' for Active; 'I' for Inactive)
REMARK    1  A    between atoms: N_2  and  C_8
REMARK    2  A    between atoms: C_5  and  C_6
REMARK    3  A    between atoms: C_5  and  C_7
REMARK    4  A    between atoms: C_6  and  C_8
REMARK    5  A    between atoms: C_7  and  C_9
REMARK    6  A    between atoms: C_9  and  C_10
REMARK    7  A    between atoms: C_11  and  C_12
REMARK                            x       y       z     vdW  Elec       q    Type
REMARK                         _______ _______ _______ _____ _____    ______ ____
ROOT
ATOM      1  O   UNL     1     -19.515  40.688 -13.116  0.00  0.00    +0.000 OA
ATOM      2  N   UNL     1     -17.890  41.467 -11.656  0.00  0.00    +0.000 N 
ATOM      3  C   UNL     1     -18.759  41.577 -12.736  0.00  0.00    +0.000 C 
ATOM      4  H   UNL     1     -17.250  42.222 -11.431  0.00  0.00    +0.000 HD
ENDROOT
BRANCH   3   7
ATOM      5  N   UNL     1     -19.371  44.151 -15.417  0.00  0.00    +0.000 NA
ATOM      6  N   UNL     1     -18.684  46.426 -15.599  0.00  0.00    +0.000 N 
ATOM      7  C   UNL     1     -18.725  42.866 -13.474  0.00  0.00    +0.000 A 
ATOM      8  C   UNL     1     -18.054  43.969 -12.959  0.00  0.00    +0.000 A 
ATOM      9  C   UNL     1     -19.363  43.008 -14.695  0.00  0.00    +0.000 A 
ATOM     10  C   UNL     1     -18.039  45.163 -13.672  0.00  0.00    +0.000 A 
ATOM     11  C   UNL     1     -18.707  45.202 -14.885  0.00  0.00    +0.000 A 
ATOM     12  H   UNL     1     -19.179  46.451 -16.481  0.00  0.00    +0.000 HD
ATOM     13  H   UNL     1     -18.592  47.287 -15.076  0.00  0.00    +0.000 HD
ENDBRANCH   3   7
BRANCH   2  14
ATOM     14  C   UNL     1     -17.789  40.276 -10.860  0.00  0.00    +0.000 C 
BRANCH  14  15
ATOM     15  C   UNL     1     -18.114  40.522  -9.390  0.00  0.00    +0.000 C 
BRANCH  15  16
ATOM     16  C   UNL     1     -19.501  41.144  -9.192  0.00  0.00    +0.000 C 
BRANCH  16  17
ATOM     17  C   UNL     1     -20.054  40.830  -7.799  0.00  0.00    +0.000 C 
BRANCH  17  18
ATOM     18  C   UNL     1     -20.037  42.033  -6.855  0.00  0.00    +0.000 C 
ATOM     19  C   UNL     1     -21.205  42.058  -5.882  0.00  0.00    +0.000 C 
ENDBRANCH  17  18
ENDBRANCH  16  17
ENDBRANCH  15  16
ENDBRANCH  14  15
ENDBRANCH   2  14
TORSDOF 6
ENDMDL
