MODEL 1
REMARK VINA RESULT:    -6.063      0.000      0.000
REMARK INTER + INTRA:          -8.968
REMARK INTER:                  -8.367
REMARK INTRA:                  -0.600
REMARK UNBOUND:                -0.600
REMARK  Name = 62074662
REMARK  8 active torsions:
REMARK  status: ('A' for Active; 'I' for Inactive)
REMARK    1  A    between atoms: N_2  and  C_8
REMARK    2  A    between atoms: N_4  and  C_13
REMARK    3  A    between atoms: C_5  and  C_6
REMARK    4  A    between atoms: C_5  and  C_7
REMARK    5  A    between atoms: C_6  and  C_8
REMARK    6  A    between atoms: C_7  and  C_9
REMARK    7  A    between atoms: C_9  and  C_10
REMARK    8  A    between atoms: C_11  and  C_12
REMARK                            x       y       z     vdW  Elec       q    Type
REMARK                         _______ _______ _______ _____ _____    ______ ____
ROOT
ATOM      1  O   UNL     1     -17.186  40.007 -11.031  0.00  0.00    +0.000 OA
ATOM      2  N   UNL     1     -18.015  41.556  -9.518  0.00  0.00    +0.000 N 
ATOM      3  C   UNL     1     -17.358  41.171 -10.680  0.00  0.00    +0.000 C 
ATOM      4  H   UNL     1     -18.098  42.545  -9.297  0.00  0.00    +0.000 HD
ENDROOT
BRANCH   3   6
ATOM      5  N   UNL     1     -14.937  43.485 -12.434  0.00  0.00    +0.000 NA
ATOM      6  C   UNL     1     -16.816  42.270 -11.520  0.00  0.00    +0.000 A 
ATOM      7  C   UNL     1     -15.457  42.492 -11.678  0.00  0.00    +0.000 A 
ATOM      8  C   UNL     1     -17.696  43.120 -12.179  0.00  0.00    +0.000 A 
ATOM      9  C   UNL     1     -17.198  44.153 -12.965  0.00  0.00    +0.000 A 
ATOM     10  C   UNL     1     -15.823  44.293 -13.059  0.00  0.00    +0.000 A 
BRANCH   7  11
ATOM     11  N   UNL     1     -14.554  41.631 -11.007  0.00  0.00    +0.000 N 
ATOM     12  H   UNL     1     -13.915  42.066 -10.352  0.00  0.00    +0.000 HD
ATOM     13  H   UNL     1     -14.842  40.678 -10.819  0.00  0.00    +0.000 HD
ENDBRANCH   7  11
ENDBRANCH   3   6
BRANCH   2  14
ATOM     14  C   UNL     1     -18.573  40.610  -8.591  0.00  0.00    +0.000 C 
BRANCH  14  15
ATOM     15  C   UNL     1     -20.031  40.280  -8.896  0.00  0.00    +0.000 C 
BRANCH  15  16
ATOM     16  C   UNL     1     -21.007  41.049  -8.001  0.00  0.00    +0.000 C 
BRANCH  16  17
ATOM     17  C   UNL     1     -20.291  41.648  -6.788  0.00  0.00    +0.000 C 
BRANCH  17  18
ATOM     18  C   UNL     1     -21.244  42.294  -5.779  0.00  0.00    +0.000 C 
ATOM     19  C   UNL     1     -22.577  42.709  -6.381  0.00  0.00    +0.000 C 
ENDBRANCH  17  18
ENDBRANCH  16  17
ENDBRANCH  15  16
ENDBRANCH  14  15
ENDBRANCH   2  14
TORSDOF 7
ENDMDL
MODEL 2
REMARK VINA RESULT:    -5.825      1.594      5.831
REMARK INTER + INTRA:          -8.639
REMARK INTER:                  -7.780
REMARK INTRA:                  -0.859
REMARK UNBOUND:                -0.600
REMARK  Name = 62074662
REMARK  8 active torsions:
REMARK  status: ('A' for Active; 'I' for Inactive)
REMARK    1  A    between atoms: N_2  and  C_8
REMARK    2  A    between atoms: N_4  and  C_13
REMARK    3  A    between atoms: C_5  and  C_6
REMARK    4  A    between atoms: C_5  and  C_7
REMARK    5  A    between atoms: C_6  and  C_8
REMARK    6  A    between atoms: C_7  and  C_9
REMARK    7  A    between atoms: C_9  and  C_10
REMARK    8  A    between atoms: C_11  and  C_12
REMARK                            x       y       z     vdW  Elec       q    Type
REMARK                         _______ _______ _______ _____ _____    ______ ____
ROOT
ATOM      1  O   UNL     1     -17.242  40.093 -10.561  0.00  0.00    +0.000 OA
ATOM      2  N   UNL     1     -17.098  42.403 -10.405  0.00  0.00    +0.000 N 
ATOM      3  C   UNL     1     -17.651  41.161 -10.113  0.00  0.00    +0.000 C 
ATOM      4  H   UNL     1     -17.512  43.239 -10.001  0.00  0.00    +0.000 HD
ENDROOT
BRANCH   3   6
ATOM      5  N   UNL     1     -21.042  40.368  -8.641  0.00  0.00    +0.000 NA
ATOM      6  C   UNL     1     -18.832  41.166  -9.213  0.00  0.00    +0.000 A 
ATOM      7  C   UNL     1     -19.952  40.381  -9.441  0.00  0.00    +0.000 A 
ATOM      8  C   UNL     1     -18.832  41.990  -8.093  0.00  0.00    +0.000 A 
ATOM      9  C   UNL     1     -19.935  42.003  -7.247  0.00  0.00    +0.000 A 
ATOM     10  C   UNL     1     -21.005  41.182  -7.562  0.00  0.00    +0.000 A 
BRANCH   7  11
ATOM     11  N   UNL     1     -19.961  39.542 -10.582  0.00  0.00    +0.000 N 
ATOM     12  H   UNL     1     -19.269  39.741 -11.296  0.00  0.00    +0.000 HD
ATOM     13  H   UNL     1     -20.259  38.579 -10.474  0.00  0.00    +0.000 HD
ENDBRANCH   7  11
ENDBRANCH   3   6
BRANCH   2  14
ATOM     14  C   UNL     1     -15.968  42.564 -11.278  0.00  0.00    +0.000 C 
BRANCH  14  15
ATOM     15  C   UNL     1     -16.198  43.630 -12.344  0.00  0.00    +0.000 C 
BRANCH  15  16
ATOM     16  C   UNL     1     -17.493  44.417 -12.119  0.00  0.00    +0.000 C 
BRANCH  16  17
ATOM     17  C   UNL     1     -18.471  44.218 -13.280  0.00  0.00    +0.000 C 
BRANCH  17  18
ATOM     18  C   UNL     1     -18.525  42.775 -13.787  0.00  0.00    +0.000 C 
ATOM     19  C   UNL     1     -19.590  41.930 -13.104  0.00  0.00    +0.000 C 
ENDBRANCH  17  18
ENDBRANCH  16  17
ENDBRANCH  15  16
ENDBRANCH  14  15
ENDBRANCH   2  14
TORSDOF 7
ENDMDL
MODEL 3
REMARK VINA RESULT:    -5.582      1.827      2.481
REMARK INTER + INTRA:          -8.304
REMARK INTER:                  -7.840
REMARK INTRA:                  -0.464
REMARK UNBOUND:                -0.600
REMARK  Name = 62074662
REMARK  8 active torsions:
REMARK  status: ('A' for Active; 'I' for Inactive)
REMARK    1  A    between atoms: N_2  and  C_8
REMARK    2  A    between atoms: N_4  and  C_13
REMARK    3  A    between atoms: C_5  and  C_6
REMARK    4  A    between atoms: C_5  and  C_7
REMARK    5  A    between atoms: C_6  and  C_8
REMARK    6  A    between atoms: C_7  and  C_9
REMARK    7  A    between atoms: C_9  and  C_10
REMARK    8  A    between atoms: C_11  and  C_12
REMARK                            x       y       z     vdW  Elec       q    Type
REMARK                         _______ _______ _______ _____ _____    ______ ____
ROOT
ATOM      1  O   UNL     1     -18.999  41.296 -12.518  0.00  0.00    +0.000 OA
ATOM      2  N   UNL     1     -17.465  41.527 -10.795  0.00  0.00    +0.000 N 
ATOM      3  C   UNL     1     -18.058  41.888 -12.000  0.00  0.00    +0.000 C 
ATOM      4  H   UNL     1     -16.677  42.067 -10.447  0.00  0.00    +0.000 HD
ENDROOT
BRANCH   3   6
ATOM      5  N   UNL     1     -17.726  45.059 -14.032  0.00  0.00    +0.000 NA
ATOM      6  C   UNL     1     -17.469  43.063 -12.692  0.00  0.00    +0.000 A 
ATOM      7  C   UNL     1     -18.235  43.983 -13.390  0.00  0.00    +0.000 A 
ATOM      8  C   UNL     1     -16.093  43.260 -12.650  0.00  0.00    +0.000 A 
ATOM      9  C   UNL     1     -15.533  44.355 -13.298  0.00  0.00    +0.000 A 
ATOM     10  C   UNL     1     -16.385  45.217 -13.969  0.00  0.00    +0.000 A 
BRANCH   7  11
ATOM     11  N   UNL     1     -19.638  43.788 -13.440  0.00  0.00    +0.000 N 
ATOM     12  H   UNL     1     -19.960  42.827 -13.463  0.00  0.00    +0.000 HD
ATOM     13  H   UNL     1     -20.239  44.473 -12.998  0.00  0.00    +0.000 HD
ENDBRANCH   7  11
ENDBRANCH   3   6
BRANCH   2  14
ATOM     14  C   UNL     1     -17.906  40.401 -10.019  0.00  0.00    +0.000 C 
BRANCH  14  15
ATOM     15  C   UNL     1     -18.676  40.815  -8.769  0.00  0.00    +0.000 C 
BRANCH  15  16
ATOM     16  C   UNL     1     -20.084  40.214  -8.720  0.00  0.00    +0.000 C 
BRANCH  16  17
ATOM     17  C   UNL     1     -21.065  41.160  -8.022  0.00  0.00    +0.000 C 
BRANCH  17  18
ATOM     18  C   UNL     1     -20.402  42.054  -6.971  0.00  0.00    +0.000 C 
ATOM     19  C   UNL     1     -21.131  42.065  -5.636  0.00  0.00    +0.000 C 
ENDBRANCH  17  18
ENDBRANCH  16  17
ENDBRANCH  15  16
ENDBRANCH  14  15
ENDBRANCH   2  14
TORSDOF 7
ENDMDL
MODEL 4
REMARK VINA RESULT:    -5.553      1.944      5.901
REMARK INTER + INTRA:          -8.264
REMARK INTER:                  -7.463
REMARK INTRA:                  -0.800
REMARK UNBOUND:                -0.600
REMARK  Name = 62074662
REMARK  8 active torsions:
REMARK  status: ('A' for Active; 'I' for Inactive)
REMARK    1  A    between atoms: N_2  and  C_8
REMARK    2  A    between atoms: N_4  and  C_13
REMARK    3  A    between atoms: C_5  and  C_6
REMARK    4  A    between atoms: C_5  and  C_7
REMARK    5  A    between atoms: C_6  and  C_8
REMARK    6  A    between atoms: C_7  and  C_9
REMARK    7  A    between atoms: C_9  and  C_10
REMARK    8  A    between atoms: C_11  and  C_12
REMARK                            x       y       z     vdW  Elec       q    Type
REMARK                         _______ _______ _______ _____ _____    ______ ____
ROOT
ATOM      1  O   UNL     1     -18.347  39.539 -10.302  0.00  0.00    +0.000 OA
ATOM      2  N   UNL     1     -19.809  40.883 -11.499  0.00  0.00    +0.000 N 
ATOM      3  C   UNL     1     -19.223  40.397 -10.335  0.00  0.00    +0.000 C 
ATOM      4  H   UNL     1     -20.541  41.585 -11.432  0.00  0.00    +0.000 HD
ENDROOT
BRANCH   3   6
ATOM      5  N   UNL     1     -19.467  42.420  -7.150  0.00  0.00    +0.000 NA
ATOM      6  C   UNL     1     -19.736  40.962  -9.061  0.00  0.00    +0.000 A 
ATOM      7  C   UNL     1     -19.027  41.891  -8.314  0.00  0.00    +0.000 A 
ATOM      8  C   UNL     1     -20.974  40.549  -8.581  0.00  0.00    +0.000 A 
ATOM      9  C   UNL     1     -21.459  41.071  -7.387  0.00  0.00    +0.000 A 
ATOM     10  C   UNL     1     -20.675  41.994  -6.716  0.00  0.00    +0.000 A 
BRANCH   7  11
ATOM     11  N   UNL     1     -17.763  42.314  -8.795  0.00  0.00    +0.000 N 
ATOM     12  H   UNL     1     -17.061  41.594  -8.917  0.00  0.00    +0.000 HD
ATOM     13  H   UNL     1     -17.723  43.117  -9.412  0.00  0.00    +0.000 HD
ENDBRANCH   7  11
ENDBRANCH   3   6
BRANCH   2  14
ATOM     14  C   UNL     1     -19.438  40.418 -12.808  0.00  0.00    +0.000 C 
BRANCH  14  15
ATOM     15  C   UNL     1     -18.611  41.441 -13.580  0.00  0.00    +0.000 C 
BRANCH  15  16
ATOM     16  C   UNL     1     -19.181  42.859 -13.472  0.00  0.00    +0.000 C 
BRANCH  16  17
ATOM     17  C   UNL     1     -18.156  43.823 -12.869  0.00  0.00    +0.000 C 
BRANCH  17  18
ATOM     18  C   UNL     1     -16.941  43.115 -12.263  0.00  0.00    +0.000 C 
ATOM     19  C   UNL     1     -15.616  43.561 -12.862  0.00  0.00    +0.000 C 
ENDBRANCH  17  18
ENDBRANCH  16  17
ENDBRANCH  15  16
ENDBRANCH  14  15
ENDBRANCH   2  14
TORSDOF 7
ENDMDL
MODEL 5
REMARK VINA RESULT:    -5.288      4.759      7.078
REMARK INTER + INTRA:          -7.898
REMARK INTER:                  -7.435
REMARK INTRA:                  -0.464
REMARK UNBOUND:                -0.600
REMARK  Name = 62074662
REMARK  8 active torsions:
REMARK  status: ('A' for Active; 'I' for Inactive)
REMARK    1  A    between atoms: N_2  and  C_8
REMARK    2  A    between atoms: N_4  and  C_13
REMARK    3  A    between atoms: C_5  and  C_6
REMARK    4  A    between atoms: C_5  and  C_7
REMARK    5  A    between atoms: C_6  and  C_8
REMARK    6  A    between atoms: C_7  and  C_9
REMARK    7  A    between atoms: C_9  and  C_10
REMARK    8  A    between atoms: C_11  and  C_12
REMARK                            x       y       z     vdW  Elec       q    Type
REMARK                         _______ _______ _______ _____ _____    ______ ____
ROOT
ATOM      1  O   UNL     1     -18.910  44.021 -13.206  0.00  0.00    +0.000 OA
ATOM      2  N   UNL     1     -19.325  42.564 -14.962  0.00  0.00    +0.000 N 
ATOM      3  C   UNL     1     -18.927  42.885 -13.669  0.00  0.00    +0.000 C 
ATOM      4  H   UNL     1     -19.292  41.596 -15.267  0.00  0.00    +0.000 HD
ENDROOT
BRANCH   3   6
ATOM      5  N   UNL     1     -16.704  40.541 -11.704  0.00  0.00    +0.000 NA
ATOM      6  C   UNL     1     -18.473  41.750 -12.825  0.00  0.00    +0.000 A 
ATOM      7  C   UNL     1     -17.146  41.565 -12.469  0.00  0.00    +0.000 A 
ATOM      8  C   UNL     1     -19.405  40.825 -12.367  0.00  0.00    +0.000 A 
ATOM      9  C   UNL     1     -18.988  39.759 -11.579  0.00  0.00    +0.000 A 
ATOM     10  C   UNL     1     -17.639  39.662 -11.279  0.00  0.00    +0.000 A 
BRANCH   7  11
ATOM     11  N   UNL     1     -16.190  42.502 -12.933  0.00  0.00    +0.000 N 
ATOM     12  H   UNL     1     -15.575  42.904 -12.236  0.00  0.00    +0.000 HD
ATOM     13  H   UNL     1     -15.829  42.401 -13.874  0.00  0.00    +0.000 HD
ENDBRANCH   7  11
ENDBRANCH   3   6
BRANCH   2  14
ATOM     14  C   UNL     1     -19.768  43.554 -15.906  0.00  0.00    +0.000 C 
BRANCH  14  15
ATOM     15  C   UNL     1     -20.875  43.038 -16.820  0.00  0.00    +0.000 C 
BRANCH  15  16
ATOM     16  C   UNL     1     -22.212  43.745 -16.579  0.00  0.00    +0.000 C 
BRANCH  16  17
ATOM     17  C   UNL     1     -22.540  44.713 -17.719  0.00  0.00    +0.000 C 
BRANCH  17  18
ATOM     18  C   UNL     1     -23.453  45.865 -17.293  0.00  0.00    +0.000 C 
ATOM     19  C   UNL     1     -24.917  45.640 -17.640  0.00  0.00    +0.000 C 
ENDBRANCH  17  18
ENDBRANCH  16  17
ENDBRANCH  15  16
ENDBRANCH  14  15
ENDBRANCH   2  14
TORSDOF 7
ENDMDL
