MODEL 1
REMARK VINA RESULT:    -5.893      0.000      0.000
REMARK INTER + INTRA:          -7.896
REMARK INTER:                  -7.271
REMARK INTRA:                  -0.625
REMARK UNBOUND:                -0.625
REMARK  Name = 62140327
REMARK  4 active torsions:
REMARK  status: ('A' for Active; 'I' for Inactive)
REMARK    1  A    between atoms: N_2  and  C_6
REMARK    2  A    between atoms: N_2  and  C_9
REMARK    3  A    between atoms: C_5  and  C_10
REMARK    4  A    between atoms: C_9  and  C_12
REMARK                            x       y       z     vdW  Elec       q    Type
REMARK                         _______ _______ _______ _____ _____    ______ ____
ROOT
ATOM      1  N   UNL     1     -18.491  42.231  -8.283  0.00  0.00    +0.000 NA
ATOM      2  C   UNL     1     -19.385  40.632  -9.862  0.00  0.00    +0.000 A 
ATOM      3  C   UNL     1     -18.432  41.549  -9.449  0.00  0.00    +0.000 A 
ATOM      4  C   UNL     1     -20.470  40.401  -9.023  0.00  0.00    +0.000 A 
ATOM      5  C   UNL     1     -20.567  41.085  -7.816  0.00  0.00    +0.000 A 
ATOM      6  C   UNL     1     -19.560  41.980  -7.495  0.00  0.00    +0.000 A 
ENDROOT
BRANCH   2   9
ATOM      7  O   UNL     1     -18.557  38.915 -11.244  0.00  0.00    +0.000 OA
ATOM      8  N   UNL     1     -20.070  40.360 -12.184  0.00  0.00    +0.000 N 
ATOM      9  C   UNL     1     -19.292  39.910 -11.122  0.00  0.00    +0.000 C 
ATOM     10  H   UNL     1     -20.681  41.167 -12.100  0.00  0.00    +0.000 HD
ATOM     11  H   UNL     1     -20.048  39.891 -13.082  0.00  0.00    +0.000 HD
ENDBRANCH   2   9
BRANCH   3  12
ATOM     12  N   UNL     1     -17.321  41.788 -10.297  0.00  0.00    +0.000 N 
ATOM     13  H   UNL     1     -16.937  40.972 -10.765  0.00  0.00    +0.000 HD
BRANCH  12  14
ATOM     14  C   UNL     1     -17.049  43.066 -10.868  0.00  0.00    +0.000 C 
BRANCH  14  15
ATOM     15  C   UNL     1     -17.836  43.266 -12.089  0.00  0.00    +0.000 C 
ATOM     16  C   UNL     1     -18.483  43.431 -13.086  0.00  0.00    +0.000 C 
ENDBRANCH  14  15
ENDBRANCH  12  14
ENDBRANCH   3  12
TORSDOF 4
ENDMDL
MODEL 2
REMARK VINA RESULT:    -5.372      1.103      3.811
REMARK INTER + INTRA:          -7.252
REMARK INTER:                  -6.632
REMARK INTRA:                  -0.620
REMARK UNBOUND:                -0.625
REMARK  Name = 62140327
REMARK  4 active torsions:
REMARK  status: ('A' for Active; 'I' for Inactive)
REMARK    1  A    between atoms: N_2  and  C_6
REMARK    2  A    between atoms: N_2  and  C_9
REMARK    3  A    between atoms: C_5  and  C_10
REMARK    4  A    between atoms: C_9  and  C_12
REMARK                            x       y       z     vdW  Elec       q    Type
REMARK                         _______ _______ _______ _____ _____    ______ ____
ROOT
ATOM      1  N   UNL     1     -17.160  43.351 -10.810  0.00  0.00    +0.000 NA
ATOM      2  C   UNL     1     -18.153  41.446 -11.919  0.00  0.00    +0.000 A 
ATOM      3  C   UNL     1     -17.695  42.110 -10.793  0.00  0.00    +0.000 A 
ATOM      4  C   UNL     1     -18.056  42.099 -13.143  0.00  0.00    +0.000 A 
ATOM      5  C   UNL     1     -17.510  43.377 -13.202  0.00  0.00    +0.000 A 
ATOM      6  C   UNL     1     -17.082  43.954 -12.018  0.00  0.00    +0.000 A 
ENDROOT
BRANCH   2   9
ATOM      7  O   UNL     1     -18.155  39.180 -11.274  0.00  0.00    +0.000 OA
ATOM      8  N   UNL     1     -19.957  39.911 -12.491  0.00  0.00    +0.000 N 
ATOM      9  C   UNL     1     -18.729  40.109 -11.868  0.00  0.00    +0.000 C 
ATOM     10  H   UNL     1     -20.443  40.659 -12.976  0.00  0.00    +0.000 HD
ATOM     11  H   UNL     1     -20.406  39.002 -12.482  0.00  0.00    +0.000 HD
ENDBRANCH   2   9
BRANCH   3  12
ATOM     12  N   UNL     1     -17.794  41.452  -9.541  0.00  0.00    +0.000 N 
ATOM     13  H   UNL     1     -16.949  40.994  -9.213  0.00  0.00    +0.000 HD
BRANCH  12  14
ATOM     14  C   UNL     1     -18.782  41.790  -8.570  0.00  0.00    +0.000 C 
BRANCH  14  15
ATOM     15  C   UNL     1     -19.907  40.852  -8.627  0.00  0.00    +0.000 C 
ATOM     16  C   UNL     1     -20.826  40.081  -8.674  0.00  0.00    +0.000 C 
ENDBRANCH  14  15
ENDBRANCH  12  14
ENDBRANCH   3  12
TORSDOF 4
ENDMDL
MODEL 3
REMARK VINA RESULT:    -5.357      2.059      4.478
REMARK INTER + INTRA:          -7.235
REMARK INTER:                  -6.816
REMARK INTRA:                  -0.418
REMARK UNBOUND:                -0.625
REMARK  Name = 62140327
REMARK  4 active torsions:
REMARK  status: ('A' for Active; 'I' for Inactive)
REMARK    1  A    between atoms: N_2  and  C_6
REMARK    2  A    between atoms: N_2  and  C_9
REMARK    3  A    between atoms: C_5  and  C_10
REMARK    4  A    between atoms: C_9  and  C_12
REMARK                            x       y       z     vdW  Elec       q    Type
REMARK                         _______ _______ _______ _____ _____    ______ ____
ROOT
ATOM      1  N   UNL     1     -19.043  39.670 -10.547  0.00  0.00    +0.000 NA
ATOM      2  C   UNL     1     -17.652  41.479 -11.346  0.00  0.00    +0.000 A 
ATOM      3  C   UNL     1     -18.325  40.798 -10.345  0.00  0.00    +0.000 A 
ATOM      4  C   UNL     1     -17.719  40.970 -12.638  0.00  0.00    +0.000 A 
ATOM      5  C   UNL     1     -18.448  39.811 -12.886  0.00  0.00    +0.000 A 
ATOM      6  C   UNL     1     -19.085  39.205 -11.816  0.00  0.00    +0.000 A 
ENDROOT
BRANCH   2   9
ATOM      7  O   UNL     1     -17.441  43.787 -10.926  0.00  0.00    +0.000 OA
ATOM      8  N   UNL     1     -15.498  42.575 -11.036  0.00  0.00    +0.000 N 
ATOM      9  C   UNL     1     -16.883  42.691 -11.097  0.00  0.00    +0.000 C 
ATOM     10  H   UNL     1     -15.024  41.686 -11.167  0.00  0.00    +0.000 HD
ATOM     11  H   UNL     1     -14.914  43.385 -10.860  0.00  0.00    +0.000 HD
ENDBRANCH   2   9
BRANCH   3  12
ATOM     12  N   UNL     1     -18.259  41.310  -9.025  0.00  0.00    +0.000 N 
ATOM     13  H   UNL     1     -18.078  42.306  -8.944  0.00  0.00    +0.000 HD
BRANCH  12  14
ATOM     14  C   UNL     1     -18.872  40.657  -7.915  0.00  0.00    +0.000 C 
BRANCH  14  15
ATOM     15  C   UNL     1     -19.917  41.503  -7.330  0.00  0.00    +0.000 C 
ATOM     16  C   UNL     1     -20.774  42.196  -6.855  0.00  0.00    +0.000 C 
ENDBRANCH  14  15
ENDBRANCH  12  14
ENDBRANCH   3  12
TORSDOF 4
ENDMDL
MODEL 4
REMARK VINA RESULT:    -5.251      2.095      3.372
REMARK INTER + INTRA:          -7.103
REMARK INTER:                  -6.465
REMARK INTRA:                  -0.638
REMARK UNBOUND:                -0.625
REMARK  Name = 62140327
REMARK  4 active torsions:
REMARK  status: ('A' for Active; 'I' for Inactive)
REMARK    1  A    between atoms: N_2  and  C_6
REMARK    2  A    between atoms: N_2  and  C_9
REMARK    3  A    between atoms: C_5  and  C_10
REMARK    4  A    between atoms: C_9  and  C_12
REMARK                            x       y       z     vdW  Elec       q    Type
REMARK                         _______ _______ _______ _____ _____    ______ ____
ROOT
ATOM      1  N   UNL     1     -17.145  40.576 -12.500  0.00  0.00    +0.000 NA
ATOM      2  C   UNL     1     -18.327  40.747 -10.398  0.00  0.00    +0.000 A 
ATOM      3  C   UNL     1     -17.270  41.052 -11.241  0.00  0.00    +0.000 A 
ATOM      4  C   UNL     1     -19.319  39.899 -10.879  0.00  0.00    +0.000 A 
ATOM      5  C   UNL     1     -19.224  39.389 -12.169  0.00  0.00    +0.000 A 
ATOM      6  C   UNL     1     -18.128  39.755 -12.933  0.00  0.00    +0.000 A 
ENDROOT
BRANCH   2   9
ATOM      7  O   UNL     1     -18.222  42.477  -8.803  0.00  0.00    +0.000 OA
ATOM      8  N   UNL     1     -18.808  40.397  -8.035  0.00  0.00    +0.000 N 
ATOM      9  C   UNL     1     -18.436  41.278  -9.046  0.00  0.00    +0.000 C 
ATOM     10  H   UNL     1     -18.993  39.415  -8.216  0.00  0.00    +0.000 HD
ATOM     11  H   UNL     1     -18.905  40.714  -7.077  0.00  0.00    +0.000 HD
ENDBRANCH   2   9
BRANCH   3  12
ATOM     12  N   UNL     1     -16.257  41.917 -10.759  0.00  0.00    +0.000 N 
ATOM     13  H   UNL     1     -15.625  41.520 -10.070  0.00  0.00    +0.000 HD
BRANCH  12  14
ATOM     14  C   UNL     1     -15.806  43.057 -11.489  0.00  0.00    +0.000 C 
BRANCH  14  15
ATOM     15  C   UNL     1     -16.877  44.050 -11.610  0.00  0.00    +0.000 C 
ATOM     16  C   UNL     1     -17.752  44.867 -11.710  0.00  0.00    +0.000 C 
ENDBRANCH  14  15
ENDBRANCH  12  14
ENDBRANCH   3  12
TORSDOF 4
ENDMDL
MODEL 5
REMARK VINA RESULT:    -5.068      1.948      4.571
REMARK INTER + INTRA:          -6.878
REMARK INTER:                  -6.262
REMARK INTRA:                  -0.616
REMARK UNBOUND:                -0.625
REMARK  Name = 62140327
REMARK  4 active torsions:
REMARK  status: ('A' for Active; 'I' for Inactive)
REMARK    1  A    between atoms: N_2  and  C_6
REMARK    2  A    between atoms: N_2  and  C_9
REMARK    3  A    between atoms: C_5  and  C_10
REMARK    4  A    between atoms: C_9  and  C_12
REMARK                            x       y       z     vdW  Elec       q    Type
REMARK                         _______ _______ _______ _____ _____    ______ ____
ROOT
ATOM      1  N   UNL     1     -19.662  41.491 -12.815  0.00  0.00    +0.000 NA
ATOM      2  C   UNL     1     -17.299  41.291 -12.342  0.00  0.00    +0.000 A 
ATOM      3  C   UNL     1     -18.612  40.860 -12.243  0.00  0.00    +0.000 A 
ATOM      4  C   UNL     1     -17.047  42.445 -13.076  0.00  0.00    +0.000 A 
ATOM      5  C   UNL     1     -18.101  43.123 -13.679  0.00  0.00    +0.000 A 
ATOM      6  C   UNL     1     -19.378  42.609 -13.520  0.00  0.00    +0.000 A 
ENDROOT
BRANCH   2   9
ATOM      7  O   UNL     1     -16.094  39.349 -11.771  0.00  0.00    +0.000 OA
ATOM      8  N   UNL     1     -15.222  41.351 -11.069  0.00  0.00    +0.000 N 
ATOM      9  C   UNL     1     -16.188  40.587 -11.716  0.00  0.00    +0.000 C 
ATOM     10  H   UNL     1     -15.280  42.363 -11.020  0.00  0.00    +0.000 HD
ATOM     11  H   UNL     1     -14.424  40.913 -10.622  0.00  0.00    +0.000 HD
ENDBRANCH   2   9
BRANCH   3  12
ATOM     12  N   UNL     1     -18.877  39.683 -11.499  0.00  0.00    +0.000 N 
ATOM     13  H   UNL     1     -18.174  38.952 -11.561  0.00  0.00    +0.000 HD
BRANCH  12  14
ATOM     14  C   UNL     1     -19.752  39.664 -10.373  0.00  0.00    +0.000 C 
BRANCH  14  15
ATOM     15  C   UNL     1     -19.174  40.418  -9.256  0.00  0.00    +0.000 C 
ATOM     16  C   UNL     1     -18.704  41.040  -8.343  0.00  0.00    +0.000 C 
ENDBRANCH  14  15
ENDBRANCH  12  14
ENDBRANCH   3  12
TORSDOF 4
ENDMDL
