MODEL 1
REMARK VINA RESULT:    -6.766      0.000      0.000
REMARK INTER + INTRA:          -9.021
REMARK INTER:                  -8.545
REMARK INTRA:                  -0.475
REMARK UNBOUND:                -0.475
REMARK  Name = 62159706
REMARK  5 active torsions:
REMARK  status: ('A' for Active; 'I' for Inactive)
REMARK    1  A    between atoms: N_2  and  C_11
REMARK    2  A    between atoms: N_3  and  C_12
REMARK    3  A    between atoms: N_5  and  C_15
REMARK    4  A    between atoms: C_11  and  C_12
REMARK    5  A    between atoms: C_13  and  C_14
REMARK                            x       y       z     vdW  Elec       q    Type
REMARK                         _______ _______ _______ _____ _____    ______ ____
ROOT
ATOM      1  O   UNL     1     -18.500  40.470 -12.532  0.00  0.00    +0.000 OA
ATOM      2  N   UNL     1     -18.717  41.444 -10.438  0.00  0.00    +0.000 N 
ATOM      3  C   UNL     1     -18.539  41.468 -11.817  0.00  0.00    +0.000 C 
ATOM      4  H   UNL     1     -18.717  42.318  -9.920  0.00  0.00    +0.000 HD
ENDROOT
BRANCH   3   6
ATOM      5  N   UNL     1     -18.845  44.397 -14.188  0.00  0.00    +0.000 NA
ATOM      6  C   UNL     1     -18.363  42.809 -12.429  0.00  0.00    +0.000 A 
ATOM      7  C   UNL     1     -18.989  43.185 -13.607  0.00  0.00    +0.000 A 
ATOM      8  C   UNL     1     -17.535  43.739 -11.808  0.00  0.00    +0.000 A 
ATOM      9  C   UNL     1     -17.362  44.996 -12.375  0.00  0.00    +0.000 A 
ATOM     10  C   UNL     1     -18.033  45.273 -13.555  0.00  0.00    +0.000 A 
BRANCH   7  11
ATOM     11  N   UNL     1     -19.832  42.242 -14.248  0.00  0.00    +0.000 N 
ATOM     12  H   UNL     1     -20.797  42.516 -14.380  0.00  0.00    +0.000 HD
ATOM     13  H   UNL     1     -19.425  41.612 -14.928  0.00  0.00    +0.000 HD
ENDBRANCH   7  11
ENDBRANCH   3   6
BRANCH   2  14
ATOM     14  C   UNL     1     -18.876  40.222  -9.697  0.00  0.00    +0.000 C 
BRANCH  14  15
ATOM     15  C   UNL     1     -20.320  40.030  -9.259  0.00  0.00    +0.000 C 
BRANCH  15  16
ATOM     16  N   UNL     1     -20.724  41.104  -8.352  0.00  0.00    +0.000 NA
ATOM     17  C   UNL     1     -19.742  41.261  -7.270  0.00  0.00    +0.000 C 
ATOM     18  C   UNL     1     -22.069  40.847  -7.817  0.00  0.00    +0.000 C 
ATOM     19  C   UNL     1     -20.125  42.414  -6.341  0.00  0.00    +0.000 C 
ATOM     20  C   UNL     1     -22.527  41.987  -6.905  0.00  0.00    +0.000 C 
ATOM     21  C   UNL     1     -21.530  42.231  -5.779  0.00  0.00    +0.000 C 
ENDBRANCH  15  16
ENDBRANCH  14  15
ENDBRANCH   2  14
TORSDOF 5
ENDMDL
MODEL 2
REMARK VINA RESULT:    -6.603      1.521      6.072
REMARK INTER + INTRA:          -8.815
REMARK INTER:                  -8.348
REMARK INTRA:                  -0.467
REMARK UNBOUND:                -0.475
REMARK  Name = 62159706
REMARK  5 active torsions:
REMARK  status: ('A' for Active; 'I' for Inactive)
REMARK    1  A    between atoms: N_2  and  C_11
REMARK    2  A    between atoms: N_3  and  C_12
REMARK    3  A    between atoms: N_5  and  C_15
REMARK    4  A    between atoms: C_11  and  C_12
REMARK    5  A    between atoms: C_13  and  C_14
REMARK                            x       y       z     vdW  Elec       q    Type
REMARK                         _______ _______ _______ _____ _____    ______ ____
ROOT
ATOM      1  O   UNL     1     -18.807  39.332 -10.817  0.00  0.00    +0.000 OA
ATOM      2  N   UNL     1     -19.454  41.367 -11.723  0.00  0.00    +0.000 N 
ATOM      3  C   UNL     1     -19.253  40.468 -10.681  0.00  0.00    +0.000 C 
ATOM      4  H   UNL     1     -19.847  42.282 -11.522  0.00  0.00    +0.000 HD
ENDROOT
BRANCH   3   6
ATOM      5  N   UNL     1     -19.186  42.261  -7.353  0.00  0.00    +0.000 NA
ATOM      6  C   UNL     1     -19.639  40.940  -9.327  0.00  0.00    +0.000 A 
ATOM      7  C   UNL     1     -18.861  41.816  -8.587  0.00  0.00    +0.000 A 
ATOM      8  C   UNL     1     -20.829  40.492  -8.762  0.00  0.00    +0.000 A 
ATOM      9  C   UNL     1     -21.197  40.926  -7.493  0.00  0.00    +0.000 A 
ATOM     10  C   UNL     1     -20.349  41.802  -6.837  0.00  0.00    +0.000 A 
BRANCH   7  11
ATOM     11  N   UNL     1     -17.646  42.276  -9.155  0.00  0.00    +0.000 N 
ATOM     12  H   UNL     1     -16.980  42.696  -8.518  0.00  0.00    +0.000 HD
ATOM     13  H   UNL     1     -17.281  41.799  -9.970  0.00  0.00    +0.000 HD
ENDBRANCH   7  11
ENDBRANCH   3   6
BRANCH   2  14
ATOM     14  C   UNL     1     -19.153  41.048 -13.091  0.00  0.00    +0.000 C 
BRANCH  14  15
ATOM     15  C   UNL     1     -18.573  42.251 -13.821  0.00  0.00    +0.000 C 
BRANCH  15  16
ATOM     16  N   UNL     1     -17.956  43.174 -12.869  0.00  0.00    +0.000 NA
ATOM     17  C   UNL     1     -18.437  44.545 -13.095  0.00  0.00    +0.000 C 
ATOM     18  C   UNL     1     -16.490  43.103 -12.960  0.00  0.00    +0.000 C 
ATOM     19  C   UNL     1     -17.839  45.515 -12.075  0.00  0.00    +0.000 C 
ATOM     20  C   UNL     1     -15.829  44.027 -11.936  0.00  0.00    +0.000 C 
ATOM     21  C   UNL     1     -16.315  45.464 -12.089  0.00  0.00    +0.000 C 
ENDBRANCH  15  16
ENDBRANCH  14  15
ENDBRANCH   2  14
TORSDOF 5
ENDMDL
MODEL 3
REMARK VINA RESULT:    -6.309      2.953      7.132
REMARK INTER + INTRA:          -8.444
REMARK INTER:                  -7.924
REMARK INTRA:                  -0.519
REMARK UNBOUND:                -0.475
REMARK  Name = 62159706
REMARK  5 active torsions:
REMARK  status: ('A' for Active; 'I' for Inactive)
REMARK    1  A    between atoms: N_2  and  C_11
REMARK    2  A    between atoms: N_3  and  C_12
REMARK    3  A    between atoms: N_5  and  C_15
REMARK    4  A    between atoms: C_11  and  C_12
REMARK    5  A    between atoms: C_13  and  C_14
REMARK                            x       y       z     vdW  Elec       q    Type
REMARK                         _______ _______ _______ _____ _____    ______ ____
ROOT
ATOM      1  O   UNL     1     -17.292  41.455 -13.393  0.00  0.00    +0.000 OA
ATOM      2  N   UNL     1     -18.959  43.048 -13.143  0.00  0.00    +0.000 N 
ATOM      3  C   UNL     1     -18.192  41.964 -12.731  0.00  0.00    +0.000 C 
ATOM      4  H   UNL     1     -19.699  43.393 -12.538  0.00  0.00    +0.000 HD
ENDROOT
BRANCH   3   6
ATOM      5  N   UNL     1     -19.567  39.669 -10.059  0.00  0.00    +0.000 NA
ATOM      6  C   UNL     1     -18.531  41.391 -11.403  0.00  0.00    +0.000 A 
ATOM      7  C   UNL     1     -19.243  40.212 -11.254  0.00  0.00    +0.000 A 
ATOM      8  C   UNL     1     -18.125  42.056 -10.251  0.00  0.00    +0.000 A 
ATOM      9  C   UNL     1     -18.440  41.529  -9.003  0.00  0.00    +0.000 A 
ATOM     10  C   UNL     1     -19.156  40.344  -8.962  0.00  0.00    +0.000 A 
BRANCH   7  11
ATOM     11  N   UNL     1     -19.663  39.529 -12.424  0.00  0.00    +0.000 N 
ATOM     12  H   UNL     1     -19.913  40.106 -13.218  0.00  0.00    +0.000 HD
ATOM     13  H   UNL     1     -19.281  38.611 -12.612  0.00  0.00    +0.000 HD
ENDBRANCH   7  11
ENDBRANCH   3   6
BRANCH   2  14
ATOM     14  C   UNL     1     -18.768  43.696 -14.412  0.00  0.00    +0.000 C 
BRANCH  14  15
ATOM     15  C   UNL     1     -19.689  43.109 -15.472  0.00  0.00    +0.000 C 
BRANCH  15  16
ATOM     16  N   UNL     1     -20.658  44.111 -15.914  0.00  0.00    +0.000 NA
ATOM     17  C   UNL     1     -21.843  43.461 -16.494  0.00  0.00    +0.000 C 
ATOM     18  C   UNL     1     -20.039  45.039 -16.871  0.00  0.00    +0.000 C 
ATOM     19  C   UNL     1     -22.888  44.495 -16.916  0.00  0.00    +0.000 C 
ATOM     20  C   UNL     1     -21.026  46.124 -17.306  0.00  0.00    +0.000 C 
ATOM     21  C   UNL     1     -22.300  45.516 -17.883  0.00  0.00    +0.000 C 
ENDBRANCH  15  16
ENDBRANCH  14  15
ENDBRANCH   2  14
TORSDOF 5
ENDMDL
MODEL 4
REMARK VINA RESULT:    -6.109      3.762      7.637
REMARK INTER + INTRA:          -8.192
REMARK INTER:                  -7.650
REMARK INTRA:                  -0.542
REMARK UNBOUND:                -0.475
REMARK  Name = 62159706
REMARK  5 active torsions:
REMARK  status: ('A' for Active; 'I' for Inactive)
REMARK    1  A    between atoms: N_2  and  C_11
REMARK    2  A    between atoms: N_3  and  C_12
REMARK    3  A    between atoms: N_5  and  C_15
REMARK    4  A    between atoms: C_11  and  C_12
REMARK    5  A    between atoms: C_13  and  C_14
REMARK                            x       y       z     vdW  Elec       q    Type
REMARK                         _______ _______ _______ _____ _____    ______ ____
ROOT
ATOM      1  O   UNL     1     -18.852  44.083 -13.254  0.00  0.00    +0.000 OA
ATOM      2  N   UNL     1     -19.335  42.621 -14.988  0.00  0.00    +0.000 N 
ATOM      3  C   UNL     1     -18.919  42.941 -13.701  0.00  0.00    +0.000 C 
ATOM      4  H   UNL     1     -19.341  41.648 -15.282  0.00  0.00    +0.000 HD
ENDROOT
BRANCH   3   6
ATOM      5  N   UNL     1     -16.795  40.537 -11.699  0.00  0.00    +0.000 NA
ATOM      6  C   UNL     1     -18.511  41.800 -12.843  0.00  0.00    +0.000 A 
ATOM      7  C   UNL     1     -17.195  41.568 -12.477  0.00  0.00    +0.000 A 
ATOM      8  C   UNL     1     -19.480  40.915 -12.380  0.00  0.00    +0.000 A 
ATOM      9  C   UNL     1     -19.107  39.842 -11.578  0.00  0.00    +0.000 A 
ATOM     10  C   UNL     1     -17.765  39.699 -11.269  0.00  0.00    +0.000 A 
BRANCH   7  11
ATOM     11  N   UNL     1     -16.201  42.464 -12.947  0.00  0.00    +0.000 N 
ATOM     12  H   UNL     1     -16.326  42.825 -13.885  0.00  0.00    +0.000 HD
ATOM     13  H   UNL     1     -15.724  43.053 -12.276  0.00  0.00    +0.000 HD
ENDBRANCH   7  11
ENDBRANCH   3   6
BRANCH   2  14
ATOM     14  C   UNL     1     -19.737  43.615 -15.944  0.00  0.00    +0.000 C 
BRANCH  14  15
ATOM     15  C   UNL     1     -20.476  42.986 -17.116  0.00  0.00    +0.000 C 
BRANCH  15  16
ATOM     16  N   UNL     1     -21.478  43.912 -17.643  0.00  0.00    +0.000 NA
ATOM     17  C   UNL     1     -20.865  45.212 -17.953  0.00  0.00    +0.000 C 
ATOM     18  C   UNL     1     -22.590  44.062 -16.693  0.00  0.00    +0.000 C 
ATOM     19  C   UNL     1     -21.889  46.177 -18.552  0.00  0.00    +0.000 C 
ATOM     20  C   UNL     1     -23.671  44.990 -17.252  0.00  0.00    +0.000 C 
ATOM     21  C   UNL     1     -23.093  46.348 -17.633  0.00  0.00    +0.000 C 
ENDBRANCH  15  16
ENDBRANCH  14  15
ENDBRANCH   2  14
TORSDOF 5
ENDMDL
MODEL 5
REMARK VINA RESULT:    -6.108      2.295      6.078
REMARK INTER + INTRA:          -8.190
REMARK INTER:                  -7.548
REMARK INTRA:                  -0.642
REMARK UNBOUND:                -0.475
REMARK  Name = 62159706
REMARK  5 active torsions:
REMARK  status: ('A' for Active; 'I' for Inactive)
REMARK    1  A    between atoms: N_2  and  C_11
REMARK    2  A    between atoms: N_3  and  C_12
REMARK    3  A    between atoms: N_5  and  C_15
REMARK    4  A    between atoms: C_11  and  C_12
REMARK    5  A    between atoms: C_13  and  C_14
REMARK                            x       y       z     vdW  Elec       q    Type
REMARK                         _______ _______ _______ _____ _____    ______ ____
ROOT
ATOM      1  O   UNL     1     -17.392  41.379 -13.514  0.00  0.00    +0.000 OA
ATOM      2  N   UNL     1     -19.228  42.787 -13.358  0.00  0.00    +0.000 N 
ATOM      3  C   UNL     1     -18.338  41.834 -12.877  0.00  0.00    +0.000 C 
ATOM      4  H   UNL     1     -19.997  43.094 -12.767  0.00  0.00    +0.000 HD
ENDROOT
BRANCH   3   6
ATOM      5  N   UNL     1     -19.498  39.666 -10.004  0.00  0.00    +0.000 NA
ATOM      6  C   UNL     1     -18.594  41.336 -11.501  0.00  0.00    +0.000 A 
ATOM      7  C   UNL     1     -19.250  40.143 -11.244  0.00  0.00    +0.000 A 
ATOM      8  C   UNL     1     -18.165  42.089 -10.413  0.00  0.00    +0.000 A 
ATOM      9  C   UNL     1     -18.402  41.632  -9.121  0.00  0.00    +0.000 A 
ATOM     10  C   UNL     1     -19.067  40.426  -8.972  0.00  0.00    +0.000 A 
BRANCH   7  11
ATOM     11  N   UNL     1     -19.693  39.371 -12.348  0.00  0.00    +0.000 N 
ATOM     12  H   UNL     1     -19.131  39.421 -13.189  0.00  0.00    +0.000 HD
ATOM     13  H   UNL     1     -20.192  38.509 -12.167  0.00  0.00    +0.000 HD
ENDBRANCH   7  11
ENDBRANCH   3   6
BRANCH   2  14
ATOM     14  C   UNL     1     -19.128  43.347 -14.677  0.00  0.00    +0.000 C 
BRANCH  14  15
ATOM     15  C   UNL     1     -18.656  44.793 -14.627  0.00  0.00    +0.000 C 
BRANCH  15  16
ATOM     16  N   UNL     1     -17.835  45.019 -13.439  0.00  0.00    +0.000 NA
ATOM     17  C   UNL     1     -18.317  46.191 -12.694  0.00  0.00    +0.000 C 
ATOM     18  C   UNL     1     -16.421  45.170 -13.812  0.00  0.00    +0.000 C 
ATOM     19  C   UNL     1     -17.499  46.412 -11.421  0.00  0.00    +0.000 C 
ATOM     20  C   UNL     1     -15.541  45.358 -12.575  0.00  0.00    +0.000 C 
ATOM     21  C   UNL     1     -16.012  46.539 -11.733  0.00  0.00    +0.000 C 
ENDBRANCH  15  16
ENDBRANCH  14  15
ENDBRANCH   2  14
TORSDOF 5
ENDMDL
