MODEL 1
REMARK VINA RESULT:    -6.868      0.000      0.000
REMARK INTER + INTRA:          -7.240
REMARK INTER:                  -7.671
REMARK INTRA:                   0.432
REMARK UNBOUND:                 0.432
REMARK  Name = 62153986
REMARK  5 active torsions:
REMARK  status: ('A' for Active; 'I' for Inactive)
REMARK    1  A    between atoms: N_2  and  C_5
REMARK    2  A    between atoms: C_5  and  C_6
REMARK    3  A    between atoms: C_5  and  C_7
REMARK    4  A    between atoms: C_5  and  C_8
REMARK    5  A    between atoms: C_9  and  C_10
REMARK                            x       y       z     vdW  Elec       q    Type
REMARK                         _______ _______ _______ _____ _____    ______ ____
ROOT
ATOM      1  N   UNL     1     -19.338  42.327  -7.160  0.00  0.00    +0.000 NA
ATOM      2  N   UNL     1     -21.138  42.520  -5.612  0.00  0.00    +0.000 N 
ATOM      3  C   UNL     1     -19.569  40.873  -9.077  0.00  0.00    +0.000 A 
ATOM      4  C   UNL     1     -20.852  40.525  -8.668  0.00  0.00    +0.000 A 
ATOM      5  C   UNL     1     -18.859  41.770  -8.295  0.00  0.00    +0.000 A 
ATOM      6  C   UNL     1     -21.378  41.078  -7.506  0.00  0.00    +0.000 A 
ATOM      7  C   UNL     1     -20.588  41.966  -6.793  0.00  0.00    +0.000 A 
ATOM      8  H   UNL     1     -22.144  42.619  -5.549  0.00  0.00    +0.000 HD
ATOM      9  H   UNL     1     -20.560  43.174  -5.098  0.00  0.00    +0.000 HD
ENDROOT
BRANCH   3  12
ATOM     10  O   UNL     1     -19.317  39.178 -10.678  0.00  0.00    +0.000 OA
ATOM     11  N   UNL     1     -18.087  41.119 -10.984  0.00  0.00    +0.000 N 
ATOM     12  C   UNL     1     -18.978  40.301 -10.314  0.00  0.00    +0.000 C 
ATOM     13  H   UNL     1     -17.906  42.060 -10.652  0.00  0.00    +0.000 HD
BRANCH  11  14
ATOM     14  C   UNL     1     -17.446  40.713 -12.222  0.00  0.00    +0.000 C 
ATOM     15  C   UNL     1     -16.326  39.715 -11.909  0.00  0.00    +0.000 C 
ATOM     16  C   UNL     1     -16.862  41.949 -12.913  0.00  0.00    +0.000 C 
ATOM     17  C   UNL     1     -18.484  40.051 -13.135  0.00  0.00    +0.000 C 
ENDBRANCH  11  14
ENDBRANCH   3  12
TORSDOF 2
ENDMDL
MODEL 2
REMARK VINA RESULT:    -6.185      1.031      1.677
REMARK INTER + INTRA:          -6.477
REMARK INTER:                  -6.872
REMARK INTRA:                   0.395
REMARK UNBOUND:                 0.432
REMARK  Name = 62153986
REMARK  5 active torsions:
REMARK  status: ('A' for Active; 'I' for Inactive)
REMARK    1  A    between atoms: N_2  and  C_5
REMARK    2  A    between atoms: C_5  and  C_6
REMARK    3  A    between atoms: C_5  and  C_7
REMARK    4  A    between atoms: C_5  and  C_8
REMARK    5  A    between atoms: C_9  and  C_10
REMARK                            x       y       z     vdW  Elec       q    Type
REMARK                         _______ _______ _______ _____ _____    ______ ____
ROOT
ATOM      1  N   UNL     1     -19.397  42.332  -7.161  0.00  0.00    +0.000 NA
ATOM      2  N   UNL     1     -21.336  41.959  -5.828  0.00  0.00    +0.000 N 
ATOM      3  C   UNL     1     -19.175  41.194  -9.282  0.00  0.00    +0.000 A 
ATOM      4  C   UNL     1     -20.402  40.572  -9.085  0.00  0.00    +0.000 A 
ATOM      5  C   UNL     1     -18.720  42.059  -8.298  0.00  0.00    +0.000 A 
ATOM      6  C   UNL     1     -21.127  40.828  -7.927  0.00  0.00    +0.000 A 
ATOM      7  C   UNL     1     -20.586  41.708  -7.003  0.00  0.00    +0.000 A 
ATOM      8  H   UNL     1     -22.344  41.873  -5.873  0.00  0.00    +0.000 HD
ATOM      9  H   UNL     1     -20.940  42.608  -5.159  0.00  0.00    +0.000 HD
ENDROOT
BRANCH   3  12
ATOM     10  O   UNL     1     -17.485  40.098 -10.483  0.00  0.00    +0.000 OA
ATOM     11  N   UNL     1     -18.734  41.688 -11.618  0.00  0.00    +0.000 N 
ATOM     12  C   UNL     1     -18.377  40.942 -10.509  0.00  0.00    +0.000 C 
ATOM     13  H   UNL     1     -19.524  42.322 -11.576  0.00  0.00    +0.000 HD
BRANCH  11  14
ATOM     14  C   UNL     1     -18.066  41.537 -12.898  0.00  0.00    +0.000 C 
ATOM     15  C   UNL     1     -18.857  42.288 -13.975  0.00  0.00    +0.000 C 
ATOM     16  C   UNL     1     -17.991  40.048 -13.252  0.00  0.00    +0.000 C 
ATOM     17  C   UNL     1     -16.651  42.118 -12.801  0.00  0.00    +0.000 C 
ENDBRANCH  11  14
ENDBRANCH   3  12
TORSDOF 2
ENDMDL
MODEL 3
REMARK VINA RESULT:    -5.999      1.988      5.732
REMARK INTER + INTRA:          -6.269
REMARK INTER:                  -6.586
REMARK INTRA:                   0.317
REMARK UNBOUND:                 0.432
REMARK  Name = 62153986
REMARK  5 active torsions:
REMARK  status: ('A' for Active; 'I' for Inactive)
REMARK    1  A    between atoms: N_2  and  C_5
REMARK    2  A    between atoms: C_5  and  C_6
REMARK    3  A    between atoms: C_5  and  C_7
REMARK    4  A    between atoms: C_5  and  C_8
REMARK    5  A    between atoms: C_9  and  C_10
REMARK                            x       y       z     vdW  Elec       q    Type
REMARK                         _______ _______ _______ _____ _____    ______ ____
ROOT
ATOM      1  N   UNL     1     -17.185  41.138 -10.726  0.00  0.00    +0.000 NA
ATOM      2  N   UNL     1     -17.101  39.612 -12.554  0.00  0.00    +0.000 N 
ATOM      3  C   UNL     1     -19.077  41.090  -9.223  0.00  0.00    +0.000 A 
ATOM      4  C   UNL     1     -19.642  40.051  -9.955  0.00  0.00    +0.000 A 
ATOM      5  C   UNL     1     -17.858  41.594  -9.647  0.00  0.00    +0.000 A 
ATOM      6  C   UNL     1     -18.979  39.555 -11.072  0.00  0.00    +0.000 A 
ATOM      7  C   UNL     1     -17.764  40.128 -11.414  0.00  0.00    +0.000 A 
ATOM      8  H   UNL     1     -17.263  38.645 -12.809  0.00  0.00    +0.000 HD
ATOM      9  H   UNL     1     -16.211  40.028 -12.796  0.00  0.00    +0.000 HD
ENDROOT
BRANCH   3  12
ATOM     10  O   UNL     1     -19.131  42.363  -7.255  0.00  0.00    +0.000 OA
ATOM     11  N   UNL     1     -21.094  41.303  -7.888  0.00  0.00    +0.000 N 
ATOM     12  C   UNL     1     -19.760  41.642  -8.024  0.00  0.00    +0.000 C 
ATOM     13  H   UNL     1     -21.558  40.752  -8.601  0.00  0.00    +0.000 HD
BRANCH  11  14
ATOM     14  C   UNL     1     -21.903  41.785  -6.784  0.00  0.00    +0.000 C 
ATOM     15  C   UNL     1     -22.049  43.307  -6.887  0.00  0.00    +0.000 C 
ATOM     16  C   UNL     1     -21.219  41.418  -5.463  0.00  0.00    +0.000 C 
ATOM     17  C   UNL     1     -23.288  41.131  -6.849  0.00  0.00    +0.000 C 
ENDBRANCH  11  14
ENDBRANCH   3  12
TORSDOF 2
ENDMDL
MODEL 4
REMARK VINA RESULT:    -5.973      1.628      5.736
REMARK INTER + INTRA:          -6.239
REMARK INTER:                  -6.776
REMARK INTRA:                   0.537
REMARK UNBOUND:                 0.432
REMARK  Name = 62153986
REMARK  5 active torsions:
REMARK  status: ('A' for Active; 'I' for Inactive)
REMARK    1  A    between atoms: N_2  and  C_5
REMARK    2  A    between atoms: C_5  and  C_6
REMARK    3  A    between atoms: C_5  and  C_7
REMARK    4  A    between atoms: C_5  and  C_8
REMARK    5  A    between atoms: C_9  and  C_10
REMARK                            x       y       z     vdW  Elec       q    Type
REMARK                         _______ _______ _______ _____ _____    ______ ____
ROOT
ATOM      1  N   UNL     1     -18.525  39.589 -11.620  0.00  0.00    +0.000 NA
ATOM      2  N   UNL     1     -16.521  40.503 -12.527  0.00  0.00    +0.000 N 
ATOM      3  C   UNL     1     -19.502  40.591  -9.648  0.00  0.00    +0.000 A 
ATOM      4  C   UNL     1     -18.480  41.532  -9.610  0.00  0.00    +0.000 A 
ATOM      5  C   UNL     1     -19.480  39.649 -10.665  0.00  0.00    +0.000 A 
ATOM      6  C   UNL     1     -17.480  41.503 -10.576  0.00  0.00    +0.000 A 
ATOM      7  C   UNL     1     -17.547  40.520 -11.551  0.00  0.00    +0.000 A 
ATOM      8  H   UNL     1     -16.062  41.375 -12.759  0.00  0.00    +0.000 HD
ATOM      9  H   UNL     1     -16.578  39.788 -13.242  0.00  0.00    +0.000 HD
ENDROOT
BRANCH   3  12
ATOM     10  O   UNL     1     -21.266  39.586  -8.475  0.00  0.00    +0.000 OA
ATOM     11  N   UNL     1     -20.723  41.768  -7.911  0.00  0.00    +0.000 N 
ATOM     12  C   UNL     1     -20.586  40.596  -8.632  0.00  0.00    +0.000 C 
ATOM     13  H   UNL     1     -20.080  42.538  -8.058  0.00  0.00    +0.000 HD
BRANCH  11  14
ATOM     14  C   UNL     1     -21.718  41.919  -6.865  0.00  0.00    +0.000 C 
ATOM     15  C   UNL     1     -22.082  43.401  -6.722  0.00  0.00    +0.000 C 
ATOM     16  C   UNL     1     -21.141  41.397  -5.545  0.00  0.00    +0.000 C 
ATOM     17  C   UNL     1     -22.969  41.116  -7.238  0.00  0.00    +0.000 C 
ENDBRANCH  11  14
ENDBRANCH   3  12
TORSDOF 2
ENDMDL
MODEL 5
REMARK VINA RESULT:    -5.162      4.568      6.232
REMARK INTER + INTRA:          -5.334
REMARK INTER:                  -5.645
REMARK INTRA:                   0.311
REMARK UNBOUND:                 0.432
REMARK  Name = 62153986
REMARK  5 active torsions:
REMARK  status: ('A' for Active; 'I' for Inactive)
REMARK    1  A    between atoms: N_2  and  C_5
REMARK    2  A    between atoms: C_5  and  C_6
REMARK    3  A    between atoms: C_5  and  C_7
REMARK    4  A    between atoms: C_5  and  C_8
REMARK    5  A    between atoms: C_9  and  C_10
REMARK                            x       y       z     vdW  Elec       q    Type
REMARK                         _______ _______ _______ _____ _____    ______ ____
ROOT
ATOM      1  N   UNL     1     -18.814  41.699 -11.928  0.00  0.00    +0.000 NA
ATOM      2  N   UNL     1     -17.426  42.403 -10.125  0.00  0.00    +0.000 N 
ATOM      3  C   UNL     1     -19.028  43.104 -13.883  0.00  0.00    +0.000 A 
ATOM      4  C   UNL     1     -18.167  44.037 -13.316  0.00  0.00    +0.000 A 
ATOM      5  C   UNL     1     -19.318  41.961 -13.154  0.00  0.00    +0.000 A 
ATOM      6  C   UNL     1     -17.629  43.802 -12.055  0.00  0.00    +0.000 A 
ATOM      7  C   UNL     1     -17.981  42.628 -11.408  0.00  0.00    +0.000 A 
ATOM      8  H   UNL     1     -16.526  42.817  -9.910  0.00  0.00    +0.000 HD
ATOM      9  H   UNL     1     -17.680  41.541  -9.658  0.00  0.00    +0.000 HD
ENDROOT
BRANCH   3  12
ATOM     10  O   UNL     1     -19.944  42.356 -15.908  0.00  0.00    +0.000 OA
ATOM     11  N   UNL     1     -19.778  44.648 -15.600  0.00  0.00    +0.000 N 
ATOM     12  C   UNL     1     -19.619  43.326 -15.228  0.00  0.00    +0.000 C 
ATOM     13  H   UNL     1     -19.540  45.394 -14.956  0.00  0.00    +0.000 HD
BRANCH  11  14
ATOM     14  C   UNL     1     -20.364  45.027 -16.873  0.00  0.00    +0.000 C 
ATOM     15  C   UNL     1     -19.491  44.491 -18.013  0.00  0.00    +0.000 C 
ATOM     16  C   UNL     1     -20.442  46.555 -16.953  0.00  0.00    +0.000 C 
ATOM     17  C   UNL     1     -21.771  44.430 -16.979  0.00  0.00    +0.000 C 
ENDBRANCH  11  14
ENDBRANCH   3  12
TORSDOF 2
ENDMDL
