MODEL 1
REMARK VINA RESULT:    -7.177      0.000      0.000
REMARK INTER + INTRA:          -8.395
REMARK INTER:                  -8.016
REMARK INTRA:                  -0.378
REMARK UNBOUND:                -0.378
REMARK  Name = 62155230
REMARK  2 active torsions:
REMARK  status: ('A' for Active; 'I' for Inactive)
REMARK    1  A    between atoms: N_3  and  C_6
REMARK    2  A    between atoms: C_7  and  C_8
REMARK                            x       y       z     vdW  Elec       q    Type
REMARK                         _______ _______ _______ _____ _____    ______ ____
ROOT
ATOM      1  O   UNL     1     -20.369  39.142  -9.340  0.00  0.00    +0.000 OA
ATOM      2  N   UNL     1     -19.092  41.040  -9.884  0.00  0.00    +0.000 N 
ATOM      3  C   UNL     1     -20.036  40.307  -9.153  0.00  0.00    +0.000 C 
ATOM      4  H   UNL     1     -18.879  41.987  -9.582  0.00  0.00    +0.000 HD
ENDROOT
BRANCH   3   7
ATOM      5  N   UNL     1     -22.683  41.714  -6.870  0.00  0.00    +0.000 NA
ATOM      6  N   UNL     1     -22.516  43.038  -4.896  0.00  0.00    +0.000 N 
ATOM      7  C   UNL     1     -20.668  41.034  -8.021  0.00  0.00    +0.000 A 
ATOM      8  C   UNL     1     -19.896  41.699  -7.074  0.00  0.00    +0.000 A 
ATOM      9  C   UNL     1     -22.045  41.072  -7.875  0.00  0.00    +0.000 A 
ATOM     10  C   UNL     1     -20.515  42.371  -6.026  0.00  0.00    +0.000 A 
ATOM     11  C   UNL     1     -21.900  42.348  -5.970  0.00  0.00    +0.000 A 
ATOM     12  H   UNL     1     -22.004  43.135  -4.029  0.00  0.00    +0.000 HD
ATOM     13  H   UNL     1     -23.528  43.013  -4.856  0.00  0.00    +0.000 HD
ENDBRANCH   3   7
BRANCH   2  15
ATOM     14  F   UNL     1     -20.157  40.977 -12.448  0.00  0.00    +0.000 F 
ATOM     15  C   UNL     1     -18.330  40.614 -10.973  0.00  0.00    +0.000 A 
ATOM     16  C   UNL     1     -18.887  40.590 -12.251  0.00  0.00    +0.000 A 
ATOM     17  C   UNL     1     -17.009  40.211 -10.781  0.00  0.00    +0.000 A 
ATOM     18  C   UNL     1     -18.124  40.163 -13.338  0.00  0.00    +0.000 A 
ATOM     19  C   UNL     1     -16.245  39.783 -11.867  0.00  0.00    +0.000 A 
ATOM     20  C   UNL     1     -16.803  39.759 -13.145  0.00  0.00    +0.000 A 
ENDBRANCH   2  15
TORSDOF 2
ENDMDL
MODEL 2
REMARK VINA RESULT:    -6.265      5.026      7.758
REMARK INTER + INTRA:          -7.376
REMARK INTER:                  -7.039
REMARK INTRA:                  -0.337
REMARK UNBOUND:                -0.378
REMARK  Name = 62155230
REMARK  2 active torsions:
REMARK  status: ('A' for Active; 'I' for Inactive)
REMARK    1  A    between atoms: N_3  and  C_6
REMARK    2  A    between atoms: C_7  and  C_8
REMARK                            x       y       z     vdW  Elec       q    Type
REMARK                         _______ _______ _______ _____ _____    ______ ____
ROOT
ATOM      1  O   UNL     1     -19.239  44.141 -13.671  0.00  0.00    +0.000 OA
ATOM      2  N   UNL     1     -19.289  41.803 -13.915  0.00  0.00    +0.000 N 
ATOM      3  C   UNL     1     -19.497  43.131 -14.314  0.00  0.00    +0.000 C 
ATOM      4  H   UNL     1     -19.506  41.063 -14.576  0.00  0.00    +0.000 HD
ENDROOT
BRANCH   3   7
ATOM      5  N   UNL     1     -19.702  43.586 -18.049  0.00  0.00    +0.000 NA
ATOM      6  N   UNL     1     -21.574  43.789 -19.508  0.00  0.00    +0.000 N 
ATOM      7  C   UNL     1     -20.069  43.303 -15.675  0.00  0.00    +0.000 A 
ATOM      8  C   UNL     1     -21.444  43.346 -15.877  0.00  0.00    +0.000 A 
ATOM      9  C   UNL     1     -19.248  43.427 -16.785  0.00  0.00    +0.000 A 
ATOM     10  C   UNL     1     -21.949  43.509 -17.162  0.00  0.00    +0.000 A 
ATOM     11  C   UNL     1     -21.044  43.623 -18.204  0.00  0.00    +0.000 A 
ATOM     12  H   UNL     1     -22.489  43.404 -19.709  0.00  0.00    +0.000 HD
ATOM     13  H   UNL     1     -20.909  43.865 -20.268  0.00  0.00    +0.000 HD
ENDBRANCH   3   7
BRANCH   2  15
ATOM     14  F   UNL     1     -16.573  42.023 -13.380  0.00  0.00    +0.000 F 
ATOM     15  C   UNL     1     -18.750  41.343 -12.713  0.00  0.00    +0.000 A 
ATOM     16  C   UNL     1     -17.382  41.463 -12.468  0.00  0.00    +0.000 A 
ATOM     17  C   UNL     1     -19.581  40.760 -11.757  0.00  0.00    +0.000 A 
ATOM     18  C   UNL     1     -16.844  41.002 -11.267  0.00  0.00    +0.000 A 
ATOM     19  C   UNL     1     -19.044  40.297 -10.556  0.00  0.00    +0.000 A 
ATOM     20  C   UNL     1     -17.676  40.418 -10.310  0.00  0.00    +0.000 A 
ENDBRANCH   2  15
TORSDOF 2
ENDMDL
MODEL 3
REMARK VINA RESULT:    -6.245      4.842      6.789
REMARK INTER + INTRA:          -7.354
REMARK INTER:                  -6.985
REMARK INTRA:                  -0.368
REMARK UNBOUND:                -0.378
REMARK  Name = 62155230
REMARK  2 active torsions:
REMARK  status: ('A' for Active; 'I' for Inactive)
REMARK    1  A    between atoms: N_3  and  C_6
REMARK    2  A    between atoms: C_7  and  C_8
REMARK                            x       y       z     vdW  Elec       q    Type
REMARK                         _______ _______ _______ _____ _____    ______ ____
ROOT
ATOM      1  O   UNL     1     -18.810  44.695 -14.290  0.00  0.00    +0.000 OA
ATOM      2  N   UNL     1     -19.787  42.813 -15.306  0.00  0.00    +0.000 N 
ATOM      3  C   UNL     1     -19.104  43.506 -14.296  0.00  0.00    +0.000 C 
ATOM      4  H   UNL     1     -20.008  41.834 -15.152  0.00  0.00    +0.000 HD
ENDROOT
BRANCH   3   7
ATOM      5  N   UNL     1     -17.221  42.309 -11.261  0.00  0.00    +0.000 NA
ATOM      6  N   UNL     1     -17.622  40.488  -9.777  0.00  0.00    +0.000 N 
ATOM      7  C   UNL     1     -18.733  42.695 -13.108  0.00  0.00    +0.000 A 
ATOM      8  C   UNL     1     -19.498  41.601 -12.718  0.00  0.00    +0.000 A 
ATOM      9  C   UNL     1     -17.614  43.004 -12.352  0.00  0.00    +0.000 A 
ATOM     10  C   UNL     1     -19.126  40.861 -11.601  0.00  0.00    +0.000 A 
ATOM     11  C   UNL     1     -17.989  41.253 -10.913  0.00  0.00    +0.000 A 
ATOM     12  H   UNL     1     -18.351  40.010  -9.263  0.00  0.00    +0.000 HD
ATOM     13  H   UNL     1     -16.794  40.782  -9.274  0.00  0.00    +0.000 HD
ENDBRANCH   3   7
BRANCH   2  15
ATOM     14  F   UNL     1     -22.474  43.437 -15.621  0.00  0.00    +0.000 F 
ATOM     15  C   UNL     1     -20.275  43.316 -16.513  0.00  0.00    +0.000 A 
ATOM     16  C   UNL     1     -21.629  43.621 -16.647  0.00  0.00    +0.000 A 
ATOM     17  C   UNL     1     -19.407  43.512 -17.586  0.00  0.00    +0.000 A 
ATOM     18  C   UNL     1     -22.116  44.123 -17.854  0.00  0.00    +0.000 A 
ATOM     19  C   UNL     1     -19.892  44.013 -18.794  0.00  0.00    +0.000 A 
ATOM     20  C   UNL     1     -21.247  44.318 -18.928  0.00  0.00    +0.000 A 
ENDBRANCH   2  15
TORSDOF 2
ENDMDL
MODEL 4
REMARK VINA RESULT:    -6.206      3.975      5.335
REMARK INTER + INTRA:          -7.310
REMARK INTER:                  -6.944
REMARK INTRA:                  -0.366
REMARK UNBOUND:                -0.378
REMARK  Name = 62155230
REMARK  2 active torsions:
REMARK  status: ('A' for Active; 'I' for Inactive)
REMARK    1  A    between atoms: N_3  and  C_6
REMARK    2  A    between atoms: C_7  and  C_8
REMARK                            x       y       z     vdW  Elec       q    Type
REMARK                         _______ _______ _______ _____ _____    ______ ____
ROOT
ATOM      1  O   UNL     1     -17.147  42.155 -13.472  0.00  0.00    +0.000 OA
ATOM      2  N   UNL     1     -19.344  42.988 -13.561  0.00  0.00    +0.000 N 
ATOM      3  C   UNL     1     -18.259  42.316 -12.982  0.00  0.00    +0.000 C 
ATOM      4  H   UNL     1     -20.194  43.089 -13.014  0.00  0.00    +0.000 HD
ENDROOT
BRANCH   3   7
ATOM      5  N   UNL     1     -19.527  40.090 -10.219  0.00  0.00    +0.000 NA
ATOM      6  N   UNL     1     -19.227  40.189  -7.857  0.00  0.00    +0.000 N 
ATOM      7  C   UNL     1     -18.500  41.773 -11.620  0.00  0.00    +0.000 A 
ATOM      8  C   UNL     1     -17.962  42.390 -10.495  0.00  0.00    +0.000 A 
ATOM      9  C   UNL     1     -19.269  40.636 -11.429  0.00  0.00    +0.000 A 
ATOM     10  C   UNL     1     -18.205  41.859  -9.233  0.00  0.00    +0.000 A 
ATOM     11  C   UNL     1     -18.987  40.717  -9.150  0.00  0.00    +0.000 A 
ATOM     12  H   UNL     1     -18.535  40.348  -7.136  0.00  0.00    +0.000 HD
ATOM     13  H   UNL     1     -19.793  39.351  -7.802  0.00  0.00    +0.000 HD
ENDBRANCH   3   7
BRANCH   2  15
ATOM     14  F   UNL     1     -18.276  45.523 -13.945  0.00  0.00    +0.000 F 
ATOM     15  C   UNL     1     -19.400  43.615 -14.806  0.00  0.00    +0.000 A 
ATOM     16  C   UNL     1     -18.858  44.889 -14.975  0.00  0.00    +0.000 A 
ATOM     17  C   UNL     1     -20.001  42.966 -15.884  0.00  0.00    +0.000 A 
ATOM     18  C   UNL     1     -18.916  45.514 -16.220  0.00  0.00    +0.000 A 
ATOM     19  C   UNL     1     -20.061  43.590 -17.130  0.00  0.00    +0.000 A 
ATOM     20  C   UNL     1     -19.518  44.864 -17.298  0.00  0.00    +0.000 A 
ENDBRANCH   2  15
TORSDOF 2
ENDMDL
MODEL 5
REMARK VINA RESULT:    -5.882      6.295      8.309
REMARK INTER + INTRA:          -6.948
REMARK INTER:                  -6.622
REMARK INTRA:                  -0.326
REMARK UNBOUND:                -0.378
REMARK  Name = 62155230
REMARK  2 active torsions:
REMARK  status: ('A' for Active; 'I' for Inactive)
REMARK    1  A    between atoms: N_3  and  C_6
REMARK    2  A    between atoms: C_7  and  C_8
REMARK                            x       y       z     vdW  Elec       q    Type
REMARK                         _______ _______ _______ _____ _____    ______ ____
ROOT
ATOM      1  O   UNL     1     -19.968  42.315 -16.543  0.00  0.00    +0.000 OA
ATOM      2  N   UNL     1     -19.984  43.671 -14.621  0.00  0.00    +0.000 N 
ATOM      3  C   UNL     1     -20.335  43.312 -15.930  0.00  0.00    +0.000 C 
ATOM      4  H   UNL     1     -20.406  44.504 -14.222  0.00  0.00    +0.000 HD
ENDROOT
BRANCH   3   7
ATOM      5  N   UNL     1     -21.597  46.218 -17.968  0.00  0.00    +0.000 NA
ATOM      6  N   UNL     1     -23.808  46.884 -18.557  0.00  0.00    +0.000 N 
ATOM      7  C   UNL     1     -21.271  44.241 -16.615  0.00  0.00    +0.000 A 
ATOM      8  C   UNL     1     -22.646  44.039 -16.567  0.00  0.00    +0.000 A 
ATOM      9  C   UNL     1     -20.801  45.335 -17.323  0.00  0.00    +0.000 A 
ATOM     10  C   UNL     1     -23.497  44.925 -17.218  0.00  0.00    +0.000 A 
ATOM     11  C   UNL     1     -22.927  45.989 -17.899  0.00  0.00    +0.000 A 
ATOM     12  H   UNL     1     -24.699  46.532 -18.881  0.00  0.00    +0.000 HD
ATOM     13  H   UNL     1     -23.386  47.657 -19.058  0.00  0.00    +0.000 HD
ENDBRANCH   3   7
BRANCH   2  15
ATOM     14  F   UNL     1     -17.395  44.538 -14.118  0.00  0.00    +0.000 F 
ATOM     15  C   UNL     1     -19.151  42.984 -13.737  0.00  0.00    +0.000 A 
ATOM     16  C   UNL     1     -17.854  43.439 -13.500  0.00  0.00    +0.000 A 
ATOM     17  C   UNL     1     -19.618  41.841 -13.088  0.00  0.00    +0.000 A 
ATOM     18  C   UNL     1     -17.023  42.751 -12.616  0.00  0.00    +0.000 A 
ATOM     19  C   UNL     1     -18.788  41.152 -12.205  0.00  0.00    +0.000 A 
ATOM     20  C   UNL     1     -17.490  41.607 -11.969  0.00  0.00    +0.000 A 
ENDBRANCH   2  15
TORSDOF 2
ENDMDL
