MODEL 1
REMARK VINA RESULT:    -7.521      0.000      0.000
REMARK INTER + INTRA:          -9.149
REMARK INTER:                  -8.840
REMARK INTRA:                  -0.309
REMARK UNBOUND:                -0.309
REMARK  Name = 62155126
REMARK  3 active torsions:
REMARK  status: ('A' for Active; 'I' for Inactive)
REMARK    1  A    between atoms: N_2  and  C_11
REMARK    2  A    between atoms: C_5  and  C_11
REMARK    3  A    between atoms: C_12  and  C_13
REMARK                            x       y       z     vdW  Elec       q    Type
REMARK                         _______ _______ _______ _____ _____    ______ ____
ROOT
ATOM      1  O   UNL     1     -17.975  40.369  -8.984  0.00  0.00    +0.000 OA
ATOM      2  N   UNL     1     -19.775  40.016 -10.404  0.00  0.00    +0.000 N 
ATOM      3  C   UNL     1     -19.172  40.477  -9.237  0.00  0.00    +0.000 C 
ATOM      4  H   UNL     1     -20.779  40.096 -10.527  0.00  0.00    +0.000 HD
ENDROOT
BRANCH   3   7
ATOM      5  N   UNL     1     -22.305  41.429  -7.374  0.00  0.00    +0.000 NA
ATOM      6  N   UNL     1     -22.647  42.860  -5.500  0.00  0.00    +0.000 N 
ATOM      7  C   UNL     1     -20.069  41.118  -8.241  0.00  0.00    +0.000 A 
ATOM      8  C   UNL     1     -19.566  41.975  -7.268  0.00  0.00    +0.000 A 
ATOM      9  C   UNL     1     -21.435  40.879  -8.251  0.00  0.00    +0.000 A 
ATOM     10  C   UNL     1     -20.431  42.559  -6.349  0.00  0.00    +0.000 A 
ATOM     11  C   UNL     1     -21.779  42.256  -6.444  0.00  0.00    +0.000 A 
ATOM     12  H   UNL     1     -23.631  42.631  -5.569  0.00  0.00    +0.000 HD
ATOM     13  H   UNL     1     -22.274  43.105  -4.591  0.00  0.00    +0.000 HD
ENDBRANCH   3   7
BRANCH   2  14
ATOM     14  C   UNL     1     -19.048  39.357 -11.446  0.00  0.00    +0.000 C 
BRANCH  14  15
ATOM     15  C   UNL     1     -18.597  40.352 -12.513  0.00  0.00    +0.000 C 
ATOM     16  C   UNL     1     -19.643  41.460 -12.699  0.00  0.00    +0.000 C 
ATOM     17  C   UNL     1     -17.229  40.948 -12.156  0.00  0.00    +0.000 C 
ATOM     18  C   UNL     1     -19.191  42.497 -13.724  0.00  0.00    +0.000 C 
ATOM     19  C   UNL     1     -16.781  41.986 -13.182  0.00  0.00    +0.000 C 
ATOM     20  C   UNL     1     -17.826  43.080 -13.370  0.00  0.00    +0.000 C 
ENDBRANCH  14  15
ENDBRANCH   2  14
TORSDOF 3
ENDMDL
MODEL 2
REMARK VINA RESULT:    -7.420      2.189      6.322
REMARK INTER + INTRA:          -9.030
REMARK INTER:                  -8.698
REMARK INTRA:                  -0.332
REMARK UNBOUND:                -0.309
REMARK  Name = 62155126
REMARK  3 active torsions:
REMARK  status: ('A' for Active; 'I' for Inactive)
REMARK    1  A    between atoms: N_2  and  C_11
REMARK    2  A    between atoms: C_5  and  C_11
REMARK    3  A    between atoms: C_12  and  C_13
REMARK                            x       y       z     vdW  Elec       q    Type
REMARK                         _______ _______ _______ _____ _____    ______ ____
ROOT
ATOM      1  O   UNL     1     -16.737  41.659 -10.504  0.00  0.00    +0.000 OA
ATOM      2  N   UNL     1     -18.933  41.318  -9.838  0.00  0.00    +0.000 N 
ATOM      3  C   UNL     1     -17.942  41.711 -10.735  0.00  0.00    +0.000 C 
ATOM      4  H   UNL     1     -19.912  41.432 -10.076  0.00  0.00    +0.000 HD
ENDROOT
BRANCH   3   7
ATOM      5  N   UNL     1     -19.833  42.011 -13.979  0.00  0.00    +0.000 NA
ATOM      6  N   UNL     1     -19.771  43.671 -15.687  0.00  0.00    +0.000 N 
ATOM      7  C   UNL     1     -18.408  42.248 -12.039  0.00  0.00    +0.000 A 
ATOM      8  C   UNL     1     -17.901  43.438 -12.549  0.00  0.00    +0.000 A 
ATOM      9  C   UNL     1     -19.365  41.578 -12.786  0.00  0.00    +0.000 A 
ATOM     10  C   UNL     1     -18.358  43.915 -13.772  0.00  0.00    +0.000 A 
ATOM     11  C   UNL     1     -19.315  43.172 -14.441  0.00  0.00    +0.000 A 
ATOM     12  H   UNL     1     -20.475  43.128 -16.170  0.00  0.00    +0.000 HD
ATOM     13  H   UNL     1     -19.746  44.672 -15.843  0.00  0.00    +0.000 HD
ENDBRANCH   3   7
BRANCH   2  14
ATOM     14  C   UNL     1     -18.642  40.804  -8.535  0.00  0.00    +0.000 C 
BRANCH  14  15
ATOM     15  C   UNL     1     -19.875  40.863  -7.635  0.00  0.00    +0.000 C 
ATOM     16  C   UNL     1     -19.893  42.166  -6.825  0.00  0.00    +0.000 C 
ATOM     17  C   UNL     1     -21.158  40.717  -8.464  0.00  0.00    +0.000 C 
ATOM     18  C   UNL     1     -21.145  42.272  -5.956  0.00  0.00    +0.000 C 
ATOM     19  C   UNL     1     -22.407  40.825  -7.592  0.00  0.00    +0.000 C 
ATOM     20  C   UNL     1     -22.418  42.117  -6.782  0.00  0.00    +0.000 C 
ENDBRANCH  14  15
ENDBRANCH   2  14
TORSDOF 3
ENDMDL
MODEL 3
REMARK VINA RESULT:    -7.056      1.597      2.209
REMARK INTER + INTRA:          -8.603
REMARK INTER:                  -8.250
REMARK INTRA:                  -0.353
REMARK UNBOUND:                -0.309
REMARK  Name = 62155126
REMARK  3 active torsions:
REMARK  status: ('A' for Active; 'I' for Inactive)
REMARK    1  A    between atoms: N_2  and  C_11
REMARK    2  A    between atoms: C_5  and  C_11
REMARK    3  A    between atoms: C_12  and  C_13
REMARK                            x       y       z     vdW  Elec       q    Type
REMARK                         _______ _______ _______ _____ _____    ______ ____
ROOT
ATOM      1  O   UNL     1     -19.064  39.315 -10.778  0.00  0.00    +0.000 OA
ATOM      2  N   UNL     1     -17.974  41.346 -11.044  0.00  0.00    +0.000 N 
ATOM      3  C   UNL     1     -18.816  40.452 -10.385  0.00  0.00    +0.000 C 
ATOM      4  H   UNL     1     -17.850  42.288 -10.688  0.00  0.00    +0.000 HD
ENDROOT
BRANCH   3   7
ATOM      5  N   UNL     1     -19.323  42.310  -7.148  0.00  0.00    +0.000 NA
ATOM      6  N   UNL     1     -21.172  42.379  -5.648  0.00  0.00    +0.000 N 
ATOM      7  C   UNL     1     -19.458  40.947  -9.141  0.00  0.00    +0.000 A 
ATOM      8  C   UNL     1     -20.742  40.546  -8.787  0.00  0.00    +0.000 A 
ATOM      9  C   UNL     1     -18.796  41.823  -8.294  0.00  0.00    +0.000 A 
ATOM     10  C   UNL     1     -21.317  41.027  -7.616  0.00  0.00    +0.000 A 
ATOM     11  C   UNL     1     -20.573  41.899  -6.839  0.00  0.00    +0.000 A 
ATOM     12  H   UNL     1     -20.628  43.021  -5.085  0.00  0.00    +0.000 HD
ATOM     13  H   UNL     1     -22.183  42.448  -5.611  0.00  0.00    +0.000 HD
ENDBRANCH   3   7
BRANCH   2  14
ATOM     14  C   UNL     1     -17.302  41.024 -12.266  0.00  0.00    +0.000 C 
BRANCH  14  15
ATOM     15  C   UNL     1     -17.232  42.240 -13.188  0.00  0.00    +0.000 C 
ATOM     16  C   UNL     1     -18.613  42.893 -13.332  0.00  0.00    +0.000 C 
ATOM     17  C   UNL     1     -16.201  43.253 -12.672  0.00  0.00    +0.000 C 
ATOM     18  C   UNL     1     -18.558  44.142 -14.208  0.00  0.00    +0.000 C 
ATOM     19  C   UNL     1     -16.149  44.501 -13.550  0.00  0.00    +0.000 C 
ATOM     20  C   UNL     1     -17.525  45.142 -13.697  0.00  0.00    +0.000 C 
ENDBRANCH  14  15
ENDBRANCH   2  14
TORSDOF 3
ENDMDL
MODEL 4
REMARK VINA RESULT:    -6.994      2.767      6.592
REMARK INTER + INTRA:          -8.530
REMARK INTER:                  -8.263
REMARK INTRA:                  -0.267
REMARK UNBOUND:                -0.309
REMARK  Name = 62155126
REMARK  3 active torsions:
REMARK  status: ('A' for Active; 'I' for Inactive)
REMARK    1  A    between atoms: N_2  and  C_11
REMARK    2  A    between atoms: C_5  and  C_11
REMARK    3  A    between atoms: C_12  and  C_13
REMARK                            x       y       z     vdW  Elec       q    Type
REMARK                         _______ _______ _______ _____ _____    ______ ____
ROOT
ATOM      1  O   UNL     1     -19.249  41.018 -11.364  0.00  0.00    +0.000 OA
ATOM      2  N   UNL     1     -17.974  41.663  -9.537  0.00  0.00    +0.000 N 
ATOM      3  C   UNL     1     -18.344  41.691 -10.880  0.00  0.00    +0.000 C 
ATOM      4  H   UNL     1     -17.183  42.211  -9.213  0.00  0.00    +0.000 HD
ENDROOT
BRANCH   3   7
ATOM      5  N   UNL     1     -17.505  44.159 -13.600  0.00  0.00    +0.000 NA
ATOM      6  N   UNL     1     -15.428  45.114 -14.271  0.00  0.00    +0.000 N 
ATOM      7  C   UNL     1     -17.553  42.587 -11.762  0.00  0.00    +0.000 A 
ATOM      8  C   UNL     1     -16.177  42.713 -11.611  0.00  0.00    +0.000 A 
ATOM      9  C   UNL     1     -18.165  43.326 -12.763  0.00  0.00    +0.000 A 
ATOM     10  C   UNL     1     -15.464  43.560 -12.451  0.00  0.00    +0.000 A 
ATOM     11  C   UNL     1     -16.169  44.255 -13.421  0.00  0.00    +0.000 A 
ATOM     12  H   UNL     1     -15.948  45.624 -14.974  0.00  0.00    +0.000 HD
ATOM     13  H   UNL     1     -14.573  45.524 -13.914  0.00  0.00    +0.000 HD
ENDBRANCH   3   7
BRANCH   2  14
ATOM     14  C   UNL     1     -18.623  40.833  -8.569  0.00  0.00    +0.000 C 
BRANCH  14  15
ATOM     15  C   UNL     1     -19.977  41.417  -8.168  0.00  0.00    +0.000 C 
ATOM     16  C   UNL     1     -21.076  40.349  -8.256  0.00  0.00    +0.000 C 
ATOM     17  C   UNL     1     -19.913  42.019  -6.758  0.00  0.00    +0.000 C 
ATOM     18  C   UNL     1     -22.430  40.895  -7.809  0.00  0.00    +0.000 C 
ATOM     19  C   UNL     1     -21.268  42.562  -6.314  0.00  0.00    +0.000 C 
ATOM     20  C   UNL     1     -22.359  41.500  -6.411  0.00  0.00    +0.000 C 
ENDBRANCH  14  15
ENDBRANCH   2  14
TORSDOF 3
ENDMDL
MODEL 5
REMARK VINA RESULT:    -6.546      3.500      6.222
REMARK INTER + INTRA:          -8.003
REMARK INTER:                  -7.525
REMARK INTRA:                  -0.478
REMARK UNBOUND:                -0.309
REMARK  Name = 62155126
REMARK  3 active torsions:
REMARK  status: ('A' for Active; 'I' for Inactive)
REMARK    1  A    between atoms: N_2  and  C_11
REMARK    2  A    between atoms: C_5  and  C_11
REMARK    3  A    between atoms: C_12  and  C_13
REMARK                            x       y       z     vdW  Elec       q    Type
REMARK                         _______ _______ _______ _____ _____    ______ ____
ROOT
ATOM      1  O   UNL     1     -18.369  41.896 -13.090  0.00  0.00    +0.000 OA
ATOM      2  N   UNL     1     -17.589  42.285 -10.940  0.00  0.00    +0.000 N 
ATOM      3  C   UNL     1     -18.010  42.674 -12.210  0.00  0.00    +0.000 C 
ATOM      4  H   UNL     1     -17.260  42.978 -10.276  0.00  0.00    +0.000 HD
ENDROOT
BRANCH   3   7
ATOM      5  N   UNL     1     -18.397  45.940 -14.046  0.00  0.00    +0.000 NA
ATOM      6  N   UNL     1     -17.958  48.183 -13.374  0.00  0.00    +0.000 N 
ATOM      7  C   UNL     1     -17.987  44.131 -12.494  0.00  0.00    +0.000 A 
ATOM      8  C   UNL     1     -17.558  45.043 -11.535  0.00  0.00    +0.000 A 
ATOM      9  C   UNL     1     -18.393  44.627 -13.723  0.00  0.00    +0.000 A 
ATOM     10  C   UNL     1     -17.549  46.401 -11.830  0.00  0.00    +0.000 A 
ATOM     11  C   UNL     1     -17.974  46.795 -13.088  0.00  0.00    +0.000 A 
ATOM     12  H   UNL     1     -18.276  48.467 -14.292  0.00  0.00    +0.000 HD
ATOM     13  H   UNL     1     -18.068  48.834 -12.605  0.00  0.00    +0.000 HD
ENDBRANCH   3   7
BRANCH   2  14
ATOM     14  C   UNL     1     -17.533  40.917 -10.525  0.00  0.00    +0.000 C 
BRANCH  14  15
ATOM     15  C   UNL     1     -18.480  40.660  -9.354  0.00  0.00    +0.000 C 
ATOM     16  C   UNL     1     -18.681  41.937  -8.527  0.00  0.00    +0.000 C 
ATOM     17  C   UNL     1     -19.825  40.116  -9.854  0.00  0.00    +0.000 C 
ATOM     18  C   UNL     1     -19.665  41.719  -7.381  0.00  0.00    +0.000 C 
ATOM     19  C   UNL     1     -20.808  39.901  -8.706  0.00  0.00    +0.000 C 
ATOM     20  C   UNL     1     -20.998  41.170  -7.882  0.00  0.00    +0.000 C 
ENDBRANCH  14  15
ENDBRANCH   2  14
TORSDOF 3
ENDMDL
