MODEL 1
REMARK VINA RESULT:    -6.350      0.000      0.000
REMARK INTER + INTRA:          -6.754
REMARK INTER:                  -7.463
REMARK INTRA:                   0.710
REMARK UNBOUND:                 0.710
REMARK  Name = 62155287
REMARK  5 active torsions:
REMARK  status: ('A' for Active; 'I' for Inactive)
REMARK    1  A    between atoms: N_2  and  C_5
REMARK    2  A    between atoms: N_2  and  C_8
REMARK    3  A    between atoms: C_5  and  C_6
REMARK    4  A    between atoms: C_6  and  C_9
REMARK    5  A    between atoms: C_7  and  C_10
REMARK                            x       y       z     vdW  Elec       q    Type
REMARK                         _______ _______ _______ _____ _____    ______ ____
ROOT
ATOM      1  N   UNL     1     -19.427  42.319  -6.965  0.00  0.00    +0.000 NA
ATOM      2  N   UNL     1     -21.375  42.584  -5.618  0.00  0.00    +0.000 N 
ATOM      3  C   UNL     1     -19.555  41.016  -8.997  0.00  0.00    +0.000 A 
ATOM      4  C   UNL     1     -20.903  40.768  -8.762  0.00  0.00    +0.000 A 
ATOM      5  C   UNL     1     -18.868  41.791  -8.076  0.00  0.00    +0.000 A 
ATOM      6  C   UNL     1     -21.513  41.293  -7.629  0.00  0.00    +0.000 A 
ATOM      7  C   UNL     1     -20.739  42.055  -6.768  0.00  0.00    +0.000 A 
ATOM      8  H   UNL     1     -20.807  43.145  -4.996  0.00  0.00    +0.000 HD
ATOM      9  H   UNL     1     -22.369  42.773  -5.661  0.00  0.00    +0.000 HD
ENDROOT
BRANCH   3  12
ATOM     10  O   UNL     1     -19.207  39.340 -10.530  0.00  0.00    +0.000 OA
ATOM     11  N   UNL     1     -17.932  41.300 -10.832  0.00  0.00    +0.000 N 
ATOM     12  C   UNL     1     -18.879  40.475 -10.187  0.00  0.00    +0.000 C 
ATOM     13  C   UNL     1     -17.615  42.644 -10.337  0.00  0.00    +0.000 C 
BRANCH  11  14
ATOM     14  C   UNL     1     -17.228  40.868 -12.008  0.00  0.00    +0.000 C 
BRANCH  14  15
ATOM     15  C   UNL     1     -17.320  41.880 -13.143  0.00  0.00    +0.000 C 
ATOM     16  C   UNL     1     -18.741  42.055 -13.661  0.00  0.00    +0.000 C 
ENDBRANCH  14  15
ENDBRANCH  11  14
ENDBRANCH   3  12
TORSDOF 3
ENDMDL
MODEL 2
REMARK VINA RESULT:    -6.338      1.936      5.613
REMARK INTER + INTRA:          -6.739
REMARK INTER:                  -6.810
REMARK INTRA:                   0.070
REMARK UNBOUND:                 0.710
REMARK  Name = 62155287
REMARK  5 active torsions:
REMARK  status: ('A' for Active; 'I' for Inactive)
REMARK    1  A    between atoms: N_2  and  C_5
REMARK    2  A    between atoms: N_2  and  C_8
REMARK    3  A    between atoms: C_5  and  C_6
REMARK    4  A    between atoms: C_6  and  C_9
REMARK    5  A    between atoms: C_7  and  C_10
REMARK                            x       y       z     vdW  Elec       q    Type
REMARK                         _______ _______ _______ _____ _____    ______ ____
ROOT
ATOM      1  N   UNL     1     -16.804  39.837 -11.560  0.00  0.00    +0.000 NA
ATOM      2  N   UNL     1     -17.212  39.514 -13.886  0.00  0.00    +0.000 N 
ATOM      3  C   UNL     1     -18.364  41.138 -10.250  0.00  0.00    +0.000 A 
ATOM      4  C   UNL     1     -19.150  41.347 -11.377  0.00  0.00    +0.000 A 
ATOM      5  C   UNL     1     -17.211  40.383 -10.393  0.00  0.00    +0.000 A 
ATOM      6  C   UNL     1     -18.763  40.803 -12.597  0.00  0.00    +0.000 A 
ATOM      7  C   UNL     1     -17.592  40.062 -12.636  0.00  0.00    +0.000 A 
ATOM      8  H   UNL     1     -16.359  38.969 -13.908  0.00  0.00    +0.000 HD
ATOM      9  H   UNL     1     -17.938  39.296 -14.557  0.00  0.00    +0.000 HD
ENDROOT
BRANCH   3  12
ATOM     10  O   UNL     1     -18.075  42.652  -8.545  0.00  0.00    +0.000 OA
ATOM     11  N   UNL     1     -19.841  41.113  -8.274  0.00  0.00    +0.000 N 
ATOM     12  C   UNL     1     -18.745  41.701  -8.944  0.00  0.00    +0.000 C 
ATOM     13  C   UNL     1     -20.573  39.975  -8.844  0.00  0.00    +0.000 C 
BRANCH  11  14
ATOM     14  C   UNL     1     -20.298  41.596  -7.002  0.00  0.00    +0.000 C 
BRANCH  14  15
ATOM     15  C   UNL     1     -21.818  41.587  -6.890  0.00  0.00    +0.000 C 
ATOM     16  C   UNL     1     -22.385  42.939  -6.476  0.00  0.00    +0.000 C 
ENDBRANCH  14  15
ENDBRANCH  11  14
ENDBRANCH   3  12
TORSDOF 3
ENDMDL
MODEL 3
REMARK VINA RESULT:    -5.704      2.701      3.720
REMARK INTER + INTRA:          -5.995
REMARK INTER:                  -5.924
REMARK INTRA:                  -0.071
REMARK UNBOUND:                 0.710
REMARK  Name = 62155287
REMARK  5 active torsions:
REMARK  status: ('A' for Active; 'I' for Inactive)
REMARK    1  A    between atoms: N_2  and  C_5
REMARK    2  A    between atoms: N_2  and  C_8
REMARK    3  A    between atoms: C_5  and  C_6
REMARK    4  A    between atoms: C_6  and  C_9
REMARK    5  A    between atoms: C_7  and  C_10
REMARK                            x       y       z     vdW  Elec       q    Type
REMARK                         _______ _______ _______ _____ _____    ______ ____
ROOT
ATOM      1  N   UNL     1     -19.200  39.571 -10.727  0.00  0.00    +0.000 NA
ATOM      2  N   UNL     1     -20.800  39.490  -8.964  0.00  0.00    +0.000 N 
ATOM      3  C   UNL     1     -17.560  41.347 -10.762  0.00  0.00    +0.000 A 
ATOM      4  C   UNL     1     -18.093  41.874  -9.592  0.00  0.00    +0.000 A 
ATOM      5  C   UNL     1     -18.144  40.204 -11.285  0.00  0.00    +0.000 A 
ATOM      6  C   UNL     1     -19.181  41.251  -8.989  0.00  0.00    +0.000 A 
ATOM      7  C   UNL     1     -19.693  40.113  -9.590  0.00  0.00    +0.000 A 
ATOM      8  H   UNL     1     -21.168  38.655  -9.403  0.00  0.00    +0.000 HD
ATOM      9  H   UNL     1     -20.906  39.590  -7.961  0.00  0.00    +0.000 HD
ENDROOT
BRANCH   3  12
ATOM     10  O   UNL     1     -15.304  41.505 -11.173  0.00  0.00    +0.000 OA
ATOM     11  N   UNL     1     -16.672  43.065 -12.293  0.00  0.00    +0.000 N 
ATOM     12  C   UNL     1     -16.409  41.982 -11.426  0.00  0.00    +0.000 C 
ATOM     13  C   UNL     1     -18.036  43.556 -12.524  0.00  0.00    +0.000 C 
BRANCH  11  14
ATOM     14  C   UNL     1     -15.619  43.744 -12.996  0.00  0.00    +0.000 C 
BRANCH  14  15
ATOM     15  C   UNL     1     -14.911  44.774 -12.125  0.00  0.00    +0.000 C 
ATOM     16  C   UNL     1     -15.290  46.205 -12.482  0.00  0.00    +0.000 C 
ENDBRANCH  14  15
ENDBRANCH  11  14
ENDBRANCH   3  12
TORSDOF 3
ENDMDL
MODEL 4
REMARK VINA RESULT:    -5.394      3.850      5.289
REMARK INTER + INTRA:          -5.630
REMARK INTER:                  -5.492
REMARK INTRA:                  -0.138
REMARK UNBOUND:                 0.710
REMARK  Name = 62155287
REMARK  5 active torsions:
REMARK  status: ('A' for Active; 'I' for Inactive)
REMARK    1  A    between atoms: N_2  and  C_5
REMARK    2  A    between atoms: N_2  and  C_8
REMARK    3  A    between atoms: C_5  and  C_6
REMARK    4  A    between atoms: C_6  and  C_9
REMARK    5  A    between atoms: C_7  and  C_10
REMARK                            x       y       z     vdW  Elec       q    Type
REMARK                         _______ _______ _______ _____ _____    ______ ____
ROOT
ATOM      1  N   UNL     1     -19.037  40.663 -13.289  0.00  0.00    +0.000 NA
ATOM      2  N   UNL     1     -19.401  38.894 -11.735  0.00  0.00    +0.000 N 
ATOM      3  C   UNL     1     -18.277  42.813 -12.487  0.00  0.00    +0.000 A 
ATOM      4  C   UNL     1     -18.270  42.333 -11.182  0.00  0.00    +0.000 A 
ATOM      5  C   UNL     1     -18.664  41.946 -13.496  0.00  0.00    +0.000 A 
ATOM      6  C   UNL     1     -18.647  41.018 -10.930  0.00  0.00    +0.000 A 
ATOM      7  C   UNL     1     -19.019  40.231 -12.008  0.00  0.00    +0.000 A 
ATOM      8  H   UNL     1     -19.666  38.321 -12.526  0.00  0.00    +0.000 HD
ATOM      9  H   UNL     1     -19.006  38.437 -10.922  0.00  0.00    +0.000 HD
ENDROOT
BRANCH   3  12
ATOM     10  O   UNL     1     -18.796  45.017 -12.881  0.00  0.00    +0.000 OA
ATOM     11  N   UNL     1     -16.503  44.469 -12.931  0.00  0.00    +0.000 N 
ATOM     12  C   UNL     1     -17.882  44.199 -12.788  0.00  0.00    +0.000 C 
ATOM     13  C   UNL     1     -15.492  43.414 -12.799  0.00  0.00    +0.000 C 
BRANCH  11  14
ATOM     14  C   UNL     1     -16.017  45.791 -13.213  0.00  0.00    +0.000 C 
BRANCH  14  15
ATOM     15  C   UNL     1     -15.579  46.529 -11.953  0.00  0.00    +0.000 C 
ATOM     16  C   UNL     1     -16.649  47.474 -11.424  0.00  0.00    +0.000 C 
ENDBRANCH  14  15
ENDBRANCH  11  14
ENDBRANCH   3  12
TORSDOF 3
ENDMDL
MODEL 5
REMARK VINA RESULT:    -5.258      2.810      5.844
REMARK INTER + INTRA:          -5.470
REMARK INTER:                  -5.477
REMARK INTRA:                   0.007
REMARK UNBOUND:                 0.710
REMARK  Name = 62155287
REMARK  5 active torsions:
REMARK  status: ('A' for Active; 'I' for Inactive)
REMARK    1  A    between atoms: N_2  and  C_5
REMARK    2  A    between atoms: N_2  and  C_8
REMARK    3  A    between atoms: C_5  and  C_6
REMARK    4  A    between atoms: C_6  and  C_9
REMARK    5  A    between atoms: C_7  and  C_10
REMARK                            x       y       z     vdW  Elec       q    Type
REMARK                         _______ _______ _______ _____ _____    ______ ____
ROOT
ATOM      1  N   UNL     1     -16.133  44.522 -13.565  0.00  0.00    +0.000 NA
ATOM      2  N   UNL     1     -16.675  46.711 -14.334  0.00  0.00    +0.000 N 
ATOM      3  C   UNL     1     -17.910  43.003 -12.955  0.00  0.00    +0.000 A 
ATOM      4  C   UNL     1     -18.858  43.970 -13.271  0.00  0.00    +0.000 A 
ATOM      5  C   UNL     1     -16.573  43.325 -13.118  0.00  0.00    +0.000 A 
ATOM      6  C   UNL     1     -18.443  45.214 -13.733  0.00  0.00    +0.000 A 
ATOM      7  C   UNL     1     -17.081  45.439 -13.862  0.00  0.00    +0.000 A 
ATOM      8  H   UNL     1     -15.680  46.869 -14.432  0.00  0.00    +0.000 HD
ATOM      9  H   UNL     1     -17.304  47.223 -14.941  0.00  0.00    +0.000 HD
ENDROOT
BRANCH   3  12
ATOM     10  O   UNL     1     -18.685  40.869 -13.315  0.00  0.00    +0.000 OA
ATOM     11  N   UNL     1     -18.238  41.443 -11.072  0.00  0.00    +0.000 N 
ATOM     12  C   UNL     1     -18.316  41.676 -12.463  0.00  0.00    +0.000 C 
ATOM     13  C   UNL     1     -17.782  42.481 -10.140  0.00  0.00    +0.000 C 
BRANCH  11  14
ATOM     14  C   UNL     1     -18.600  40.178 -10.495  0.00  0.00    +0.000 C 
BRANCH  14  15
ATOM     15  C   UNL     1     -19.958  40.222  -9.805  0.00  0.00    +0.000 C 
ATOM     16  C   UNL     1     -19.846  40.261  -8.288  0.00  0.00    +0.000 C 
ENDBRANCH  14  15
ENDBRANCH  11  14
ENDBRANCH   3  12
TORSDOF 3
ENDMDL
