MODEL 1
REMARK VINA RESULT:    -5.204      0.000      0.000
REMARK INTER + INTRA:          -5.829
REMARK INTER:                  -5.661
REMARK INTRA:                  -0.169
REMARK UNBOUND:                -0.169
REMARK  Name = 62154320
REMARK  4 active torsions:
REMARK  status: ('A' for Active; 'I' for Inactive)
REMARK    1  A    between atoms: N_2  and  C_9
REMARK    2  A    between atoms: N_2  and  C_10
REMARK    3  A    between atoms: N_4  and  C_7
REMARK    4  A    between atoms: C_5  and  C_6
REMARK                            x       y       z     vdW  Elec       q    Type
REMARK                         _______ _______ _______ _____ _____    ______ ____
ROOT
ATOM      1  N   UNL     1     -20.722  40.249  -8.960  0.00  0.00    +0.000 NA
ATOM      2  C   UNL     1     -18.561  41.007  -9.735  0.00  0.00    +0.000 A 
ATOM      3  C   UNL     1     -19.696  40.219  -9.841  0.00  0.00    +0.000 A 
ATOM      4  C   UNL     1     -18.472  41.879  -8.657  0.00  0.00    +0.000 A 
ATOM      5  C   UNL     1     -19.507  41.939  -7.730  0.00  0.00    +0.000 A 
ATOM      6  C   UNL     1     -20.599  41.109  -7.925  0.00  0.00    +0.000 A 
ENDROOT
BRANCH   2   9
ATOM      7  O   UNL     1     -16.620  40.075 -10.539  0.00  0.00    +0.000 OA
ATOM      8  N   UNL     1     -17.460  41.882 -11.760  0.00  0.00    +0.000 N 
ATOM      9  C   UNL     1     -17.463  40.955 -10.713  0.00  0.00    +0.000 C 
ATOM     10  C   UNL     1     -16.424  41.896 -12.783  0.00  0.00    +0.000 C 
ATOM     11  C   UNL     1     -18.501  42.901 -11.900  0.00  0.00    +0.000 C 
ENDBRANCH   2   9
BRANCH   3  12
ATOM     12  N   UNL     1     -19.796  39.330 -10.939  0.00  0.00    +0.000 N 
ATOM     13  H   UNL     1     -19.538  38.360 -10.802  0.00  0.00    +0.000 HD
ATOM     14  H   UNL     1     -19.650  39.728 -11.859  0.00  0.00    +0.000 HD
ENDBRANCH   3  12
TORSDOF 2
ENDMDL
MODEL 2
REMARK VINA RESULT:    -4.960      1.950      2.644
REMARK INTER + INTRA:          -5.563
REMARK INTER:                  -5.397
REMARK INTRA:                  -0.166
REMARK UNBOUND:                -0.169
REMARK  Name = 62154320
REMARK  4 active torsions:
REMARK  status: ('A' for Active; 'I' for Inactive)
REMARK    1  A    between atoms: N_2  and  C_9
REMARK    2  A    between atoms: N_2  and  C_10
REMARK    3  A    between atoms: N_4  and  C_7
REMARK    4  A    between atoms: C_5  and  C_6
REMARK                            x       y       z     vdW  Elec       q    Type
REMARK                         _______ _______ _______ _____ _____    ______ ____
ROOT
ATOM      1  N   UNL     1     -18.452  39.317 -11.503  0.00  0.00    +0.000 NA
ATOM      2  C   UNL     1     -17.270  41.420 -11.340  0.00  0.00    +0.000 A 
ATOM      3  C   UNL     1     -17.488  40.175 -11.909  0.00  0.00    +0.000 A 
ATOM      4  C   UNL     1     -18.093  41.809 -10.289  0.00  0.00    +0.000 A 
ATOM      5  C   UNL     1     -19.095  40.954  -9.844  0.00  0.00    +0.000 A 
ATOM      6  C   UNL     1     -19.231  39.730 -10.479  0.00  0.00    +0.000 A 
ENDROOT
BRANCH   2   9
ATOM      7  O   UNL     1     -15.100  42.174 -11.313  0.00  0.00    +0.000 OA
ATOM      8  N   UNL     1     -16.545  43.294 -12.770  0.00  0.00    +0.000 N 
ATOM      9  C   UNL     1     -16.216  42.334 -11.807  0.00  0.00    +0.000 C 
ATOM     10  C   UNL     1     -15.564  44.229 -13.301  0.00  0.00    +0.000 C 
ATOM     11  C   UNL     1     -17.898  43.421 -13.309  0.00  0.00    +0.000 C 
ENDBRANCH   2   9
BRANCH   3  12
ATOM     12  N   UNL     1     -16.656  39.773 -12.982  0.00  0.00    +0.000 N 
ATOM     13  H   UNL     1     -16.616  38.789 -13.221  0.00  0.00    +0.000 HD
ATOM     14  H   UNL     1     -15.825  40.329 -13.144  0.00  0.00    +0.000 HD
ENDBRANCH   3  12
TORSDOF 2
ENDMDL
MODEL 3
REMARK VINA RESULT:    -4.771      2.016      4.654
REMARK INTER + INTRA:          -5.358
REMARK INTER:                  -5.200
REMARK INTRA:                  -0.158
REMARK UNBOUND:                -0.169
REMARK  Name = 62154320
REMARK  4 active torsions:
REMARK  status: ('A' for Active; 'I' for Inactive)
REMARK    1  A    between atoms: N_2  and  C_9
REMARK    2  A    between atoms: N_2  and  C_10
REMARK    3  A    between atoms: N_4  and  C_7
REMARK    4  A    between atoms: C_5  and  C_6
REMARK                            x       y       z     vdW  Elec       q    Type
REMARK                         _______ _______ _______ _____ _____    ______ ____
ROOT
ATOM      1  N   UNL     1     -15.374  43.194 -12.685  0.00  0.00    +0.000 NA
ATOM      2  C   UNL     1     -17.318  42.932 -11.270  0.00  0.00    +0.000 A 
ATOM      3  C   UNL     1     -16.078  42.529 -11.741  0.00  0.00    +0.000 A 
ATOM      4  C   UNL     1     -17.871  44.091 -11.803  0.00  0.00    +0.000 A 
ATOM      5  C   UNL     1     -17.177  44.803 -12.775  0.00  0.00    +0.000 A 
ATOM      6  C   UNL     1     -15.945  44.316 -13.179  0.00  0.00    +0.000 A 
ENDROOT
BRANCH   2   9
ATOM      7  O   UNL     1     -17.813  42.490  -9.070  0.00  0.00    +0.000 OA
ATOM      8  N   UNL     1     -18.979  41.220 -10.648  0.00  0.00    +0.000 N 
ATOM      9  C   UNL     1     -18.058  42.189 -10.238  0.00  0.00    +0.000 C 
ATOM     10  C   UNL     1     -19.767  40.447  -9.699  0.00  0.00    +0.000 C 
ATOM     11  C   UNL     1     -19.215  40.918 -12.059  0.00  0.00    +0.000 C 
ENDBRANCH   2   9
BRANCH   3  12
ATOM     12  N   UNL     1     -15.507  41.350 -11.201  0.00  0.00    +0.000 N 
ATOM     13  H   UNL     1     -15.042  41.404 -10.303  0.00  0.00    +0.000 HD
ATOM     14  H   UNL     1     -15.161  40.669 -11.868  0.00  0.00    +0.000 HD
ENDBRANCH   3  12
TORSDOF 2
ENDMDL
MODEL 4
REMARK VINA RESULT:    -4.566      1.999      2.605
REMARK INTER + INTRA:          -5.135
REMARK INTER:                  -5.038
REMARK INTRA:                  -0.096
REMARK UNBOUND:                -0.169
REMARK  Name = 62154320
REMARK  4 active torsions:
REMARK  status: ('A' for Active; 'I' for Inactive)
REMARK    1  A    between atoms: N_2  and  C_9
REMARK    2  A    between atoms: N_2  and  C_10
REMARK    3  A    between atoms: N_4  and  C_7
REMARK    4  A    between atoms: C_5  and  C_6
REMARK                            x       y       z     vdW  Elec       q    Type
REMARK                         _______ _______ _______ _____ _____    ______ ____
ROOT
ATOM      1  N   UNL     1     -19.233  39.871 -10.925  0.00  0.00    +0.000 NA
ATOM      2  C   UNL     1     -18.200  42.030 -11.273  0.00  0.00    +0.000 A 
ATOM      3  C   UNL     1     -18.752  40.845 -11.732  0.00  0.00    +0.000 A 
ATOM      4  C   UNL     1     -18.135  42.229  -9.899  0.00  0.00    +0.000 A 
ATOM      5  C   UNL     1     -18.619  41.251  -9.037  0.00  0.00    +0.000 A 
ATOM      6  C   UNL     1     -19.152  40.101  -9.595  0.00  0.00    +0.000 A 
ENDROOT
BRANCH   2   9
ATOM      7  O   UNL     1     -18.537  43.737 -12.775  0.00  0.00    +0.000 OA
ATOM      8  N   UNL     1     -16.306  43.244 -12.283  0.00  0.00    +0.000 N 
ATOM      9  C   UNL     1     -17.690  43.073 -12.177  0.00  0.00    +0.000 C 
ATOM     10  C   UNL     1     -15.712  44.260 -13.139  0.00  0.00    +0.000 C 
ATOM     11  C   UNL     1     -15.361  42.412 -11.538  0.00  0.00    +0.000 C 
ENDBRANCH   2   9
BRANCH   3  12
ATOM     12  N   UNL     1     -18.825  40.636 -13.132  0.00  0.00    +0.000 N 
ATOM     13  H   UNL     1     -18.496  41.368 -13.749  0.00  0.00    +0.000 HD
ATOM     14  H   UNL     1     -19.582  40.049 -13.463  0.00  0.00    +0.000 HD
ENDBRANCH   3  12
TORSDOF 2
ENDMDL
MODEL 5
REMARK VINA RESULT:    -4.442      2.349      4.944
REMARK INTER + INTRA:          -5.000
REMARK INTER:                  -4.904
REMARK INTRA:                  -0.096
REMARK UNBOUND:                -0.169
REMARK  Name = 62154320
REMARK  4 active torsions:
REMARK  status: ('A' for Active; 'I' for Inactive)
REMARK    1  A    between atoms: N_2  and  C_9
REMARK    2  A    between atoms: N_2  and  C_10
REMARK    3  A    between atoms: N_4  and  C_7
REMARK    4  A    between atoms: C_5  and  C_6
REMARK                            x       y       z     vdW  Elec       q    Type
REMARK                         _______ _______ _______ _____ _____    ______ ____
ROOT
ATOM      1  N   UNL     1     -17.832  44.886 -13.810  0.00  0.00    +0.000 NA
ATOM      2  C   UNL     1     -17.725  42.645 -12.907  0.00  0.00    +0.000 A 
ATOM      3  C   UNL     1     -18.417  43.728 -13.428  0.00  0.00    +0.000 A 
ATOM      4  C   UNL     1     -16.346  42.760 -12.768  0.00  0.00    +0.000 A 
ATOM      5  C   UNL     1     -15.709  43.935 -13.150  0.00  0.00    +0.000 A 
ATOM      6  C   UNL     1     -16.491  44.960 -13.659  0.00  0.00    +0.000 A 
ENDROOT
BRANCH   2   9
ATOM      7  O   UNL     1     -18.776  40.667 -13.418  0.00  0.00    +0.000 OA
ATOM      8  N   UNL     1     -18.519  41.121 -11.140  0.00  0.00    +0.000 N 
ATOM      9  C   UNL     1     -18.389  41.396 -12.505  0.00  0.00    +0.000 C 
ATOM     10  C   UNL     1     -19.147  39.903 -10.649  0.00  0.00    +0.000 C 
ATOM     11  C   UNL     1     -18.032  42.040 -10.112  0.00  0.00    +0.000 C 
ENDBRANCH   2   9
BRANCH   3  12
ATOM     12  N   UNL     1     -19.821  43.618 -13.576  0.00  0.00    +0.000 N 
ATOM     13  H   UNL     1     -20.372  43.333 -12.775  0.00  0.00    +0.000 HD
ATOM     14  H   UNL     1     -20.161  43.359 -14.495  0.00  0.00    +0.000 HD
ENDBRANCH   3  12
TORSDOF 2
ENDMDL
