MODEL 1
REMARK VINA RESULT:    -6.026      0.000      0.000
REMARK INTER + INTRA:          -8.333
REMARK INTER:                  -7.611
REMARK INTRA:                  -0.721
REMARK UNBOUND:                -0.721
REMARK  Name = 62161692
REMARK  5 active torsions:
REMARK  status: ('A' for Active; 'I' for Inactive)
REMARK    1  A    between atoms: N_5  and  C_8
REMARK    2  A    between atoms: N_5  and  C_11
REMARK    3  A    between atoms: N_7  and  C_15
REMARK    4  A    between atoms: C_11  and  C_13
REMARK    5  A    between atoms: C_12  and  C_14
REMARK                            x       y       z     vdW  Elec       q    Type
REMARK                         _______ _______ _______ _____ _____    ______ ____
ROOT
ATOM      1  O   UNL     1     -17.710  42.827  -9.047  0.00  0.00    +0.000 OA
ATOM      2  N   UNL     1     -18.238  40.983 -10.385  0.00  0.00    +0.000 N 
ATOM      3  C   UNL     1     -17.742  42.268 -10.141  0.00  0.00    +0.000 C 
ENDROOT
BRANCH   3   5
ATOM      4  N   UNL     1     -15.368  43.576 -12.759  0.00  0.00    +0.000 NA
ATOM      5  C   UNL     1     -17.201  43.024 -11.283  0.00  0.00    +0.000 A 
ATOM      6  C   UNL     1     -15.892  42.892 -11.717  0.00  0.00    +0.000 A 
ATOM      7  C   UNL     1     -18.025  43.915 -11.961  0.00  0.00    +0.000 A 
ATOM      8  C   UNL     1     -17.522  44.635 -13.039  0.00  0.00    +0.000 A 
ATOM      9  C   UNL     1     -16.199  44.432 -13.394  0.00  0.00    +0.000 A 
BRANCH   6  10
ATOM     10  N   UNL     1     -15.045  41.989 -11.028  0.00  0.00    +0.000 N 
ATOM     11  H   UNL     1     -14.044  42.138 -11.069  0.00  0.00    +0.000 HD
ATOM     12  H   UNL     1     -15.374  41.035 -10.944  0.00  0.00    +0.000 HD
ENDBRANCH   6  10
ENDBRANCH   3   5
BRANCH   2  13
ATOM     13  C   UNL     1     -18.258  40.357 -11.692  0.00  0.00    +0.000 C 
ATOM     14  C   UNL     1     -19.389  40.595 -12.649  0.00  0.00    +0.000 C 
ATOM     15  C   UNL     1     -19.218  39.248 -12.009  0.00  0.00    +0.000 C 
ENDBRANCH   2  13
BRANCH   2  16
ATOM     16  C   UNL     1     -18.714  40.165  -9.276  0.00  0.00    +0.000 C 
BRANCH  16  20
ATOM     17  F   UNL     1     -20.705  41.332  -9.784  0.00  0.00    +0.000 F 
ATOM     18  F   UNL     1     -20.876  39.450  -8.694  0.00  0.00    +0.000 F 
ATOM     19  F   UNL     1     -20.102  41.222  -7.685  0.00  0.00    +0.000 F 
ATOM     20  C   UNL     1     -20.109  40.551  -8.857  0.00  0.00    +0.000 C 
ENDBRANCH  16  20
ENDBRANCH   2  16
TORSDOF 5
ENDMDL
MODEL 2
REMARK VINA RESULT:    -5.976      3.189      5.279
REMARK INTER + INTRA:          -8.270
REMARK INTER:                  -7.527
REMARK INTRA:                  -0.743
REMARK UNBOUND:                -0.721
REMARK  Name = 62161692
REMARK  5 active torsions:
REMARK  status: ('A' for Active; 'I' for Inactive)
REMARK    1  A    between atoms: N_5  and  C_8
REMARK    2  A    between atoms: N_5  and  C_11
REMARK    3  A    between atoms: N_7  and  C_15
REMARK    4  A    between atoms: C_11  and  C_13
REMARK    5  A    between atoms: C_12  and  C_14
REMARK                            x       y       z     vdW  Elec       q    Type
REMARK                         _______ _______ _______ _____ _____    ______ ____
ROOT
ATOM      1  O   UNL     1     -16.254  40.572 -10.854  0.00  0.00    +0.000 OA
ATOM      2  N   UNL     1     -17.505  42.118 -12.085  0.00  0.00    +0.000 N 
ATOM      3  C   UNL     1     -17.286  41.214 -11.040  0.00  0.00    +0.000 C 
ENDROOT
BRANCH   3   5
ATOM      4  N   UNL     1     -20.375  39.855  -9.364  0.00  0.00    +0.000 NA
ATOM      5  C   UNL     1     -18.372  41.012 -10.067  0.00  0.00    +0.000 A 
ATOM      6  C   UNL     1     -19.364  40.060 -10.238  0.00  0.00    +0.000 A 
ATOM      7  C   UNL     1     -18.422  41.806  -8.927  0.00  0.00    +0.000 A 
ATOM      8  C   UNL     1     -19.446  41.624  -8.004  0.00  0.00    +0.000 A 
ATOM      9  C   UNL     1     -20.390  40.645  -8.267  0.00  0.00    +0.000 A 
BRANCH   6  10
ATOM     10  N   UNL     1     -19.323  39.249 -11.400  0.00  0.00    +0.000 N 
ATOM     11  H   UNL     1     -20.193  39.038 -11.873  0.00  0.00    +0.000 HD
ATOM     12  H   UNL     1     -18.586  38.556 -11.442  0.00  0.00    +0.000 HD
ENDBRANCH   6  10
ENDBRANCH   3   5
BRANCH   2  13
ATOM     13  C   UNL     1     -18.738  42.858 -12.271  0.00  0.00    +0.000 C 
ATOM     14  C   UNL     1     -19.690  42.513 -13.378  0.00  0.00    +0.000 C 
ATOM     15  C   UNL     1     -18.915  43.797 -13.429  0.00  0.00    +0.000 C 
ENDBRANCH   2  13
BRANCH   2  16
ATOM     16  C   UNL     1     -16.435  42.411 -13.030  0.00  0.00    +0.000 C 
BRANCH  16  20
ATOM     17  F   UNL     1     -14.419  42.954 -11.922  0.00  0.00    +0.000 F 
ATOM     18  F   UNL     1     -15.090  44.275 -13.523  0.00  0.00    +0.000 F 
ATOM     19  F   UNL     1     -16.134  44.274 -11.608  0.00  0.00    +0.000 F 
ATOM     20  C   UNL     1     -15.512  43.484 -12.511  0.00  0.00    +0.000 C 
ENDBRANCH  16  20
ENDBRANCH   2  16
TORSDOF 5
ENDMDL
MODEL 3
REMARK VINA RESULT:    -5.616      2.131      2.811
REMARK INTER + INTRA:          -7.815
REMARK INTER:                  -7.160
REMARK INTRA:                  -0.655
REMARK UNBOUND:                -0.721
REMARK  Name = 62161692
REMARK  5 active torsions:
REMARK  status: ('A' for Active; 'I' for Inactive)
REMARK    1  A    between atoms: N_5  and  C_8
REMARK    2  A    between atoms: N_5  and  C_11
REMARK    3  A    between atoms: N_7  and  C_15
REMARK    4  A    between atoms: C_11  and  C_13
REMARK    5  A    between atoms: C_12  and  C_14
REMARK                            x       y       z     vdW  Elec       q    Type
REMARK                         _______ _______ _______ _____ _____    ______ ____
ROOT
ATOM      1  O   UNL     1     -17.797  42.311  -9.988  0.00  0.00    +0.000 OA
ATOM      2  N   UNL     1     -18.458  42.211 -12.230  0.00  0.00    +0.000 N 
ATOM      3  C   UNL     1     -17.668  42.650 -11.162  0.00  0.00    +0.000 C 
ENDROOT
BRANCH   3   5
ATOM      4  N   UNL     1     -14.230  44.051 -11.812  0.00  0.00    +0.000 NA
ATOM      5  C   UNL     1     -16.578  43.595 -11.458  0.00  0.00    +0.000 A 
ATOM      6  C   UNL     1     -15.251  43.206 -11.546  0.00  0.00    +0.000 A 
ATOM      7  C   UNL     1     -16.876  44.938 -11.655  0.00  0.00    +0.000 A 
ATOM      8  C   UNL     1     -15.852  45.838 -11.932  0.00  0.00    +0.000 A 
ATOM      9  C   UNL     1     -14.558  45.349 -11.998  0.00  0.00    +0.000 A 
BRANCH   6  10
ATOM     10  N   UNL     1     -14.938  41.838 -11.343  0.00  0.00    +0.000 N 
ATOM     11  H   UNL     1     -14.301  41.387 -11.988  0.00  0.00    +0.000 HD
ATOM     12  H   UNL     1     -15.660  41.267 -10.920  0.00  0.00    +0.000 HD
ENDBRANCH   6  10
ENDBRANCH   3   5
BRANCH   2  13
ATOM     13  C   UNL     1     -18.274  42.636 -13.604  0.00  0.00    +0.000 C 
ATOM     14  C   UNL     1     -18.958  43.860 -14.136  0.00  0.00    +0.000 C 
ATOM     15  C   UNL     1     -19.374  42.500 -14.615  0.00  0.00    +0.000 C 
ENDBRANCH   2  13
BRANCH   2  16
ATOM     16  C   UNL     1     -19.500  41.218 -12.002  0.00  0.00    +0.000 C 
BRANCH  16  20
ATOM     17  F   UNL     1     -18.817  39.343 -10.736  0.00  0.00    +0.000 F 
ATOM     18  F   UNL     1     -19.761  38.979 -12.668  0.00  0.00    +0.000 F 
ATOM     19  F   UNL     1     -17.729  39.767 -12.585  0.00  0.00    +0.000 F 
ATOM     20  C   UNL     1     -18.943  39.818 -11.994  0.00  0.00    +0.000 C 
ENDBRANCH  16  20
ENDBRANCH   2  16
TORSDOF 5
ENDMDL
MODEL 4
REMARK VINA RESULT:    -5.367      2.543      3.548
REMARK INTER + INTRA:          -7.500
REMARK INTER:                  -6.913
REMARK INTRA:                  -0.587
REMARK UNBOUND:                -0.721
REMARK  Name = 62161692
REMARK  5 active torsions:
REMARK  status: ('A' for Active; 'I' for Inactive)
REMARK    1  A    between atoms: N_5  and  C_8
REMARK    2  A    between atoms: N_5  and  C_11
REMARK    3  A    between atoms: N_7  and  C_15
REMARK    4  A    between atoms: C_11  and  C_13
REMARK    5  A    between atoms: C_12  and  C_14
REMARK                            x       y       z     vdW  Elec       q    Type
REMARK                         _______ _______ _______ _____ _____    ______ ____
ROOT
ATOM      1  O   UNL     1     -18.803  42.692 -13.861  0.00  0.00    +0.000 OA
ATOM      2  N   UNL     1     -18.439  41.822 -11.721  0.00  0.00    +0.000 N 
ATOM      3  C   UNL     1     -18.206  42.697 -12.787  0.00  0.00    +0.000 C 
ENDROOT
BRANCH   3   5
ATOM      4  N   UNL     1     -16.516  46.036 -12.340  0.00  0.00    +0.000 NA
ATOM      5  C   UNL     1     -17.163  43.724 -12.618  0.00  0.00    +0.000 A 
ATOM      6  C   UNL     1     -17.452  45.072 -12.492  0.00  0.00    +0.000 A 
ATOM      7  C   UNL     1     -15.828  43.339 -12.587  0.00  0.00    +0.000 A 
ATOM      8  C   UNL     1     -14.836  44.301 -12.431  0.00  0.00    +0.000 A 
ATOM      9  C   UNL     1     -15.229  45.624 -12.314  0.00  0.00    +0.000 A 
BRANCH   6  10
ATOM     10  N   UNL     1     -18.811  45.474 -12.527  0.00  0.00    +0.000 N 
ATOM     11  H   UNL     1     -19.145  45.984 -13.336  0.00  0.00    +0.000 HD
ATOM     12  H   UNL     1     -19.247  45.673 -11.635  0.00  0.00    +0.000 HD
ENDBRANCH   6  10
ENDBRANCH   3   5
BRANCH   2  13
ATOM     13  C   UNL     1     -17.712  41.860 -10.467  0.00  0.00    +0.000 C 
ATOM     14  C   UNL     1     -18.344  41.393  -9.189  0.00  0.00    +0.000 C 
ATOM     15  C   UNL     1     -18.059  42.852  -9.396  0.00  0.00    +0.000 C 
ENDBRANCH   2  13
BRANCH   2  16
ATOM     16  C   UNL     1     -19.511  40.839 -11.809  0.00  0.00    +0.000 C 
BRANCH  16  20
ATOM     17  F   UNL     1     -18.152  38.958 -11.363  0.00  0.00    +0.000 F 
ATOM     18  F   UNL     1     -20.025  38.632 -12.433  0.00  0.00    +0.000 F 
ATOM     19  F   UNL     1     -18.350  39.593 -13.446  0.00  0.00    +0.000 F 
ATOM     20  C   UNL     1     -19.000  39.497 -12.266  0.00  0.00    +0.000 C 
ENDBRANCH  16  20
ENDBRANCH   2  16
TORSDOF 5
ENDMDL
MODEL 5
REMARK VINA RESULT:    -5.161      2.502      3.532
REMARK INTER + INTRA:          -7.240
REMARK INTER:                  -6.418
REMARK INTRA:                  -0.821
REMARK UNBOUND:                -0.721
REMARK  Name = 62161692
REMARK  5 active torsions:
REMARK  status: ('A' for Active; 'I' for Inactive)
REMARK    1  A    between atoms: N_5  and  C_8
REMARK    2  A    between atoms: N_5  and  C_11
REMARK    3  A    between atoms: N_7  and  C_15
REMARK    4  A    between atoms: C_11  and  C_13
REMARK    5  A    between atoms: C_12  and  C_14
REMARK                            x       y       z     vdW  Elec       q    Type
REMARK                         _______ _______ _______ _____ _____    ______ ____
ROOT
ATOM      1  O   UNL     1     -16.002  42.727 -12.004  0.00  0.00    +0.000 OA
ATOM      2  N   UNL     1     -18.079  42.710 -13.079  0.00  0.00    +0.000 N 
ATOM      3  C   UNL     1     -16.978  43.315 -12.465  0.00  0.00    +0.000 C 
ENDROOT
BRANCH   3   5
ATOM      4  N   UNL     1     -16.236  46.942 -13.169  0.00  0.00    +0.000 NA
ATOM      5  C   UNL     1     -16.969  44.784 -12.363  0.00  0.00    +0.000 A 
ATOM      6  C   UNL     1     -16.265  45.592 -13.240  0.00  0.00    +0.000 A 
ATOM      7  C   UNL     1     -17.690  45.400 -11.347  0.00  0.00    +0.000 A 
ATOM      8  C   UNL     1     -17.685  46.787 -11.241  0.00  0.00    +0.000 A 
ATOM      9  C   UNL     1     -16.948  47.506 -12.168  0.00  0.00    +0.000 A 
BRANCH   6  10
ATOM     10  N   UNL     1     -15.524  44.972 -14.277  0.00  0.00    +0.000 N 
ATOM     11  H   UNL     1     -14.543  45.204 -14.377  0.00  0.00    +0.000 HD
ATOM     12  H   UNL     1     -16.036  44.730 -15.117  0.00  0.00    +0.000 HD
ENDBRANCH   6  10
ENDBRANCH   3   5
BRANCH   2  13
ATOM     13  C   UNL     1     -19.213  43.440 -13.612  0.00  0.00    +0.000 C 
ATOM     14  C   UNL     1     -20.094  42.842 -14.669  0.00  0.00    +0.000 C 
ATOM     15  C   UNL     1     -19.194  43.995 -15.006  0.00  0.00    +0.000 C 
ENDBRANCH   2  13
BRANCH   2  16
ATOM     16  C   UNL     1     -18.100  41.265 -13.273  0.00  0.00    +0.000 C 
BRANCH  16  20
ATOM     17  F   UNL     1     -19.594  39.612 -12.485  0.00  0.00    +0.000 F 
ATOM     18  F   UNL     1     -17.750  39.937 -11.366  0.00  0.00    +0.000 F 
ATOM     19  F   UNL     1     -19.351  41.416 -11.275  0.00  0.00    +0.000 F 
ATOM     20  C   UNL     1     -18.709  40.554 -12.092  0.00  0.00    +0.000 C 
ENDBRANCH  16  20
ENDBRANCH   2  16
TORSDOF 5
ENDMDL
