MODEL 1
REMARK VINA RESULT:    -7.276      0.000      0.000
REMARK INTER + INTRA:          -7.243
REMARK INTER:                  -7.702
REMARK INTRA:                   0.458
REMARK UNBOUND:                 0.458
REMARK  Name = 62160659
REMARK  2 active torsions:
REMARK  status: ('A' for Active; 'I' for Inactive)
REMARK    1  A    between atoms: C_5  and  C_9
REMARK    2  A    between atoms: C_10  and  C_11
REMARK                            x       y       z     vdW  Elec       q    Type
REMARK                         _______ _______ _______ _____ _____    ______ ____
ROOT
ATOM      1  N   UNL     1     -19.224  42.271  -7.198  0.00  0.00    +0.000 NA
ATOM      2  N   UNL     1     -21.113  42.454  -5.756  0.00  0.00    +0.000 N 
ATOM      3  C   UNL     1     -19.402  40.979  -9.233  0.00  0.00    +0.000 A 
ATOM      4  C   UNL     1     -20.727  40.677  -8.934  0.00  0.00    +0.000 A 
ATOM      5  C   UNL     1     -18.701  41.772  -8.340  0.00  0.00    +0.000 A 
ATOM      6  C   UNL     1     -21.300  41.172  -7.768  0.00  0.00    +0.000 A 
ATOM      7  C   UNL     1     -20.514  41.957  -6.941  0.00  0.00    +0.000 A 
ATOM      8  H   UNL     1     -20.535  43.031  -5.158  0.00  0.00    +0.000 HD
ATOM      9  H   UNL     1     -22.114  42.606  -5.749  0.00  0.00    +0.000 HD
ENDROOT
BRANCH   3  17
ATOM     10  O   UNL     1     -18.924  39.281 -10.725  0.00  0.00    +0.000 OA
ATOM     11  N   UNL     1     -18.028  41.366 -11.217  0.00  0.00    +0.000 N 
ATOM     12  C   UNL     1     -16.597  43.137 -11.847  0.00  0.00    +0.000 C 
ATOM     13  C   UNL     1     -16.873  42.256 -13.067  0.00  0.00    +0.000 C 
ATOM     14  C   UNL     1     -17.742  42.767 -10.905  0.00  0.00    +0.000 C 
ATOM     15  C   UNL     1     -17.351  40.955 -12.438  0.00  0.00    +0.000 C 
ATOM     16  C   UNL     1     -16.541  44.618 -12.176  0.00  0.00    +0.000 C 
ATOM     17  C   UNL     1     -18.767  40.470 -10.458  0.00  0.00    +0.000 C 
ENDBRANCH   3  17
TORSDOF 1
ENDMDL
MODEL 2
REMARK VINA RESULT:    -6.175      1.772      2.436
REMARK INTER + INTRA:          -6.078
REMARK INTER:                  -6.114
REMARK INTRA:                   0.036
REMARK UNBOUND:                 0.458
REMARK  Name = 62160659
REMARK  2 active torsions:
REMARK  status: ('A' for Active; 'I' for Inactive)
REMARK    1  A    between atoms: C_5  and  C_9
REMARK    2  A    between atoms: C_10  and  C_11
REMARK                            x       y       z     vdW  Elec       q    Type
REMARK                         _______ _______ _______ _____ _____    ______ ____
ROOT
ATOM      1  N   UNL     1     -20.200  40.079  -9.914  0.00  0.00    +0.000 NA
ATOM      2  N   UNL     1     -21.516  40.474  -7.966  0.00  0.00    +0.000 N 
ATOM      3  C   UNL     1     -18.101  41.246 -10.187  0.00  0.00    +0.000 A 
ATOM      4  C   UNL     1     -18.294  41.894  -8.971  0.00  0.00    +0.000 A 
ATOM      5  C   UNL     1     -19.075  40.356 -10.609  0.00  0.00    +0.000 A 
ATOM      6  C   UNL     1     -19.440  41.635  -8.227  0.00  0.00    +0.000 A 
ATOM      7  C   UNL     1     -20.354  40.727  -8.737  0.00  0.00    +0.000 A 
ATOM      8  H   UNL     1     -22.178  39.805  -8.341  0.00  0.00    +0.000 HD
ATOM      9  H   UNL     1     -21.461  40.582  -6.962  0.00  0.00    +0.000 HD
ENDROOT
BRANCH   3  17
ATOM     10  O   UNL     1     -16.072  40.594 -11.080  0.00  0.00    +0.000 OA
ATOM     11  N   UNL     1     -16.783  42.742 -11.601  0.00  0.00    +0.000 N 
ATOM     12  C   UNL     1     -16.895  45.068 -12.005  0.00  0.00    +0.000 C 
ATOM     13  C   UNL     1     -15.999  44.416 -13.061  0.00  0.00    +0.000 C 
ATOM     14  C   UNL     1     -17.695  43.879 -11.472  0.00  0.00    +0.000 C 
ATOM     15  C   UNL     1     -15.626  43.091 -12.412  0.00  0.00    +0.000 C 
ATOM     16  C   UNL     1     -17.765  46.181 -12.559  0.00  0.00    +0.000 C 
ATOM     17  C   UNL     1     -16.900  41.499 -10.998  0.00  0.00    +0.000 C 
ENDBRANCH   3  17
TORSDOF 1
ENDMDL
MODEL 3
REMARK VINA RESULT:    -5.988      3.492      4.630
REMARK INTER + INTRA:          -5.880
REMARK INTER:                  -5.769
REMARK INTRA:                  -0.110
REMARK UNBOUND:                 0.458
REMARK  Name = 62160659
REMARK  2 active torsions:
REMARK  status: ('A' for Active; 'I' for Inactive)
REMARK    1  A    between atoms: C_5  and  C_9
REMARK    2  A    between atoms: C_10  and  C_11
REMARK                            x       y       z     vdW  Elec       q    Type
REMARK                         _______ _______ _______ _____ _____    ______ ____
ROOT
ATOM      1  N   UNL     1     -18.804  40.546 -13.133  0.00  0.00    +0.000 NA
ATOM      2  N   UNL     1     -19.598  38.744 -11.789  0.00  0.00    +0.000 N 
ATOM      3  C   UNL     1     -18.056  42.583 -12.068  0.00  0.00    +0.000 A 
ATOM      4  C   UNL     1     -18.344  42.045 -10.818  0.00  0.00    +0.000 A 
ATOM      5  C   UNL     1     -18.302  41.800 -13.184  0.00  0.00    +0.000 A 
ATOM      6  C   UNL     1     -18.861  40.757 -10.725  0.00  0.00    +0.000 A 
ATOM      7  C   UNL     1     -19.070  40.055 -11.901  0.00  0.00    +0.000 A 
ATOM      8  H   UNL     1     -19.744  38.234 -12.651  0.00  0.00    +0.000 HD
ATOM      9  H   UNL     1     -19.405  38.218 -10.946  0.00  0.00    +0.000 HD
ENDROOT
BRANCH   3  17
ATOM     10  O   UNL     1     -18.298  44.846 -12.471  0.00  0.00    +0.000 OA
ATOM     11  N   UNL     1     -16.144  44.104 -12.022  0.00  0.00    +0.000 N 
ATOM     12  C   UNL     1     -13.810  43.736 -12.056  0.00  0.00    +0.000 C 
ATOM     13  C   UNL     1     -14.084  45.186 -11.652  0.00  0.00    +0.000 C 
ATOM     14  C   UNL     1     -15.151  43.057 -11.780  0.00  0.00    +0.000 C 
ATOM     15  C   UNL     1     -15.507  45.407 -12.146  0.00  0.00    +0.000 C 
ATOM     16  C   UNL     1     -12.651  43.112 -11.301  0.00  0.00    +0.000 C 
ATOM     17  C   UNL     1     -17.509  43.942 -12.201  0.00  0.00    +0.000 C 
ENDBRANCH   3  17
TORSDOF 1
ENDMDL
MODEL 4
REMARK VINA RESULT:    -5.776      3.432      4.627
REMARK INTER + INTRA:          -5.656
REMARK INTER:                  -5.575
REMARK INTRA:                  -0.081
REMARK UNBOUND:                 0.458
REMARK  Name = 62160659
REMARK  2 active torsions:
REMARK  status: ('A' for Active; 'I' for Inactive)
REMARK    1  A    between atoms: C_5  and  C_9
REMARK    2  A    between atoms: C_10  and  C_11
REMARK                            x       y       z     vdW  Elec       q    Type
REMARK                         _______ _______ _______ _____ _____    ______ ____
ROOT
ATOM      1  N   UNL     1     -18.277  39.787 -13.020  0.00  0.00    +0.000 NA
ATOM      2  N   UNL     1     -19.968  38.660 -11.774  0.00  0.00    +0.000 N 
ATOM      3  C   UNL     1     -17.267  41.788 -12.115  0.00  0.00    +0.000 A 
ATOM      4  C   UNL     1     -18.070  41.690 -10.983  0.00  0.00    +0.000 A 
ATOM      5  C   UNL     1     -17.409  40.820 -13.096  0.00  0.00    +0.000 A 
ATOM      6  C   UNL     1     -18.975  40.640 -10.869  0.00  0.00    +0.000 A 
ATOM      7  C   UNL     1     -19.040  39.723 -11.906  0.00  0.00    +0.000 A 
ATOM      8  H   UNL     1     -20.007  37.990 -12.532  0.00  0.00    +0.000 HD
ATOM      9  H   UNL     1     -20.213  38.347 -10.843  0.00  0.00    +0.000 HD
ENDROOT
BRANCH   3  17
ATOM     10  O   UNL     1     -15.245  42.799 -11.642  0.00  0.00    +0.000 OA
ATOM     11  N   UNL     1     -16.653  43.942 -13.092  0.00  0.00    +0.000 N 
ATOM     12  C   UNL     1     -17.907  45.605 -14.209  0.00  0.00    +0.000 C 
ATOM     13  C   UNL     1     -16.415  45.871 -14.423  0.00  0.00    +0.000 C 
ATOM     14  C   UNL     1     -17.923  44.135 -13.792  0.00  0.00    +0.000 C 
ATOM     15  C   UNL     1     -15.769  45.081 -13.295  0.00  0.00    +0.000 C 
ATOM     16  C   UNL     1     -18.750  45.894 -15.437  0.00  0.00    +0.000 C 
ATOM     17  C   UNL     1     -16.300  42.886 -12.266  0.00  0.00    +0.000 C 
ENDBRANCH   3  17
TORSDOF 1
ENDMDL
MODEL 5
REMARK VINA RESULT:    -5.737     14.250     15.877
REMARK INTER + INTRA:          -5.614
REMARK INTER:                  -5.492
REMARK INTRA:                  -0.121
REMARK UNBOUND:                 0.458
REMARK  Name = 62160659
REMARK  2 active torsions:
REMARK  status: ('A' for Active; 'I' for Inactive)
REMARK    1  A    between atoms: C_5  and  C_9
REMARK    2  A    between atoms: C_10  and  C_11
REMARK                            x       y       z     vdW  Elec       q    Type
REMARK                         _______ _______ _______ _____ _____    ______ ____
ROOT
ATOM      1  N   UNL     1     -32.193  42.540 -19.461  0.00  0.00    +0.000 NA
ATOM      2  N   UNL     1     -31.806  40.458 -20.554  0.00  0.00    +0.000 N 
ATOM      3  C   UNL     1     -31.283  42.911 -17.252  0.00  0.00    +0.000 A 
ATOM      4  C   UNL     1     -30.725  41.636 -17.260  0.00  0.00    +0.000 A 
ATOM      5  C   UNL     1     -32.001  43.311 -18.367  0.00  0.00    +0.000 A 
ATOM      6  C   UNL     1     -30.901  40.814 -18.368  0.00  0.00    +0.000 A 
ATOM      7  C   UNL     1     -31.636  41.309 -19.433  0.00  0.00    +0.000 A 
ATOM      8  H   UNL     1     -32.339  40.827 -21.332  0.00  0.00    +0.000 HD
ATOM      9  H   UNL     1     -31.093  39.766 -20.746  0.00  0.00    +0.000 HD
ENDROOT
BRANCH   3  17
ATOM     10  O   UNL     1     -30.172  44.593 -16.123  0.00  0.00    +0.000 OA
ATOM     11  N   UNL     1     -32.025  43.686 -15.056  0.00  0.00    +0.000 N 
ATOM     12  C   UNL     1     -33.519  42.782 -13.465  0.00  0.00    +0.000 C 
ATOM     13  C   UNL     1     -33.225  44.240 -13.106  0.00  0.00    +0.000 C 
ATOM     14  C   UNL     1     -33.113  42.715 -14.937  0.00  0.00    +0.000 C 
ATOM     15  C   UNL     1     -31.935  44.516 -13.865  0.00  0.00    +0.000 C 
ATOM     16  C   UNL     1     -34.963  42.383 -13.219  0.00  0.00    +0.000 C 
ATOM     17  C   UNL     1     -31.115  43.805 -16.096  0.00  0.00    +0.000 C 
ENDBRANCH   3  17
TORSDOF 1
ENDMDL
