MODEL 1
REMARK VINA RESULT:    -7.271      0.000      0.000
REMARK INTER + INTRA:          -9.241
REMARK INTER:                  -9.396
REMARK INTRA:                   0.155
REMARK UNBOUND:                 0.155
REMARK  Name = 62160515
REMARK  6 active torsions:
REMARK  status: ('A' for Active; 'I' for Inactive)
REMARK    1  A    between atoms: N_5  and  C_8
REMARK    2  A    between atoms: N_5  and  C_9
REMARK    3  A    between atoms: C_8  and  C_10
REMARK    4  A    between atoms: C_9  and  C_12
REMARK    5  A    between atoms: C_10  and  C_13
REMARK    6  A    between atoms: C_11  and  C_14
REMARK                            x       y       z     vdW  Elec       q    Type
REMARK                         _______ _______ _______ _____ _____    ______ ____
ROOT
ATOM      1  O   UNL     1     -20.238  38.969  -9.538  0.00  0.00    +0.000 OA
ATOM      2  N   UNL     1     -18.683  40.627 -10.093  0.00  0.00    +0.000 N 
ATOM      3  C   UNL     1     -19.752  40.084  -9.352  0.00  0.00    +0.000 C 
ENDROOT
BRANCH   3   6
ATOM      4  N   UNL     1     -22.364  41.664  -7.168  0.00  0.00    +0.000 NA
ATOM      5  N   UNL     1     -22.171  43.138  -5.306  0.00  0.00    +0.000 N 
ATOM      6  C   UNL     1     -20.363  40.892  -8.284  0.00  0.00    +0.000 A 
ATOM      7  C   UNL     1     -19.578  41.627  -7.403  0.00  0.00    +0.000 A 
ATOM      8  C   UNL     1     -21.739  40.943  -8.125  0.00  0.00    +0.000 A 
ATOM      9  C   UNL     1     -20.184  42.381  -6.404  0.00  0.00    +0.000 A 
ATOM     10  C   UNL     1     -21.568  42.366  -6.330  0.00  0.00    +0.000 A 
ATOM     11  H   UNL     1     -21.647  43.303  -4.455  0.00  0.00    +0.000 HD
ATOM     12  H   UNL     1     -23.182  43.120  -5.252  0.00  0.00    +0.000 HD
ENDBRANCH   3   6
BRANCH   2  13
ATOM     13  C   UNL     1     -18.163  41.938  -9.822  0.00  0.00    +0.000 C 
BRANCH  13  14
ATOM     14  C   UNL     1     -17.152  42.388 -10.869  0.00  0.00    +0.000 C 
ATOM     15  C   UNL     1     -17.667  43.534 -11.729  0.00  0.00    +0.000 C 
ENDBRANCH  13  14
ENDBRANCH   2  13
BRANCH   2  16
ATOM     16  C   UNL     1     -18.039  39.882 -11.184  0.00  0.00    +0.000 C 
BRANCH  16  20
ATOM     17  F   UNL     1     -19.703  40.935 -12.468  0.00  0.00    +0.000 F 
ATOM     18  F   UNL     1     -18.154  39.840 -13.543  0.00  0.00    +0.000 F 
ATOM     19  F   UNL     1     -19.695  38.754 -12.438  0.00  0.00    +0.000 F 
ATOM     20  C   UNL     1     -18.902  39.848 -12.420  0.00  0.00    +0.000 C 
ENDBRANCH  16  20
ENDBRANCH   2  16
TORSDOF 5
ENDMDL
MODEL 2
REMARK VINA RESULT:    -6.444      3.054      5.632
REMARK INTER + INTRA:          -8.172
REMARK INTER:                  -7.773
REMARK INTRA:                  -0.399
REMARK UNBOUND:                 0.155
REMARK  Name = 62160515
REMARK  6 active torsions:
REMARK  status: ('A' for Active; 'I' for Inactive)
REMARK    1  A    between atoms: N_5  and  C_8
REMARK    2  A    between atoms: N_5  and  C_9
REMARK    3  A    between atoms: C_8  and  C_10
REMARK    4  A    between atoms: C_9  and  C_12
REMARK    5  A    between atoms: C_10  and  C_13
REMARK    6  A    between atoms: C_11  and  C_14
REMARK                            x       y       z     vdW  Elec       q    Type
REMARK                         _______ _______ _______ _____ _____    ______ ____
ROOT
ATOM      1  O   UNL     1     -18.060  43.027  -8.911  0.00  0.00    +0.000 OA
ATOM      2  N   UNL     1     -17.956  40.919  -9.920  0.00  0.00    +0.000 N 
ATOM      3  C   UNL     1     -17.754  42.312  -9.864  0.00  0.00    +0.000 C 
ENDROOT
BRANCH   3   6
ATOM      4  N   UNL     1     -17.446  44.345 -13.005  0.00  0.00    +0.000 NA
ATOM      5  N   UNL     1     -15.543  44.941 -14.308  0.00  0.00    +0.000 N 
ATOM      6  C   UNL     1     -17.152  42.993 -11.022  0.00  0.00    +0.000 A 
ATOM      7  C   UNL     1     -15.781  42.949 -11.246  0.00  0.00    +0.000 A 
ATOM      8  C   UNL     1     -17.934  43.699 -11.922  0.00  0.00    +0.000 A 
ATOM      9  C   UNL     1     -15.241  43.602 -12.349  0.00  0.00    +0.000 A 
ATOM     10  C   UNL     1     -16.108  44.280 -13.190  0.00  0.00    +0.000 A 
ATOM     11  H   UNL     1     -14.587  45.268 -14.242  0.00  0.00    +0.000 HD
ATOM     12  H   UNL     1     -16.180  45.439 -14.918  0.00  0.00    +0.000 HD
ENDBRANCH   3   6
BRANCH   2  13
ATOM     13  C   UNL     1     -17.575  40.144 -11.068  0.00  0.00    +0.000 C 
BRANCH  13  14
ATOM     14  C   UNL     1     -18.773  39.515 -11.768  0.00  0.00    +0.000 C 
ATOM     15  C   UNL     1     -19.490  40.488 -12.693  0.00  0.00    +0.000 C 
ENDBRANCH  13  14
ENDBRANCH   2  13
BRANCH   2  16
ATOM     16  C   UNL     1     -18.569  40.179  -8.808  0.00  0.00    +0.000 C 
BRANCH  16  20
ATOM     17  F   UNL     1     -20.297  41.153  -7.546  0.00  0.00    +0.000 F 
ATOM     18  F   UNL     1     -20.480  41.230  -9.716  0.00  0.00    +0.000 F 
ATOM     19  F   UNL     1     -20.773  39.339  -8.659  0.00  0.00    +0.000 F 
ATOM     20  C   UNL     1     -20.042  40.475  -8.686  0.00  0.00    +0.000 C 
ENDBRANCH  16  20
ENDBRANCH   2  16
TORSDOF 5
ENDMDL
MODEL 3
REMARK VINA RESULT:    -6.124      3.760      5.767
REMARK INTER + INTRA:          -7.759
REMARK INTER:                  -7.161
REMARK INTRA:                  -0.598
REMARK UNBOUND:                 0.155
REMARK  Name = 62160515
REMARK  6 active torsions:
REMARK  status: ('A' for Active; 'I' for Inactive)
REMARK    1  A    between atoms: N_5  and  C_8
REMARK    2  A    between atoms: N_5  and  C_9
REMARK    3  A    between atoms: C_8  and  C_10
REMARK    4  A    between atoms: C_9  and  C_12
REMARK    5  A    between atoms: C_10  and  C_13
REMARK    6  A    between atoms: C_11  and  C_14
REMARK                            x       y       z     vdW  Elec       q    Type
REMARK                         _______ _______ _______ _____ _____    ______ ____
ROOT
ATOM      1  O   UNL     1     -18.041  42.583  -9.908  0.00  0.00    +0.000 OA
ATOM      2  N   UNL     1     -18.588  41.958 -12.094  0.00  0.00    +0.000 N 
ATOM      3  C   UNL     1     -17.899  42.711 -11.123  0.00  0.00    +0.000 C 
ENDROOT
BRANCH   3   6
ATOM      4  N   UNL     1     -14.704  44.328 -12.248  0.00  0.00    +0.000 NA
ATOM      5  N   UNL     1     -14.201  46.589 -12.807  0.00  0.00    +0.000 N 
ATOM      6  C   UNL     1     -16.948  43.745 -11.563  0.00  0.00    +0.000 A 
ATOM      7  C   UNL     1     -17.347  45.068 -11.712  0.00  0.00    +0.000 A 
ATOM      8  C   UNL     1     -15.628  43.429 -11.842  0.00  0.00    +0.000 A 
ATOM      9  C   UNL     1     -16.425  46.023 -12.129  0.00  0.00    +0.000 A 
ATOM     10  C   UNL     1     -15.129  45.606 -12.382  0.00  0.00    +0.000 A 
ATOM     11  H   UNL     1     -14.551  47.396 -13.309  0.00  0.00    +0.000 HD
ATOM     12  H   UNL     1     -13.256  46.279 -12.996  0.00  0.00    +0.000 HD
ENDBRANCH   3   6
BRANCH   2  13
ATOM     13  C   UNL     1     -18.373  42.159 -13.501  0.00  0.00    +0.000 C 
BRANCH  13  14
ATOM     14  C   UNL     1     -19.532  42.893 -14.165  0.00  0.00    +0.000 C 
ATOM     15  C   UNL     1     -19.088  44.152 -14.896  0.00  0.00    +0.000 C 
ENDBRANCH  13  14
ENDBRANCH   2  13
BRANCH   2  16
ATOM     16  C   UNL     1     -19.564  40.923 -11.725  0.00  0.00    +0.000 C 
BRANCH  16  20
ATOM     17  F   UNL     1     -19.549  38.574 -11.654  0.00  0.00    +0.000 F 
ATOM     18  F   UNL     1     -17.618  39.584 -11.680  0.00  0.00    +0.000 F 
ATOM     19  F   UNL     1     -18.854  39.631  -9.878  0.00  0.00    +0.000 F 
ATOM     20  C   UNL     1     -18.887  39.671 -11.227  0.00  0.00    +0.000 C 
ENDBRANCH  16  20
ENDBRANCH   2  16
TORSDOF 5
ENDMDL
MODEL 4
REMARK VINA RESULT:    -6.115      3.023      5.625
REMARK INTER + INTRA:          -7.747
REMARK INTER:                  -7.442
REMARK INTRA:                  -0.305
REMARK UNBOUND:                 0.155
REMARK  Name = 62160515
REMARK  6 active torsions:
REMARK  status: ('A' for Active; 'I' for Inactive)
REMARK    1  A    between atoms: N_5  and  C_8
REMARK    2  A    between atoms: N_5  and  C_9
REMARK    3  A    between atoms: C_8  and  C_10
REMARK    4  A    between atoms: C_9  and  C_12
REMARK    5  A    between atoms: C_10  and  C_13
REMARK    6  A    between atoms: C_11  and  C_14
REMARK                            x       y       z     vdW  Elec       q    Type
REMARK                         _______ _______ _______ _____ _____    ______ ____
ROOT
ATOM      1  O   UNL     1     -18.719  42.544 -13.554  0.00  0.00    +0.000 OA
ATOM      2  N   UNL     1     -18.529  41.874 -11.321  0.00  0.00    +0.000 N 
ATOM      3  C   UNL     1     -18.228  42.683 -12.434  0.00  0.00    +0.000 C 
ENDROOT
BRANCH   3   6
ATOM      4  N   UNL     1     -14.954  44.517 -12.442  0.00  0.00    +0.000 NA
ATOM      5  N   UNL     1     -14.415  46.771 -11.886  0.00  0.00    +0.000 N 
ATOM      6  C   UNL     1     -17.247  43.770 -12.283  0.00  0.00    +0.000 A 
ATOM      7  C   UNL     1     -17.638  45.034 -11.858  0.00  0.00    +0.000 A 
ATOM      8  C   UNL     1     -15.905  43.564 -12.561  0.00  0.00    +0.000 A 
ATOM      9  C   UNL     1     -16.688  46.041 -11.724  0.00  0.00    +0.000 A 
ATOM     10  C   UNL     1     -15.371  45.734 -12.026  0.00  0.00    +0.000 A 
ATOM     11  H   UNL     1     -14.722  47.728 -12.002  0.00  0.00    +0.000 HD
ATOM     12  H   UNL     1     -13.455  46.544 -12.113  0.00  0.00    +0.000 HD
ENDBRANCH   3   6
BRANCH   2  13
ATOM     13  C   UNL     1     -17.919  42.093 -10.038  0.00  0.00    +0.000 C 
BRANCH  13  14
ATOM     14  C   UNL     1     -18.501  41.190  -8.958  0.00  0.00    +0.000 C 
ATOM     15  C   UNL     1     -19.257  41.966  -7.888  0.00  0.00    +0.000 C 
ENDBRANCH  13  14
ENDBRANCH   2  13
BRANCH   2  16
ATOM     16  C   UNL     1     -19.485  40.762 -11.406  0.00  0.00    +0.000 C 
BRANCH  16  20
ATOM     17  F   UNL     1     -19.582  38.425 -11.647  0.00  0.00    +0.000 F 
ATOM     18  F   UNL     1     -18.716  39.564 -13.292  0.00  0.00    +0.000 F 
ATOM     19  F   UNL     1     -17.609  39.325 -11.423  0.00  0.00    +0.000 F 
ATOM     20  C   UNL     1     -18.838  39.512 -11.949  0.00  0.00    +0.000 C 
ENDBRANCH  16  20
ENDBRANCH   2  16
TORSDOF 5
ENDMDL
MODEL 5
REMARK VINA RESULT:    -5.664      3.863      5.235
REMARK INTER + INTRA:          -7.165
REMARK INTER:                  -6.639
REMARK INTRA:                  -0.526
REMARK UNBOUND:                 0.155
REMARK  Name = 62160515
REMARK  6 active torsions:
REMARK  status: ('A' for Active; 'I' for Inactive)
REMARK    1  A    between atoms: N_5  and  C_8
REMARK    2  A    between atoms: N_5  and  C_9
REMARK    3  A    between atoms: C_8  and  C_10
REMARK    4  A    between atoms: C_9  and  C_12
REMARK    5  A    between atoms: C_10  and  C_13
REMARK    6  A    between atoms: C_11  and  C_14
REMARK                            x       y       z     vdW  Elec       q    Type
REMARK                         _______ _______ _______ _____ _____    ______ ____
ROOT
ATOM      1  O   UNL     1     -15.496  42.577 -11.292  0.00  0.00    +0.000 OA
ATOM      2  N   UNL     1     -17.071  43.838 -12.476  0.00  0.00    +0.000 N 
ATOM      3  C   UNL     1     -16.666  42.852 -11.554  0.00  0.00    +0.000 C 
ENDROOT
BRANCH   3   6
ATOM      4  N   UNL     1     -19.338  40.295 -10.914  0.00  0.00    +0.000 NA
ATOM      5  N   UNL     1     -20.602  39.802  -8.955  0.00  0.00    +0.000 N 
ATOM      6  C   UNL     1     -17.694  42.066 -10.852  0.00  0.00    +0.000 A 
ATOM      7  C   UNL     1     -18.002  42.317  -9.520  0.00  0.00    +0.000 A 
ATOM      8  C   UNL     1     -18.384  41.053 -11.499  0.00  0.00    +0.000 A 
ATOM      9  C   UNL     1     -18.978  41.558  -8.883  0.00  0.00    +0.000 A 
ATOM     10  C   UNL     1     -19.611  40.568  -9.618  0.00  0.00    +0.000 A 
ATOM     11  H   UNL     1     -20.527  39.681  -7.953  0.00  0.00    +0.000 HD
ATOM     12  H   UNL     1     -21.058  39.076  -9.494  0.00  0.00    +0.000 HD
ENDBRANCH   3   6
BRANCH   2  13
ATOM     13  C   UNL     1     -18.458  44.109 -12.735  0.00  0.00    +0.000 C 
BRANCH  13  14
ATOM     14  C   UNL     1     -18.825  43.904 -14.200  0.00  0.00    +0.000 C 
ATOM     15  C   UNL     1     -19.966  42.914 -14.387  0.00  0.00    +0.000 C 
ENDBRANCH  13  14
ENDBRANCH   2  13
BRANCH   2  16
ATOM     16  C   UNL     1     -16.098  44.646 -13.224  0.00  0.00    +0.000 C 
BRANCH  16  20
ATOM     17  F   UNL     1     -16.374  46.083 -11.383  0.00  0.00    +0.000 F 
ATOM     18  F   UNL     1     -14.749  46.531 -12.766  0.00  0.00    +0.000 F 
ATOM     19  F   UNL     1     -16.822  46.892 -13.358  0.00  0.00    +0.000 F 
ATOM     20  C   UNL     1     -16.008  46.052 -12.684  0.00  0.00    +0.000 C 
ENDBRANCH  16  20
ENDBRANCH   2  16
TORSDOF 5
ENDMDL
