MODEL 1
REMARK VINA RESULT:    -7.202      0.000      0.000
REMARK INTER + INTRA:          -8.527
REMARK INTER:                  -8.886
REMARK INTRA:                   0.359
REMARK UNBOUND:                 0.359
REMARK  Name = 62161013
REMARK  5 active torsions:
REMARK  status: ('A' for Active; 'I' for Inactive)
REMARK    1  A    between atoms: N_5  and  C_8
REMARK    2  A    between atoms: N_5  and  C_9
REMARK    3  A    between atoms: C_8  and  C_11
REMARK    4  A    between atoms: C_9  and  C_13
REMARK    5  A    between atoms: C_10  and  C_12
REMARK                            x       y       z     vdW  Elec       q    Type
REMARK                         _______ _______ _______ _____ _____    ______ ____
ROOT
ATOM      1  O   UNL     1     -20.254  38.938  -9.534  0.00  0.00    +0.000 OA
ATOM      2  N   UNL     1     -18.728  40.612 -10.108  0.00  0.00    +0.000 N 
ATOM      3  C   UNL     1     -19.777  40.059  -9.366  0.00  0.00    +0.000 C 
ENDROOT
BRANCH   3   6
ATOM      4  N   UNL     1     -22.382  41.658  -7.188  0.00  0.00    +0.000 NA
ATOM      5  N   UNL     1     -22.183  43.137  -5.331  0.00  0.00    +0.000 N 
ATOM      6  C   UNL     1     -20.384  40.873  -8.301  0.00  0.00    +0.000 A 
ATOM      7  C   UNL     1     -19.597  41.607  -7.422  0.00  0.00    +0.000 A 
ATOM      8  C   UNL     1     -21.760  40.931  -8.144  0.00  0.00    +0.000 A 
ATOM      9  C   UNL     1     -20.200  42.366  -6.426  0.00  0.00    +0.000 A 
ATOM     10  C   UNL     1     -21.584  42.359  -6.352  0.00  0.00    +0.000 A 
ATOM     11  H   UNL     1     -21.660  43.302  -4.480  0.00  0.00    +0.000 HD
ATOM     12  H   UNL     1     -23.193  43.124  -5.277  0.00  0.00    +0.000 HD
ENDBRANCH   3   6
BRANCH   2  13
ATOM     13  C   UNL     1     -18.215  41.951  -9.849  0.00  0.00    +0.000 C 
ATOM     14  C   UNL     1     -17.116  42.321 -10.824  0.00  0.00    +0.000 C 
ENDBRANCH   2  13
BRANCH   2  15
ATOM     15  C   UNL     1     -18.074  39.884 -11.193  0.00  0.00    +0.000 C 
BRANCH  15  19
ATOM     16  F   UNL     1     -19.743  38.771 -12.443  0.00  0.00    +0.000 F 
ATOM     17  F   UNL     1     -19.711  40.950 -12.501  0.00  0.00    +0.000 F 
ATOM     18  F   UNL     1     -18.175  39.814 -13.553  0.00  0.00    +0.000 F 
ATOM     19  C   UNL     1     -18.930  39.849 -12.435  0.00  0.00    +0.000 C 
ENDBRANCH  15  19
ENDBRANCH   2  15
TORSDOF 4
ENDMDL
MODEL 2
REMARK VINA RESULT:    -6.527      3.295      5.842
REMARK INTER + INTRA:          -7.695
REMARK INTER:                  -7.336
REMARK INTRA:                  -0.359
REMARK UNBOUND:                 0.359
REMARK  Name = 62161013
REMARK  5 active torsions:
REMARK  status: ('A' for Active; 'I' for Inactive)
REMARK    1  A    between atoms: N_5  and  C_8
REMARK    2  A    between atoms: N_5  and  C_9
REMARK    3  A    between atoms: C_8  and  C_11
REMARK    4  A    between atoms: C_9  and  C_13
REMARK    5  A    between atoms: C_10  and  C_12
REMARK                            x       y       z     vdW  Elec       q    Type
REMARK                         _______ _______ _______ _____ _____    ______ ____
ROOT
ATOM      1  O   UNL     1     -17.739  43.138  -9.207  0.00  0.00    +0.000 OA
ATOM      2  N   UNL     1     -17.897  41.135 -10.400  0.00  0.00    +0.000 N 
ATOM      3  C   UNL     1     -17.589  42.490 -10.241  0.00  0.00    +0.000 C 
ENDROOT
BRANCH   3   6
ATOM      4  N   UNL     1     -17.469  44.571 -13.362  0.00  0.00    +0.000 NA
ATOM      5  N   UNL     1     -15.631  45.318 -14.682  0.00  0.00    +0.000 N 
ATOM      6  C   UNL     1     -17.052  43.225 -11.398  0.00  0.00    +0.000 A 
ATOM      7  C   UNL     1     -15.684  43.284 -11.638  0.00  0.00    +0.000 A 
ATOM      8  C   UNL     1     -17.895  43.879 -12.282  0.00  0.00    +0.000 A 
ATOM      9  C   UNL     1     -15.207  43.987 -12.739  0.00  0.00    +0.000 A 
ATOM     10  C   UNL     1     -16.133  44.607 -13.564  0.00  0.00    +0.000 A 
ATOM     11  H   UNL     1     -14.701  45.715 -14.623  0.00  0.00    +0.000 HD
ATOM     12  H   UNL     1     -16.310  45.775 -15.277  0.00  0.00    +0.000 HD
ENDBRANCH   3   6
BRANCH   2  13
ATOM     13  C   UNL     1     -17.690  40.435 -11.660  0.00  0.00    +0.000 C 
ATOM     14  C   UNL     1     -16.381  39.671 -11.661  0.00  0.00    +0.000 C 
ENDBRANCH   2  13
BRANCH   2  15
ATOM     15  C   UNL     1     -18.447  40.330  -9.312  0.00  0.00    +0.000 C 
BRANCH  15  19
ATOM     16  F   UNL     1     -20.554  39.403  -8.775  0.00  0.00    +0.000 F 
ATOM     17  F   UNL     1     -20.186  41.481  -8.226  0.00  0.00    +0.000 F 
ATOM     18  F   UNL     1     -20.493  40.951 -10.319  0.00  0.00    +0.000 F 
ATOM     19  C   UNL     1     -19.933  40.539  -9.161  0.00  0.00    +0.000 C 
ENDBRANCH  15  19
ENDBRANCH   2  15
TORSDOF 4
ENDMDL
MODEL 3
REMARK VINA RESULT:    -6.367      1.719      2.259
REMARK INTER + INTRA:          -7.497
REMARK INTER:                  -7.504
REMARK INTRA:                   0.008
REMARK UNBOUND:                 0.359
REMARK  Name = 62161013
REMARK  5 active torsions:
REMARK  status: ('A' for Active; 'I' for Inactive)
REMARK    1  A    between atoms: N_5  and  C_8
REMARK    2  A    between atoms: N_5  and  C_9
REMARK    3  A    between atoms: C_8  and  C_11
REMARK    4  A    between atoms: C_9  and  C_13
REMARK    5  A    between atoms: C_10  and  C_12
REMARK                            x       y       z     vdW  Elec       q    Type
REMARK                         _______ _______ _______ _____ _____    ______ ____
ROOT
ATOM      1  O   UNL     1     -19.560  38.978 -10.514  0.00  0.00    +0.000 OA
ATOM      2  N   UNL     1     -19.011  41.030 -11.486  0.00  0.00    +0.000 N 
ATOM      3  C   UNL     1     -19.445  40.200 -10.448  0.00  0.00    +0.000 C 
ENDROOT
BRANCH   3   6
ATOM      4  N   UNL     1     -19.155  42.126  -7.240  0.00  0.00    +0.000 NA
ATOM      5  N   UNL     1     -20.759  42.601  -5.543  0.00  0.00    +0.000 N 
ATOM      6  C   UNL     1     -19.813  40.820  -9.165  0.00  0.00    +0.000 A 
ATOM      7  C   UNL     1     -21.103  40.711  -8.659  0.00  0.00    +0.000 A 
ATOM      8  C   UNL     1     -18.883  41.532  -8.424  0.00  0.00    +0.000 A 
ATOM      9  C   UNL     1     -21.420  41.308  -7.444  0.00  0.00    +0.000 A 
ATOM     10  C   UNL     1     -20.419  41.998  -6.779  0.00  0.00    +0.000 A 
ATOM     11  H   UNL     1     -21.718  42.890  -5.394  0.00  0.00    +0.000 HD
ATOM     12  H   UNL     1     -20.026  43.109  -5.064  0.00  0.00    +0.000 HD
ENDBRANCH   3   6
BRANCH   2  13
ATOM     13  C   UNL     1     -18.900  42.474 -11.331  0.00  0.00    +0.000 C 
ATOM     14  C   UNL     1     -19.109  43.190 -12.650  0.00  0.00    +0.000 C 
ENDBRANCH   2  13
BRANCH   2  15
ATOM     15  C   UNL     1     -18.639  40.505 -12.798  0.00  0.00    +0.000 C 
BRANCH  15  19
ATOM     16  F   UNL     1     -16.514  41.404 -13.310  0.00  0.00    +0.000 F 
ATOM     17  F   UNL     1     -16.637  39.929 -11.709  0.00  0.00    +0.000 F 
ATOM     18  F   UNL     1     -16.863  39.298 -13.785  0.00  0.00    +0.000 F 
ATOM     19  C   UNL     1     -17.151  40.283 -12.907  0.00  0.00    +0.000 C 
ENDBRANCH  15  19
ENDBRANCH   2  15
TORSDOF 4
ENDMDL
MODEL 4
REMARK VINA RESULT:    -6.235      3.861      5.876
REMARK INTER + INTRA:          -7.334
REMARK INTER:                  -6.997
REMARK INTRA:                  -0.337
REMARK UNBOUND:                 0.359
REMARK  Name = 62161013
REMARK  5 active torsions:
REMARK  status: ('A' for Active; 'I' for Inactive)
REMARK    1  A    between atoms: N_5  and  C_8
REMARK    2  A    between atoms: N_5  and  C_9
REMARK    3  A    between atoms: C_8  and  C_11
REMARK    4  A    between atoms: C_9  and  C_13
REMARK    5  A    between atoms: C_10  and  C_12
REMARK                            x       y       z     vdW  Elec       q    Type
REMARK                         _______ _______ _______ _____ _____    ______ ____
ROOT
ATOM      1  O   UNL     1     -18.064  42.540  -9.861  0.00  0.00    +0.000 OA
ATOM      2  N   UNL     1     -18.513  41.904 -12.064  0.00  0.00    +0.000 N 
ATOM      3  C   UNL     1     -17.860  42.639 -11.069  0.00  0.00    +0.000 C 
ENDROOT
BRANCH   3   6
ATOM      4  N   UNL     1     -14.545  44.125 -12.010  0.00  0.00    +0.000 NA
ATOM      5  N   UNL     1     -13.939  46.343 -12.635  0.00  0.00    +0.000 N 
ATOM      6  C   UNL     1     -16.851  43.628 -11.481  0.00  0.00    +0.000 A 
ATOM      7  C   UNL     1     -17.200  44.951 -11.726  0.00  0.00    +0.000 A 
ATOM      8  C   UNL     1     -15.521  43.268 -11.635  0.00  0.00    +0.000 A 
ATOM      9  C   UNL     1     -16.224  45.861 -12.114  0.00  0.00    +0.000 A 
ATOM     10  C   UNL     1     -14.922  45.403 -12.240  0.00  0.00    +0.000 A 
ATOM     11  H   UNL     1     -14.226  47.131 -13.204  0.00  0.00    +0.000 HD
ATOM     12  H   UNL     1     -12.991  46.003 -12.732  0.00  0.00    +0.000 HD
ENDBRANCH   3   6
BRANCH   2  13
ATOM     13  C   UNL     1     -18.216  42.078 -13.480  0.00  0.00    +0.000 C 
ATOM     14  C   UNL     1     -19.325  42.829 -14.190  0.00  0.00    +0.000 C 
ENDBRANCH   2  13
BRANCH   2  15
ATOM     15  C   UNL     1     -19.540  40.912 -11.751  0.00  0.00    +0.000 C 
BRANCH  15  19
ATOM     16  F   UNL     1     -17.629  39.542 -11.513  0.00  0.00    +0.000 F 
ATOM     17  F   UNL     1     -19.036  39.627  -9.849  0.00  0.00    +0.000 F 
ATOM     18  F   UNL     1     -19.572  38.551 -11.668  0.00  0.00    +0.000 F 
ATOM     19  C   UNL     1     -18.938  39.645 -11.196  0.00  0.00    +0.000 C 
ENDBRANCH  15  19
ENDBRANCH   2  15
TORSDOF 4
ENDMDL
MODEL 5
REMARK VINA RESULT:    -6.081      3.432      5.677
REMARK INTER + INTRA:          -7.144
REMARK INTER:                  -6.837
REMARK INTRA:                  -0.307
REMARK UNBOUND:                 0.359
REMARK  Name = 62161013
REMARK  5 active torsions:
REMARK  status: ('A' for Active; 'I' for Inactive)
REMARK    1  A    between atoms: N_5  and  C_8
REMARK    2  A    between atoms: N_5  and  C_9
REMARK    3  A    between atoms: C_8  and  C_11
REMARK    4  A    between atoms: C_9  and  C_13
REMARK    5  A    between atoms: C_10  and  C_12
REMARK                            x       y       z     vdW  Elec       q    Type
REMARK                         _______ _______ _______ _____ _____    ______ ____
ROOT
ATOM      1  O   UNL     1     -18.979  42.690 -13.487  0.00  0.00    +0.000 OA
ATOM      2  N   UNL     1     -18.547  41.943 -11.316  0.00  0.00    +0.000 N 
ATOM      3  C   UNL     1     -18.383  42.790 -12.417  0.00  0.00    +0.000 C 
ENDROOT
BRANCH   3   6
ATOM      4  N   UNL     1     -15.158  44.694 -12.671  0.00  0.00    +0.000 NA
ATOM      5  N   UNL     1     -14.602  46.929 -12.060  0.00  0.00    +0.000 N 
ATOM      6  C   UNL     1     -17.410  43.889 -12.313  0.00  0.00    +0.000 A 
ATOM      7  C   UNL     1     -17.775  45.123 -11.786  0.00  0.00    +0.000 A 
ATOM      8  C   UNL     1     -16.101  43.727 -12.738  0.00  0.00    +0.000 A 
ATOM      9  C   UNL     1     -16.834  46.142 -11.702  0.00  0.00    +0.000 A 
ATOM     10  C   UNL     1     -15.550  45.880 -12.153  0.00  0.00    +0.000 A 
ATOM     11  H   UNL     1     -14.936  47.884 -12.096  0.00  0.00    +0.000 HD
ATOM     12  H   UNL     1     -13.668  46.735 -12.397  0.00  0.00    +0.000 HD
ENDBRANCH   3   6
BRANCH   2  13
ATOM     13  C   UNL     1     -17.802  42.126 -10.078  0.00  0.00    +0.000 C 
ATOM     14  C   UNL     1     -18.632  41.740  -8.870  0.00  0.00    +0.000 C 
ENDBRANCH   2  13
BRANCH   2  15
ATOM     15  C   UNL     1     -19.478  40.817 -11.333  0.00  0.00    +0.000 C 
BRANCH  15  19
ATOM     16  F   UNL     1     -19.598  38.473 -11.612  0.00  0.00    +0.000 F 
ATOM     17  F   UNL     1     -18.575  39.632 -13.150  0.00  0.00    +0.000 F 
ATOM     18  F   UNL     1     -17.634  39.345 -11.203  0.00  0.00    +0.000 F 
ATOM     19  C   UNL     1     -18.816  39.554 -11.823  0.00  0.00    +0.000 C 
ENDBRANCH  15  19
ENDBRANCH   2  15
TORSDOF 4
ENDMDL
