MODEL 1
REMARK VINA RESULT:    -5.807      0.000      0.000
REMARK INTER + INTRA:          -6.818
REMARK INTER:                  -6.825
REMARK INTRA:                   0.007
REMARK UNBOUND:                 0.007
REMARK  Name = 62166888
REMARK  7 active torsions:
REMARK  status: ('A' for Active; 'I' for Inactive)
REMARK    1  A    between atoms: N_2  and  C_5
REMARK    2  A    between atoms: N_2  and  C_9
REMARK    3  A    between atoms: N_3  and  C_15
REMARK    4  A    between atoms: C_5  and  C_6
REMARK    5  A    between atoms: C_5  and  C_7
REMARK    6  A    between atoms: C_8  and  C_10
REMARK    7  A    between atoms: C_15  and  C_16
REMARK                            x       y       z     vdW  Elec       q    Type
REMARK                         _______ _______ _______ _____ _____    ______ ____
ROOT
ATOM      1  N   UNL     1     -21.260  40.849  -7.932  0.00  0.00    +0.000 N 
ATOM      2  N   UNL     1     -20.062  40.465  -9.956  0.00  0.00    +0.000 NA
ATOM      3  C   UNL     1     -17.940  41.567 -10.309  0.00  0.00    +0.000 A 
ATOM      4  C   UNL     1     -18.047  42.187  -9.069  0.00  0.00    +0.000 A 
ATOM      5  C   UNL     1     -18.965  40.723 -10.703  0.00  0.00    +0.000 A 
ATOM      6  C   UNL     1     -20.131  41.085  -8.756  0.00  0.00    +0.000 A 
ATOM      7  C   UNL     1     -19.161  41.947  -8.272  0.00  0.00    +0.000 A 
ATOM      8  H   UNL     1     -21.962  40.216  -8.299  0.00  0.00    +0.000 HD
ENDROOT
BRANCH   3  11
ATOM      9  O   UNL     1     -16.003  40.854 -11.320  0.00  0.00    +0.000 OA
ATOM     10  N   UNL     1     -16.646  43.072 -11.774  0.00  0.00    +0.000 N 
ATOM     11  C   UNL     1     -16.775  41.802 -11.176  0.00  0.00    +0.000 C 
ATOM     12  C   UNL     1     -17.621  44.138 -11.539  0.00  0.00    +0.000 C 
BRANCH  10  13
ATOM     13  C   UNL     1     -15.545  43.393 -12.650  0.00  0.00    +0.000 C 
ATOM     14  C   UNL     1     -14.281  43.648 -11.841  0.00  0.00    +0.000 C 
ATOM     15  C   UNL     1     -15.891  44.589 -13.528  0.00  0.00    +0.000 C 
ENDBRANCH  10  13
ENDBRANCH   3  11
BRANCH   1  16
ATOM     16  C   UNL     1     -21.419  41.459  -6.652  0.00  0.00    +0.000 C 
ATOM     17  C   UNL     1     -22.491  42.530  -6.714  0.00  0.00    +0.000 C 
ENDBRANCH   1  16
TORSDOF 3
ENDMDL
MODEL 2
REMARK VINA RESULT:    -5.526      1.909      2.684
REMARK INTER + INTRA:          -6.489
REMARK INTER:                  -6.297
REMARK INTRA:                  -0.192
REMARK UNBOUND:                 0.007
REMARK  Name = 62166888
REMARK  7 active torsions:
REMARK  status: ('A' for Active; 'I' for Inactive)
REMARK    1  A    between atoms: N_2  and  C_5
REMARK    2  A    between atoms: N_2  and  C_9
REMARK    3  A    between atoms: N_3  and  C_15
REMARK    4  A    between atoms: C_5  and  C_6
REMARK    5  A    between atoms: C_5  and  C_7
REMARK    6  A    between atoms: C_8  and  C_10
REMARK    7  A    between atoms: C_15  and  C_16
REMARK                            x       y       z     vdW  Elec       q    Type
REMARK                         _______ _______ _______ _____ _____    ______ ____
ROOT
ATOM      1  N   UNL     1     -19.981  40.202 -10.244  0.00  0.00    +0.000 N 
ATOM      2  N   UNL     1     -19.172  41.215 -12.243  0.00  0.00    +0.000 NA
ATOM      3  C   UNL     1     -17.457  42.913 -12.106  0.00  0.00    +0.000 A 
ATOM      4  C   UNL     1     -17.437  42.792 -10.721  0.00  0.00    +0.000 A 
ATOM      5  C   UNL     1     -18.335  42.110 -12.815  0.00  0.00    +0.000 A 
ATOM      6  C   UNL     1     -19.124  41.125 -10.895  0.00  0.00    +0.000 A 
ATOM      7  C   UNL     1     -18.283  41.882 -10.096  0.00  0.00    +0.000 A 
ATOM      8  H   UNL     1     -20.590  39.654 -10.841  0.00  0.00    +0.000 HD
ENDROOT
BRANCH   3  11
ATOM      9  O   UNL     1     -15.448  43.458 -13.081  0.00  0.00    +0.000 OA
ATOM     10  N   UNL     1     -17.086  45.148 -13.082  0.00  0.00    +0.000 N 
ATOM     11  C   UNL     1     -16.574  43.866 -12.796  0.00  0.00    +0.000 C 
ATOM     12  C   UNL     1     -18.444  45.539 -12.699  0.00  0.00    +0.000 C 
BRANCH  10  13
ATOM     13  C   UNL     1     -16.301  46.146 -13.767  0.00  0.00    +0.000 C 
ATOM     14  C   UNL     1     -15.720  47.140 -12.771  0.00  0.00    +0.000 C 
ATOM     15  C   UNL     1     -17.140  46.851 -14.827  0.00  0.00    +0.000 C 
ENDBRANCH  10  13
ENDBRANCH   3  11
BRANCH   1  16
ATOM     16  C   UNL     1     -20.000  40.038  -8.827  0.00  0.00    +0.000 C 
ATOM     17  C   UNL     1     -21.185  40.774  -8.233  0.00  0.00    +0.000 C 
ENDBRANCH   1  16
TORSDOF 3
ENDMDL
MODEL 3
REMARK VINA RESULT:    -4.678      3.929      5.094
REMARK INTER + INTRA:          -5.492
REMARK INTER:                  -5.355
REMARK INTRA:                  -0.137
REMARK UNBOUND:                 0.007
REMARK  Name = 62166888
REMARK  7 active torsions:
REMARK  status: ('A' for Active; 'I' for Inactive)
REMARK    1  A    between atoms: N_2  and  C_5
REMARK    2  A    between atoms: N_2  and  C_9
REMARK    3  A    between atoms: N_3  and  C_15
REMARK    4  A    between atoms: C_5  and  C_6
REMARK    5  A    between atoms: C_5  and  C_7
REMARK    6  A    between atoms: C_8  and  C_10
REMARK    7  A    between atoms: C_15  and  C_16
REMARK                            x       y       z     vdW  Elec       q    Type
REMARK                         _______ _______ _______ _____ _____    ______ ____
ROOT
ATOM      1  N   UNL     1     -18.288  41.013 -13.188  0.00  0.00    +0.000 N 
ATOM      2  N   UNL     1     -18.501  43.328 -13.708  0.00  0.00    +0.000 NA
ATOM      3  C   UNL     1     -17.863  44.981 -12.062  0.00  0.00    +0.000 A 
ATOM      4  C   UNL     1     -17.512  43.971 -11.173  0.00  0.00    +0.000 A 
ATOM      5  C   UNL     1     -18.349  44.611 -13.306  0.00  0.00    +0.000 A 
ATOM      6  C   UNL     1     -18.149  42.374 -12.817  0.00  0.00    +0.000 A 
ATOM      7  C   UNL     1     -17.654  42.640 -11.551  0.00  0.00    +0.000 A 
ATOM      8  H   UNL     1     -18.650  40.834 -14.117  0.00  0.00    +0.000 HD
ENDROOT
BRANCH   3  11
ATOM      9  O   UNL     1     -18.765  46.988 -11.399  0.00  0.00    +0.000 OA
ATOM     10  N   UNL     1     -16.430  46.954 -11.693  0.00  0.00    +0.000 N 
ATOM     11  C   UNL     1     -17.726  46.398 -11.693  0.00  0.00    +0.000 C 
ATOM     12  C   UNL     1     -15.252  46.166 -12.060  0.00  0.00    +0.000 C 
BRANCH  10  13
ATOM     13  C   UNL     1     -16.193  48.331 -11.332  0.00  0.00    +0.000 C 
ATOM     14  C   UNL     1     -16.134  49.203 -12.579  0.00  0.00    +0.000 C 
ATOM     15  C   UNL     1     -14.916  48.456 -10.509  0.00  0.00    +0.000 C 
ENDBRANCH  10  13
ENDBRANCH   3  11
BRANCH   1  16
ATOM     16  C   UNL     1     -17.942  39.940 -12.314  0.00  0.00    +0.000 C 
ATOM     17  C   UNL     1     -19.195  39.231 -11.837  0.00  0.00    +0.000 C 
ENDBRANCH   1  16
TORSDOF 3
ENDMDL
MODEL 4
REMARK VINA RESULT:    -4.661      2.637      6.758
REMARK INTER + INTRA:          -5.472
REMARK INTER:                  -5.292
REMARK INTRA:                  -0.180
REMARK UNBOUND:                 0.007
REMARK  Name = 62166888
REMARK  7 active torsions:
REMARK  status: ('A' for Active; 'I' for Inactive)
REMARK    1  A    between atoms: N_2  and  C_5
REMARK    2  A    between atoms: N_2  and  C_9
REMARK    3  A    between atoms: N_3  and  C_15
REMARK    4  A    between atoms: C_5  and  C_6
REMARK    5  A    between atoms: C_5  and  C_7
REMARK    6  A    between atoms: C_8  and  C_10
REMARK    7  A    between atoms: C_15  and  C_16
REMARK                            x       y       z     vdW  Elec       q    Type
REMARK                         _______ _______ _______ _____ _____    ______ ____
ROOT
ATOM      1  N   UNL     1     -16.400  47.523 -13.412  0.00  0.00    +0.000 N 
ATOM      2  N   UNL     1     -18.341  46.208 -12.989  0.00  0.00    +0.000 NA
ATOM      3  C   UNL     1     -18.156  43.798 -12.932  0.00  0.00    +0.000 A 
ATOM      4  C   UNL     1     -16.795  43.889 -13.198  0.00  0.00    +0.000 A 
ATOM      5  C   UNL     1     -18.879  44.976 -12.838  0.00  0.00    +0.000 A 
ATOM      6  C   UNL     1     -17.015  46.257 -13.246  0.00  0.00    +0.000 A 
ATOM      7  C   UNL     1     -16.205  45.138 -13.360  0.00  0.00    +0.000 A 
ATOM      8  H   UNL     1     -17.005  48.332 -13.326  0.00  0.00    +0.000 HD
ENDROOT
BRANCH   3  11
ATOM      9  O   UNL     1     -19.419  42.053 -13.731  0.00  0.00    +0.000 OA
ATOM     10  N   UNL     1     -18.674  41.852 -11.508  0.00  0.00    +0.000 N 
ATOM     11  C   UNL     1     -18.809  42.491 -12.757  0.00  0.00    +0.000 C 
ATOM     12  C   UNL     1     -17.924  42.458 -10.407  0.00  0.00    +0.000 C 
BRANCH  10  13
ATOM     13  C   UNL     1     -19.267  40.563 -11.245  0.00  0.00    +0.000 C 
ATOM     14  C   UNL     1     -19.743  40.482  -9.801  0.00  0.00    +0.000 C 
ATOM     15  C   UNL     1     -18.280  39.445 -11.565  0.00  0.00    +0.000 C 
ENDBRANCH  10  13
ENDBRANCH   3  11
BRANCH   1  16
ATOM     16  C   UNL     1     -15.008  47.672 -13.687  0.00  0.00    +0.000 C 
ATOM     17  C   UNL     1     -14.803  48.107 -15.125  0.00  0.00    +0.000 C 
ENDBRANCH   1  16
TORSDOF 3
ENDMDL
MODEL 5
REMARK VINA RESULT:    -4.604      3.971      5.821
REMARK INTER + INTRA:          -5.404
REMARK INTER:                  -5.253
REMARK INTRA:                  -0.151
REMARK UNBOUND:                 0.007
REMARK  Name = 62166888
REMARK  7 active torsions:
REMARK  status: ('A' for Active; 'I' for Inactive)
REMARK    1  A    between atoms: N_2  and  C_5
REMARK    2  A    between atoms: N_2  and  C_9
REMARK    3  A    between atoms: N_3  and  C_15
REMARK    4  A    between atoms: C_5  and  C_6
REMARK    5  A    between atoms: C_5  and  C_7
REMARK    6  A    between atoms: C_8  and  C_10
REMARK    7  A    between atoms: C_15  and  C_16
REMARK                            x       y       z     vdW  Elec       q    Type
REMARK                         _______ _______ _______ _____ _____    ______ ____
ROOT
ATOM      1  N   UNL     1     -17.475  40.672 -12.876  0.00  0.00    +0.000 N 
ATOM      2  N   UNL     1     -16.662  42.896 -13.138  0.00  0.00    +0.000 NA
ATOM      3  C   UNL     1     -18.227  44.695 -13.538  0.00  0.00    +0.000 A 
ATOM      4  C   UNL     1     -19.285  43.794 -13.495  0.00  0.00    +0.000 A 
ATOM      5  C   UNL     1     -16.946  44.200 -13.356  0.00  0.00    +0.000 A 
ATOM      6  C   UNL     1     -17.716  42.050 -13.102  0.00  0.00    +0.000 A 
ATOM      7  C   UNL     1     -19.033  42.444 -13.273  0.00  0.00    +0.000 A 
ATOM      8  H   UNL     1     -16.507  40.398 -12.753  0.00  0.00    +0.000 HD
ENDROOT
BRANCH   3  11
ATOM      9  O   UNL     1     -18.444  46.852 -12.776  0.00  0.00    +0.000 OA
ATOM     10  N   UNL     1     -18.669  46.552 -15.100  0.00  0.00    +0.000 N 
ATOM     11  C   UNL     1     -18.461  46.128 -13.772  0.00  0.00    +0.000 C 
ATOM     12  C   UNL     1     -18.670  45.609 -16.220  0.00  0.00    +0.000 C 
BRANCH  10  13
ATOM     13  C   UNL     1     -18.893  47.939 -15.430  0.00  0.00    +0.000 C 
ATOM     14  C   UNL     1     -20.049  48.070 -16.412  0.00  0.00    +0.000 C 
ATOM     15  C   UNL     1     -17.621  48.568 -15.986  0.00  0.00    +0.000 C 
ENDBRANCH  10  13
ENDBRANCH   3  11
BRANCH   1  16
ATOM     16  C   UNL     1     -18.524  39.707 -12.822  0.00  0.00    +0.000 C 
ATOM     17  C   UNL     1     -18.838  39.358 -11.379  0.00  0.00    +0.000 C 
ENDBRANCH   1  16
TORSDOF 3
ENDMDL
