MODEL 1
REMARK VINA RESULT:    -7.155      0.000      0.000
REMARK INTER + INTRA:          -7.948
REMARK INTER:                  -8.409
REMARK INTRA:                   0.462
REMARK UNBOUND:                 0.462
REMARK  Name = 62161643
REMARK  4 active torsions:
REMARK  status: ('A' for Active; 'I' for Inactive)
REMARK    1  A    between atoms: N_5  and  C_8
REMARK    2  A    between atoms: N_5  and  C_11
REMARK    3  A    between atoms: C_8  and  C_12
REMARK    4  A    between atoms: C_9  and  C_10
REMARK                            x       y       z     vdW  Elec       q    Type
REMARK                         _______ _______ _______ _____ _____    ______ ____
ROOT
ATOM      1  O   UNL     1     -20.261  38.937  -9.546  0.00  0.00    +0.000 OA
ATOM      2  N   UNL     1     -18.700  40.583 -10.111  0.00  0.00    +0.000 N 
ATOM      3  C   UNL     1     -19.762  40.049  -9.373  0.00  0.00    +0.000 C 
ATOM      4  C   UNL     1     -18.163  41.910  -9.847  0.00  0.00    +0.000 C 
ENDROOT
BRANCH   3   7
ATOM      5  N   UNL     1     -22.342  41.707  -7.210  0.00  0.00    +0.000 NA
ATOM      6  N   UNL     1     -22.121  43.167  -5.340  0.00  0.00    +0.000 N 
ATOM      7  C   UNL     1     -20.357  40.872  -8.308  0.00  0.00    +0.000 A 
ATOM      8  C   UNL     1     -19.557  41.577  -7.415  0.00  0.00    +0.000 A 
ATOM      9  C   UNL     1     -21.731  40.970  -8.164  0.00  0.00    +0.000 A 
ATOM     10  C   UNL     1     -20.149  42.346  -6.420  0.00  0.00    +0.000 A 
ATOM     11  C   UNL     1     -21.533  42.378  -6.360  0.00  0.00    +0.000 A 
ATOM     12  H   UNL     1     -21.602  43.309  -4.483  0.00  0.00    +0.000 HD
ATOM     13  H   UNL     1     -23.133  43.181  -5.297  0.00  0.00    +0.000 HD
ENDBRANCH   3   7
BRANCH   2  14
ATOM     14  C   UNL     1     -18.059  39.845 -11.197  0.00  0.00    +0.000 C 
BRANCH  14  18
ATOM     15  F   UNL     1     -19.622  41.013 -12.529  0.00  0.00    +0.000 F 
ATOM     16  F   UNL     1     -18.079  39.858 -13.548  0.00  0.00    +0.000 F 
ATOM     17  F   UNL     1     -19.717  38.830 -12.541  0.00  0.00    +0.000 F 
ATOM     18  C   UNL     1     -18.881  39.887 -12.461  0.00  0.00    +0.000 C 
ENDBRANCH  14  18
ENDBRANCH   2  14
TORSDOF 3
ENDMDL
MODEL 2
REMARK VINA RESULT:    -6.905      0.921      1.697
REMARK INTER + INTRA:          -7.654
REMARK INTER:                  -8.097
REMARK INTRA:                   0.442
REMARK UNBOUND:                 0.462
REMARK  Name = 62161643
REMARK  4 active torsions:
REMARK  status: ('A' for Active; 'I' for Inactive)
REMARK    1  A    between atoms: N_5  and  C_8
REMARK    2  A    between atoms: N_5  and  C_11
REMARK    3  A    between atoms: C_8  and  C_12
REMARK    4  A    between atoms: C_9  and  C_10
REMARK                            x       y       z     vdW  Elec       q    Type
REMARK                         _______ _______ _______ _____ _____    ______ ____
ROOT
ATOM      1  O   UNL     1     -19.981  39.018  -9.801  0.00  0.00    +0.000 OA
ATOM      2  N   UNL     1     -18.504  40.762 -10.296  0.00  0.00    +0.000 N 
ATOM      3  C   UNL     1     -19.528  40.140  -9.574  0.00  0.00    +0.000 C 
ATOM      4  C   UNL     1     -18.022  42.095  -9.967  0.00  0.00    +0.000 C 
ENDROOT
BRANCH   3   7
ATOM      5  N   UNL     1     -19.858  42.253  -6.489  0.00  0.00    +0.000 NA
ATOM      6  N   UNL     1     -21.777  42.974  -5.278  0.00  0.00    +0.000 N 
ATOM      7  C   UNL     1     -20.141  40.876  -8.456  0.00  0.00    +0.000 A 
ATOM      8  C   UNL     1     -21.520  40.908  -8.289  0.00  0.00    +0.000 A 
ATOM      9  C   UNL     1     -19.360  41.558  -7.537  0.00  0.00    +0.000 A 
ATOM     10  C   UNL     1     -22.070  41.612  -7.223  0.00  0.00    +0.000 A 
ATOM     11  C   UNL     1     -21.203  42.262  -6.359  0.00  0.00    +0.000 A 
ATOM     12  H   UNL     1     -22.711  43.350  -5.391  0.00  0.00    +0.000 HD
ATOM     13  H   UNL     1     -21.140  43.453  -4.653  0.00  0.00    +0.000 HD
ENDBRANCH   3   7
BRANCH   2  14
ATOM     14  C   UNL     1     -17.849  40.115 -11.431  0.00  0.00    +0.000 C 
BRANCH  14  18
ATOM     15  F   UNL     1     -18.393  39.503 -13.648  0.00  0.00    +0.000 F 
ATOM     16  F   UNL     1     -19.810  40.754 -12.561  0.00  0.00    +0.000 F 
ATOM     17  F   UNL     1     -17.929  41.604 -13.264  0.00  0.00    +0.000 F 
ATOM     18  C   UNL     1     -18.495  40.497 -12.739  0.00  0.00    +0.000 C 
ENDBRANCH  14  18
ENDBRANCH   2  14
TORSDOF 3
ENDMDL
MODEL 3
REMARK VINA RESULT:    -6.524      3.403      6.022
REMARK INTER + INTRA:          -7.206
REMARK INTER:                  -7.418
REMARK INTRA:                   0.212
REMARK UNBOUND:                 0.462
REMARK  Name = 62161643
REMARK  4 active torsions:
REMARK  status: ('A' for Active; 'I' for Inactive)
REMARK    1  A    between atoms: N_5  and  C_8
REMARK    2  A    between atoms: N_5  and  C_11
REMARK    3  A    between atoms: C_8  and  C_12
REMARK    4  A    between atoms: C_9  and  C_10
REMARK                            x       y       z     vdW  Elec       q    Type
REMARK                         _______ _______ _______ _____ _____    ______ ____
ROOT
ATOM      1  O   UNL     1     -18.413  42.787  -8.317  0.00  0.00    +0.000 OA
ATOM      2  N   UNL     1     -19.903  41.011  -8.010  0.00  0.00    +0.000 N 
ATOM      3  C   UNL     1     -18.922  41.733  -8.699  0.00  0.00    +0.000 C 
ATOM      4  C   UNL     1     -20.459  39.770  -8.529  0.00  0.00    +0.000 C 
ENDROOT
BRANCH   3   7
ATOM      5  N   UNL     1     -16.775  40.031 -11.264  0.00  0.00    +0.000 NA
ATOM      6  N   UNL     1     -17.069  39.731 -13.609  0.00  0.00    +0.000 N 
ATOM      7  C   UNL     1     -18.458  41.218  -9.996  0.00  0.00    +0.000 A 
ATOM      8  C   UNL     1     -19.206  41.407 -11.153  0.00  0.00    +0.000 A 
ATOM      9  C   UNL     1     -17.260  40.530 -10.104  0.00  0.00    +0.000 A 
ATOM     10  C   UNL     1     -18.741  40.908 -12.364  0.00  0.00    +0.000 A 
ATOM     11  C   UNL     1     -17.530  40.233 -12.367  0.00  0.00    +0.000 A 
ATOM     12  H   UNL     1     -17.754  39.487 -14.313  0.00  0.00    +0.000 HD
ATOM     13  H   UNL     1     -16.187  39.234 -13.604  0.00  0.00    +0.000 HD
ENDBRANCH   3   7
BRANCH   2  14
ATOM     14  C   UNL     1     -20.436  41.455  -6.724  0.00  0.00    +0.000 C 
BRANCH  14  18
ATOM     15  F   UNL     1     -22.493  41.469  -7.888  0.00  0.00    +0.000 F 
ATOM     16  F   UNL     1     -22.537  41.835  -5.739  0.00  0.00    +0.000 F 
ATOM     17  F   UNL     1     -21.773  43.370  -7.086  0.00  0.00    +0.000 F 
ATOM     18  C   UNL     1     -21.820  42.039  -6.866  0.00  0.00    +0.000 C 
ENDBRANCH  14  18
ENDBRANCH   2  14
TORSDOF 3
ENDMDL
MODEL 4
REMARK VINA RESULT:    -6.282      3.769      6.088
REMARK INTER + INTRA:          -6.922
REMARK INTER:                  -6.747
REMARK INTRA:                  -0.175
REMARK UNBOUND:                 0.462
REMARK  Name = 62161643
REMARK  4 active torsions:
REMARK  status: ('A' for Active; 'I' for Inactive)
REMARK    1  A    between atoms: N_5  and  C_8
REMARK    2  A    between atoms: N_5  and  C_11
REMARK    3  A    between atoms: C_8  and  C_12
REMARK    4  A    between atoms: C_9  and  C_10
REMARK                            x       y       z     vdW  Elec       q    Type
REMARK                         _______ _______ _______ _____ _____    ______ ____
ROOT
ATOM      1  O   UNL     1     -17.758  43.237  -9.185  0.00  0.00    +0.000 OA
ATOM      2  N   UNL     1     -17.834  41.196 -10.322  0.00  0.00    +0.000 N 
ATOM      3  C   UNL     1     -17.582  42.566 -10.202  0.00  0.00    +0.000 C 
ATOM      4  C   UNL     1     -17.601  40.470 -11.562  0.00  0.00    +0.000 C 
ENDROOT
BRANCH   3   7
ATOM      5  N   UNL     1     -15.198  43.980 -12.733  0.00  0.00    +0.000 NA
ATOM      6  N   UNL     1     -15.574  45.303 -14.678  0.00  0.00    +0.000 N 
ATOM      7  C   UNL     1     -17.080  43.290 -11.381  0.00  0.00    +0.000 A 
ATOM      8  C   UNL     1     -17.949  43.951 -12.241  0.00  0.00    +0.000 A 
ATOM      9  C   UNL     1     -15.725  43.334 -11.669  0.00  0.00    +0.000 A 
ATOM     10  C   UNL     1     -17.445  44.626 -13.347  0.00  0.00    +0.000 A 
ATOM     11  C   UNL     1     -16.073  44.611 -13.547  0.00  0.00    +0.000 A 
ATOM     12  H   UNL     1     -16.175  45.398 -15.488  0.00  0.00    +0.000 HD
ATOM     13  H   UNL     1     -14.572  45.283 -14.823  0.00  0.00    +0.000 HD
ENDBRANCH   3   7
BRANCH   2  14
ATOM     14  C   UNL     1     -18.349  40.400  -9.210  0.00  0.00    +0.000 C 
BRANCH  14  18
ATOM     15  F   UNL     1     -20.152  41.517  -8.169  0.00  0.00    +0.000 F 
ATOM     16  F   UNL     1     -20.404  40.890 -10.242  0.00  0.00    +0.000 F 
ATOM     17  F   UNL     1     -20.416  39.401  -8.649  0.00  0.00    +0.000 F 
ATOM     18  C   UNL     1     -19.842  40.551  -9.060  0.00  0.00    +0.000 C 
ENDBRANCH  14  18
ENDBRANCH   2  14
TORSDOF 3
ENDMDL
MODEL 5
REMARK VINA RESULT:    -5.956      3.996      5.952
REMARK INTER + INTRA:          -6.539
REMARK INTER:                  -6.436
REMARK INTRA:                  -0.103
REMARK UNBOUND:                 0.462
REMARK  Name = 62161643
REMARK  4 active torsions:
REMARK  status: ('A' for Active; 'I' for Inactive)
REMARK    1  A    between atoms: N_5  and  C_8
REMARK    2  A    between atoms: N_5  and  C_11
REMARK    3  A    between atoms: C_8  and  C_12
REMARK    4  A    between atoms: C_9  and  C_10
REMARK                            x       y       z     vdW  Elec       q    Type
REMARK                         _______ _______ _______ _____ _____    ______ ____
ROOT
ATOM      1  O   UNL     1     -17.745  42.352  -9.968  0.00  0.00    +0.000 OA
ATOM      2  N   UNL     1     -18.532  42.004 -12.142  0.00  0.00    +0.000 N 
ATOM      3  C   UNL     1     -17.750  42.632 -11.166  0.00  0.00    +0.000 C 
ATOM      4  C   UNL     1     -18.483  42.394 -13.543  0.00  0.00    +0.000 C 
ENDROOT
BRANCH   3   7
ATOM      5  N   UNL     1     -14.686  44.455 -12.338  0.00  0.00    +0.000 NA
ATOM      6  N   UNL     1     -14.301  46.767 -12.765  0.00  0.00    +0.000 N 
ATOM      7  C   UNL     1     -16.865  43.732 -11.582  0.00  0.00    +0.000 A 
ATOM      8  C   UNL     1     -17.322  45.045 -11.620  0.00  0.00    +0.000 A 
ATOM      9  C   UNL     1     -15.551  43.492 -11.947  0.00  0.00    +0.000 A 
ATOM     10  C   UNL     1     -16.462  46.063 -12.016  0.00  0.00    +0.000 A 
ATOM     11  C   UNL     1     -15.165  45.719 -12.363  0.00  0.00    +0.000 A 
ATOM     12  H   UNL     1     -14.708  47.589 -13.193  0.00  0.00    +0.000 HD
ATOM     13  H   UNL     1     -13.356  46.510 -13.023  0.00  0.00    +0.000 HD
ENDBRANCH   3   7
BRANCH   2  14
ATOM     14  C   UNL     1     -19.451  40.915 -11.820  0.00  0.00    +0.000 C 
BRANCH  14  18
ATOM     15  F   UNL     1     -17.676  39.451 -11.279  0.00  0.00    +0.000 F 
ATOM     16  F   UNL     1     -19.644  38.579 -11.625  0.00  0.00    +0.000 F 
ATOM     17  F   UNL     1     -18.488  39.349 -13.306  0.00  0.00    +0.000 F 
ATOM     18  C   UNL     1     -18.804  39.565 -12.011  0.00  0.00    +0.000 C 
ENDBRANCH  14  18
ENDBRANCH   2  14
TORSDOF 3
ENDMDL
