MODEL 1
REMARK VINA RESULT:    -5.849      0.000      0.000
REMARK INTER + INTRA:          -7.917
REMARK INTER:                  -7.388
REMARK INTRA:                  -0.529
REMARK UNBOUND:                -0.529
REMARK  Name = 62160163
REMARK  6 active torsions:
REMARK  status: ('A' for Active; 'I' for Inactive)
REMARK    1  A    between atoms: N_5  and  C_8
REMARK    2  A    between atoms: N_5  and  C_9
REMARK    3  A    between atoms: N_7  and  C_14
REMARK    4  A    between atoms: C_8  and  C_12
REMARK    5  A    between atoms: C_9  and  C_13
REMARK    6  A    between atoms: C_10  and  C_11
REMARK                            x       y       z     vdW  Elec       q    Type
REMARK                         _______ _______ _______ _____ _____    ______ ____
ROOT
ATOM      1  O   UNL     1     -17.993  42.498  -9.825  0.00  0.00    +0.000 OA
ATOM      2  N   UNL     1     -18.426  41.866 -12.033  0.00  0.00    +0.000 N 
ATOM      3  C   UNL     1     -17.763  42.581 -11.032  0.00  0.00    +0.000 C 
ENDROOT
BRANCH   3   5
ATOM      4  N   UNL     1     -14.384  44.021 -11.869  0.00  0.00    +0.000 NA
ATOM      5  C   UNL     1     -16.709  43.528 -11.430  0.00  0.00    +0.000 A 
ATOM      6  C   UNL     1     -15.373  43.173 -11.508  0.00  0.00    +0.000 A 
ATOM      7  C   UNL     1     -17.054  44.837 -11.742  0.00  0.00    +0.000 A 
ATOM      8  C   UNL     1     -16.066  45.740 -12.117  0.00  0.00    +0.000 A 
ATOM      9  C   UNL     1     -14.757  45.287 -12.165  0.00  0.00    +0.000 A 
BRANCH   6  10
ATOM     10  N   UNL     1     -15.012  41.839 -11.189  0.00  0.00    +0.000 N 
ATOM     11  H   UNL     1     -14.356  41.358 -11.793  0.00  0.00    +0.000 HD
ATOM     12  H   UNL     1     -15.714  41.281 -10.720  0.00  0.00    +0.000 HD
ENDBRANCH   6  10
ENDBRANCH   3   5
BRANCH   2  13
ATOM     13  C   UNL     1     -18.096  42.019 -13.444  0.00  0.00    +0.000 C 
ATOM     14  C   UNL     1     -19.211  42.707 -14.203  0.00  0.00    +0.000 C 
ENDBRANCH   2  13
BRANCH   2  15
ATOM     15  C   UNL     1     -19.496  40.916 -11.734  0.00  0.00    +0.000 C 
BRANCH  15  19
ATOM     16  F   UNL     1     -19.175  39.639  -9.772  0.00  0.00    +0.000 F 
ATOM     17  F   UNL     1     -19.567  38.569 -11.631  0.00  0.00    +0.000 F 
ATOM     18  F   UNL     1     -17.632  39.524 -11.317  0.00  0.00    +0.000 F 
ATOM     19  C   UNL     1     -18.960  39.655 -11.104  0.00  0.00    +0.000 C 
ENDBRANCH  15  19
ENDBRANCH   2  15
TORSDOF 5
ENDMDL
MODEL 2
REMARK VINA RESULT:    -5.631      1.854      2.369
REMARK INTER + INTRA:          -7.641
REMARK INTER:                  -7.049
REMARK INTRA:                  -0.592
REMARK UNBOUND:                -0.529
REMARK  Name = 62160163
REMARK  6 active torsions:
REMARK  status: ('A' for Active; 'I' for Inactive)
REMARK    1  A    between atoms: N_5  and  C_8
REMARK    2  A    between atoms: N_5  and  C_9
REMARK    3  A    between atoms: N_7  and  C_14
REMARK    4  A    between atoms: C_8  and  C_12
REMARK    5  A    between atoms: C_9  and  C_13
REMARK    6  A    between atoms: C_10  and  C_11
REMARK                            x       y       z     vdW  Elec       q    Type
REMARK                         _______ _______ _______ _____ _____    ______ ____
ROOT
ATOM      1  O   UNL     1     -17.708  43.093  -9.168  0.00  0.00    +0.000 OA
ATOM      2  N   UNL     1     -17.957  41.119 -10.395  0.00  0.00    +0.000 N 
ATOM      3  C   UNL     1     -17.615  42.464 -10.222  0.00  0.00    +0.000 C 
ENDROOT
BRANCH   3   5
ATOM      4  N   UNL     1     -15.280  44.013 -12.740  0.00  0.00    +0.000 NA
ATOM      5  C   UNL     1     -17.116  43.213 -11.386  0.00  0.00    +0.000 A 
ATOM      6  C   UNL     1     -15.767  43.330 -11.680  0.00  0.00    +0.000 A 
ATOM      7  C   UNL     1     -18.023  43.837 -12.234  0.00  0.00    +0.000 A 
ATOM      8  C   UNL     1     -17.562  44.549 -13.335  0.00  0.00    +0.000 A 
ATOM      9  C   UNL     1     -16.193  44.607 -13.542  0.00  0.00    +0.000 A 
BRANCH   6  10
ATOM     10  N   UNL     1     -14.834  42.698 -10.819  0.00  0.00    +0.000 N 
ATOM     11  H   UNL     1     -13.949  43.157 -10.646  0.00  0.00    +0.000 HD
ATOM     12  H   UNL     1     -14.851  41.686 -10.800  0.00  0.00    +0.000 HD
ENDBRANCH   6  10
ENDBRANCH   3   5
BRANCH   2  13
ATOM     13  C   UNL     1     -17.818  40.443 -11.677  0.00  0.00    +0.000 C 
ATOM     14  C   UNL     1     -16.524  39.660 -11.754  0.00  0.00    +0.000 C 
ENDBRANCH   2  13
BRANCH   2  15
ATOM     15  C   UNL     1     -18.475  40.301  -9.301  0.00  0.00    +0.000 C 
BRANCH  15  19
ATOM     16  F   UNL     1     -20.544  41.002 -10.200  0.00  0.00    +0.000 F 
ATOM     17  F   UNL     1     -20.564  39.376  -8.747  0.00  0.00    +0.000 F 
ATOM     18  F   UNL     1     -20.168  41.416  -8.087  0.00  0.00    +0.000 F 
ATOM     19  C   UNL     1     -19.950  40.531  -9.084  0.00  0.00    +0.000 C 
ENDBRANCH  15  19
ENDBRANCH   2  15
TORSDOF 5
ENDMDL
MODEL 3
REMARK VINA RESULT:    -4.694      3.380      5.449
REMARK INTER + INTRA:          -6.457
REMARK INTER:                  -6.073
REMARK INTRA:                  -0.384
REMARK UNBOUND:                -0.529
REMARK  Name = 62160163
REMARK  6 active torsions:
REMARK  status: ('A' for Active; 'I' for Inactive)
REMARK    1  A    between atoms: N_5  and  C_8
REMARK    2  A    between atoms: N_5  and  C_9
REMARK    3  A    between atoms: N_7  and  C_14
REMARK    4  A    between atoms: C_8  and  C_12
REMARK    5  A    between atoms: C_9  and  C_13
REMARK    6  A    between atoms: C_10  and  C_11
REMARK                            x       y       z     vdW  Elec       q    Type
REMARK                         _______ _______ _______ _____ _____    ______ ____
ROOT
ATOM      1  O   UNL     1     -18.595  43.458 -13.100  0.00  0.00    +0.000 OA
ATOM      2  N   UNL     1     -16.388  43.339 -12.339  0.00  0.00    +0.000 N 
ATOM      3  C   UNL     1     -17.739  42.979 -12.355  0.00  0.00    +0.000 C 
ENDROOT
BRANCH   3   5
ATOM      4  N   UNL     1     -19.076  39.749 -10.951  0.00  0.00    +0.000 NA
ATOM      5  C   UNL     1     -18.202  41.957 -11.404  0.00  0.00    +0.000 A 
ATOM      6  C   UNL     1     -18.643  40.706 -11.802  0.00  0.00    +0.000 A 
ATOM      7  C   UNL     1     -18.204  42.245 -10.044  0.00  0.00    +0.000 A 
ATOM      8  C   UNL     1     -18.642  41.287  -9.136  0.00  0.00    +0.000 A 
ATOM      9  C   UNL     1     -19.065  40.066  -9.636  0.00  0.00    +0.000 A 
BRANCH   6  10
ATOM     10  N   UNL     1     -18.646  40.405 -13.188  0.00  0.00    +0.000 N 
ATOM     11  H   UNL     1     -17.882  40.746 -13.758  0.00  0.00    +0.000 HD
ATOM     12  H   UNL     1     -19.553  40.306 -13.627  0.00  0.00    +0.000 HD
ENDBRANCH   6  10
ENDBRANCH   3   5
BRANCH   2  13
ATOM     13  C   UNL     1     -15.434  42.725 -11.426  0.00  0.00    +0.000 C 
ATOM     14  C   UNL     1     -14.035  43.265 -11.640  0.00  0.00    +0.000 C 
ENDBRANCH   2  13
BRANCH   2  15
ATOM     15  C   UNL     1     -15.841  44.354 -13.236  0.00  0.00    +0.000 C 
BRANCH  15  19
ATOM     16  F   UNL     1     -16.654  45.735 -11.499  0.00  0.00    +0.000 F 
ATOM     17  F   UNL     1     -15.024  46.500 -12.729  0.00  0.00    +0.000 F 
ATOM     18  F   UNL     1     -17.037  46.367 -13.557  0.00  0.00    +0.000 F 
ATOM     19  C   UNL     1     -16.147  45.749 -12.750  0.00  0.00    +0.000 C 
ENDBRANCH  15  19
ENDBRANCH   2  15
TORSDOF 5
ENDMDL
MODEL 4
REMARK VINA RESULT:    -4.445     19.741     22.018
REMARK INTER + INTRA:          -6.144
REMARK INTER:                  -5.452
REMARK INTRA:                  -0.692
REMARK UNBOUND:                -0.529
REMARK  Name = 62160163
REMARK  6 active torsions:
REMARK  status: ('A' for Active; 'I' for Inactive)
REMARK    1  A    between atoms: N_5  and  C_8
REMARK    2  A    between atoms: N_5  and  C_9
REMARK    3  A    between atoms: N_7  and  C_14
REMARK    4  A    between atoms: C_8  and  C_12
REMARK    5  A    between atoms: C_9  and  C_13
REMARK    6  A    between atoms: C_10  and  C_11
REMARK                            x       y       z     vdW  Elec       q    Type
REMARK                         _______ _______ _______ _____ _____    ______ ____
ROOT
ATOM      1  O   UNL     1     -20.920  29.057   6.360  0.00  0.00    +0.000 OA
ATOM      2  N   UNL     1     -21.823  30.433   4.700  0.00  0.00    +0.000 N 
ATOM      3  C   UNL     1     -21.884  29.480   5.722  0.00  0.00    +0.000 C 
ENDROOT
BRANCH   3   5
ATOM      4  N   UNL     1     -24.825  27.132   5.903  0.00  0.00    +0.000 NA
ATOM      5  C   UNL     1     -23.195  28.911   6.068  0.00  0.00    +0.000 A 
ATOM      6  C   UNL     1     -23.625  27.679   5.603  0.00  0.00    +0.000 A 
ATOM      7  C   UNL     1     -24.052  29.628   6.895  0.00  0.00    +0.000 A 
ATOM      8  C   UNL     1     -25.294  29.100   7.227  0.00  0.00    +0.000 A 
ATOM      9  C   UNL     1     -25.630  27.860   6.709  0.00  0.00    +0.000 A 
BRANCH   6  10
ATOM     10  N   UNL     1     -22.758  26.941   4.757  0.00  0.00    +0.000 N 
ATOM     11  H   UNL     1     -22.141  26.257   5.176  0.00  0.00    +0.000 HD
ATOM     12  H   UNL     1     -22.440  27.408   3.917  0.00  0.00    +0.000 HD
ENDBRANCH   6  10
ENDBRANCH   3   5
BRANCH   2  13
ATOM     13  C   UNL     1     -23.011  30.884   3.989  0.00  0.00    +0.000 C 
ATOM     14  C   UNL     1     -23.155  32.391   4.050  0.00  0.00    +0.000 C 
ENDBRANCH   2  13
BRANCH   2  15
ATOM     15  C   UNL     1     -20.563  31.041   4.277  0.00  0.00    +0.000 C 
BRANCH  15  19
ATOM     16  F   UNL     1     -20.471  31.239   1.925  0.00  0.00    +0.000 F 
ATOM     17  F   UNL     1     -18.734  30.404   2.945  0.00  0.00    +0.000 F 
ATOM     18  F   UNL     1     -20.558  29.223   2.767  0.00  0.00    +0.000 F 
ATOM     19  C   UNL     1     -20.083  30.473   2.966  0.00  0.00    +0.000 C 
ENDBRANCH  15  19
ENDBRANCH   2  15
TORSDOF 5
ENDMDL
MODEL 5
REMARK VINA RESULT:    -4.409      3.637      5.392
REMARK INTER + INTRA:          -6.098
REMARK INTER:                  -5.645
REMARK INTRA:                  -0.453
REMARK UNBOUND:                -0.529
REMARK  Name = 62160163
REMARK  6 active torsions:
REMARK  status: ('A' for Active; 'I' for Inactive)
REMARK    1  A    between atoms: N_5  and  C_8
REMARK    2  A    between atoms: N_5  and  C_9
REMARK    3  A    between atoms: N_7  and  C_14
REMARK    4  A    between atoms: C_8  and  C_12
REMARK    5  A    between atoms: C_9  and  C_13
REMARK    6  A    between atoms: C_10  and  C_11
REMARK                            x       y       z     vdW  Elec       q    Type
REMARK                         _______ _______ _______ _____ _____    ______ ____
ROOT
ATOM      1  O   UNL     1     -18.865  44.122 -12.562  0.00  0.00    +0.000 OA
ATOM      2  N   UNL     1     -16.574  44.425 -12.914  0.00  0.00    +0.000 N 
ATOM      3  C   UNL     1     -17.714  43.685 -12.586  0.00  0.00    +0.000 C 
ENDROOT
BRANCH   3   5
ATOM      4  N   UNL     1     -17.311  40.546 -10.542  0.00  0.00    +0.000 NA
ATOM      5  C   UNL     1     -17.548  42.270 -12.221  0.00  0.00    +0.000 A 
ATOM      6  C   UNL     1     -17.466  41.839 -10.907  0.00  0.00    +0.000 A 
ATOM      7  C   UNL     1     -17.465  41.313 -13.226  0.00  0.00    +0.000 A 
ATOM      8  C   UNL     1     -17.304  39.973 -12.892  0.00  0.00    +0.000 A 
ATOM      9  C   UNL     1     -17.233  39.645 -11.547  0.00  0.00    +0.000 A 
BRANCH   6  10
ATOM     10  N   UNL     1     -17.548  42.809  -9.876  0.00  0.00    +0.000 N 
ATOM     11  H   UNL     1     -16.804  43.490  -9.793  0.00  0.00    +0.000 HD
ATOM     12  H   UNL     1     -18.024  42.527  -9.027  0.00  0.00    +0.000 HD
ENDBRANCH   6  10
ENDBRANCH   3   5
BRANCH   2  13
ATOM     13  C   UNL     1     -15.242  43.836 -12.919  0.00  0.00    +0.000 C 
ATOM     14  C   UNL     1     -14.525  44.073 -11.607  0.00  0.00    +0.000 C 
ENDBRANCH   2  13
BRANCH   2  15
ATOM     15  C   UNL     1     -16.641  45.840 -13.273  0.00  0.00    +0.000 C 
BRANCH  15  19
ATOM     16  F   UNL     1     -15.508  47.219 -11.725  0.00  0.00    +0.000 F 
ATOM     17  F   UNL     1     -17.545  47.767 -12.275  0.00  0.00    +0.000 F 
ATOM     18  F   UNL     1     -17.196  46.044 -10.985  0.00  0.00    +0.000 F 
ATOM     19  C   UNL     1     -16.719  46.722 -12.052  0.00  0.00    +0.000 C 
ENDBRANCH  15  19
ENDBRANCH   2  15
TORSDOF 5
ENDMDL
