MODEL 1
REMARK VINA RESULT:    -6.208      0.000      0.000
REMARK INTER + INTRA:          -6.988
REMARK INTER:                  -6.752
REMARK INTRA:                  -0.236
REMARK UNBOUND:                -0.236
REMARK  Name = 62160147
REMARK  3 active torsions:
REMARK  status: ('A' for Active; 'I' for Inactive)
REMARK    1  A    between atoms: N_4  and  C_12
REMARK    2  A    between atoms: C_5  and  C_9
REMARK    3  A    between atoms: C_10  and  C_11
REMARK                            x       y       z     vdW  Elec       q    Type
REMARK                         _______ _______ _______ _____ _____    ______ ____
ROOT
ATOM      1  N   UNL     1     -20.675  40.098  -9.063  0.00  0.00    +0.000 NA
ATOM      2  C   UNL     1     -18.518  41.003  -9.675  0.00  0.00    +0.000 A 
ATOM      3  C   UNL     1     -19.607  40.174  -9.889  0.00  0.00    +0.000 A 
ATOM      4  C   UNL     1     -18.526  41.809  -8.541  0.00  0.00    +0.000 A 
ATOM      5  C   UNL     1     -19.607  41.759  -7.668  0.00  0.00    +0.000 A 
ATOM      6  C   UNL     1     -20.648  40.895  -7.971  0.00  0.00    +0.000 A 
ENDROOT
BRANCH   2  14
ATOM      7  O   UNL     1     -16.592  40.114 -10.591  0.00  0.00    +0.000 OA
ATOM      8  N   UNL     1     -17.247  42.194 -11.389  0.00  0.00    +0.000 N 
ATOM      9  C   UNL     1     -17.286  44.435 -12.139  0.00  0.00    +0.000 C 
ATOM     10  C   UNL     1     -16.501  43.582 -13.139  0.00  0.00    +0.000 C 
ATOM     11  C   UNL     1     -18.095  43.386 -11.376  0.00  0.00    +0.000 C 
ATOM     12  C   UNL     1     -16.139  42.353 -12.320  0.00  0.00    +0.000 C 
ATOM     13  C   UNL     1     -18.146  45.497 -12.798  0.00  0.00    +0.000 C 
ATOM     14  C   UNL     1     -17.371  41.065 -10.594  0.00  0.00    +0.000 C 
ENDBRANCH   2  14
BRANCH   3  15
ATOM     15  N   UNL     1     -19.608  39.352 -11.044  0.00  0.00    +0.000 N 
ATOM     16  H   UNL     1     -20.006  39.754 -11.885  0.00  0.00    +0.000 HD
ATOM     17  H   UNL     1     -18.866  38.672 -11.156  0.00  0.00    +0.000 HD
ENDBRANCH   3  15
TORSDOF 2
ENDMDL
MODEL 2
REMARK VINA RESULT:    -5.722      1.651      4.925
REMARK INTER + INTRA:          -6.460
REMARK INTER:                  -6.238
REMARK INTRA:                  -0.222
REMARK UNBOUND:                -0.236
REMARK  Name = 62160147
REMARK  3 active torsions:
REMARK  status: ('A' for Active; 'I' for Inactive)
REMARK    1  A    between atoms: N_4  and  C_12
REMARK    2  A    between atoms: C_5  and  C_9
REMARK    3  A    between atoms: C_10  and  C_11
REMARK                            x       y       z     vdW  Elec       q    Type
REMARK                         _______ _______ _______ _____ _____    ______ ____
ROOT
ATOM      1  N   UNL     1     -17.495  43.129 -13.431  0.00  0.00    +0.000 NA
ATOM      2  C   UNL     1     -17.937  41.351 -11.853  0.00  0.00    +0.000 A 
ATOM      3  C   UNL     1     -18.291  42.164 -12.917  0.00  0.00    +0.000 A 
ATOM      4  C   UNL     1     -16.684  41.538 -11.279  0.00  0.00    +0.000 A 
ATOM      5  C   UNL     1     -15.837  42.521 -11.780  0.00  0.00    +0.000 A 
ATOM      6  C   UNL     1     -16.285  43.283 -12.847  0.00  0.00    +0.000 A 
ENDROOT
BRANCH   2  14
ATOM      7  O   UNL     1     -19.059  39.339 -12.040  0.00  0.00    +0.000 OA
ATOM      8  N   UNL     1     -19.343  40.495 -10.047  0.00  0.00    +0.000 N 
ATOM      9  C   UNL     1     -20.246  41.505  -8.110  0.00  0.00    +0.000 C 
ATOM     10  C   UNL     1     -20.379  39.984  -7.994  0.00  0.00    +0.000 C 
ATOM     11  C   UNL     1     -19.165  41.661  -9.180  0.00  0.00    +0.000 C 
ATOM     12  C   UNL     1     -20.241  39.526  -9.437  0.00  0.00    +0.000 C 
ATOM     13  C   UNL     1     -19.896  42.180  -6.797  0.00  0.00    +0.000 C 
ATOM     14  C   UNL     1     -18.826  40.307 -11.319  0.00  0.00    +0.000 C 
ENDBRANCH   2  14
BRANCH   3  15
ATOM     15  N   UNL     1     -19.566  41.977 -13.510  0.00  0.00    +0.000 N 
ATOM     16  H   UNL     1     -20.070  42.816 -13.773  0.00  0.00    +0.000 HD
ATOM     17  H   UNL     1     -19.726  41.143 -14.060  0.00  0.00    +0.000 HD
ENDBRANCH   3  15
TORSDOF 2
ENDMDL
MODEL 3
REMARK VINA RESULT:    -5.602      1.764      2.410
REMARK INTER + INTRA:          -6.329
REMARK INTER:                  -6.016
REMARK INTRA:                  -0.312
REMARK UNBOUND:                -0.236
REMARK  Name = 62160147
REMARK  3 active torsions:
REMARK  status: ('A' for Active; 'I' for Inactive)
REMARK    1  A    between atoms: N_4  and  C_12
REMARK    2  A    between atoms: C_5  and  C_9
REMARK    3  A    between atoms: C_10  and  C_11
REMARK                            x       y       z     vdW  Elec       q    Type
REMARK                         _______ _______ _______ _____ _____    ______ ____
ROOT
ATOM      1  N   UNL     1     -18.450  39.336 -11.506  0.00  0.00    +0.000 NA
ATOM      2  C   UNL     1     -17.223  41.404 -11.253  0.00  0.00    +0.000 A 
ATOM      3  C   UNL     1     -17.448  40.175 -11.852  0.00  0.00    +0.000 A 
ATOM      4  C   UNL     1     -18.082  41.798 -10.233  0.00  0.00    +0.000 A 
ATOM      5  C   UNL     1     -19.125  40.962  -9.849  0.00  0.00    +0.000 A 
ATOM      6  C   UNL     1     -19.264  39.752 -10.510  0.00  0.00    +0.000 A 
ENDROOT
BRANCH   2  14
ATOM      7  O   UNL     1     -15.011  42.071 -11.186  0.00  0.00    +0.000 OA
ATOM      8  N   UNL     1     -16.428  43.334 -12.524  0.00  0.00    +0.000 N 
ATOM      9  C   UNL     1     -17.553  45.106 -13.609  0.00  0.00    +0.000 C 
ATOM     10  C   UNL     1     -16.092  45.084 -14.064  0.00  0.00    +0.000 C 
ATOM     11  C   UNL     1     -17.745  43.698 -13.047  0.00  0.00    +0.000 C 
ATOM     12  C   UNL     1     -15.412  44.278 -12.969  0.00  0.00    +0.000 C 
ATOM     13  C   UNL     1     -18.525  45.448 -14.723  0.00  0.00    +0.000 C 
ATOM     14  C   UNL     1     -16.125  42.297 -11.655  0.00  0.00    +0.000 C 
ENDBRANCH   2  14
BRANCH   3  15
ATOM     15  N   UNL     1     -16.578  39.768 -12.896  0.00  0.00    +0.000 N 
ATOM     16  H   UNL     1     -16.999  39.255 -13.661  0.00  0.00    +0.000 HD
ATOM     17  H   UNL     1     -15.770  40.341 -13.104  0.00  0.00    +0.000 HD
ENDBRANCH   3  15
TORSDOF 2
ENDMDL
MODEL 4
REMARK VINA RESULT:    -5.406      1.969      5.221
REMARK INTER + INTRA:          -6.116
REMARK INTER:                  -5.799
REMARK INTRA:                  -0.317
REMARK UNBOUND:                -0.236
REMARK  Name = 62160147
REMARK  3 active torsions:
REMARK  status: ('A' for Active; 'I' for Inactive)
REMARK    1  A    between atoms: N_4  and  C_12
REMARK    2  A    between atoms: C_5  and  C_9
REMARK    3  A    between atoms: C_10  and  C_11
REMARK                            x       y       z     vdW  Elec       q    Type
REMARK                         _______ _______ _______ _____ _____    ______ ____
ROOT
ATOM      1  N   UNL     1     -15.311  45.118 -11.955  0.00  0.00    +0.000 NA
ATOM      2  C   UNL     1     -17.363  43.871 -12.238  0.00  0.00    +0.000 A 
ATOM      3  C   UNL     1     -15.982  43.985 -12.260  0.00  0.00    +0.000 A 
ATOM      4  C   UNL     1     -18.103  44.992 -11.879  0.00  0.00    +0.000 A 
ATOM      5  C   UNL     1     -17.449  46.176 -11.558  0.00  0.00    +0.000 A 
ATOM      6  C   UNL     1     -16.063  46.188 -11.611  0.00  0.00    +0.000 A 
ENDROOT
BRANCH   2  14
ATOM      7  O   UNL     1     -18.270  42.390 -13.762  0.00  0.00    +0.000 OA
ATOM      8  N   UNL     1     -18.450  41.803 -11.523  0.00  0.00    +0.000 N 
ATOM      9  C   UNL     1     -19.232  41.052  -9.423  0.00  0.00    +0.000 C 
ATOM     10  C   UNL     1     -19.183  39.870 -10.394  0.00  0.00    +0.000 C 
ATOM     11  C   UNL     1     -18.304  42.067 -10.091  0.00  0.00    +0.000 C 
ATOM     12  C   UNL     1     -19.161  40.553 -11.752  0.00  0.00    +0.000 C 
ATOM     13  C   UNL     1     -18.810  40.689  -8.011  0.00  0.00    +0.000 C 
ATOM     14  C   UNL     1     -18.064  42.621 -12.573  0.00  0.00    +0.000 C 
ENDBRANCH   2  14
BRANCH   3  15
ATOM     15  N   UNL     1     -15.220  42.845 -12.623  0.00  0.00    +0.000 N 
ATOM     16  H   UNL     1     -15.287  42.545 -13.588  0.00  0.00    +0.000 HD
ATOM     17  H   UNL     1     -14.349  42.671 -12.137  0.00  0.00    +0.000 HD
ENDBRANCH   3  15
TORSDOF 2
ENDMDL
MODEL 5
REMARK VINA RESULT:    -4.990      2.658      3.807
REMARK INTER + INTRA:          -5.664
REMARK INTER:                  -5.383
REMARK INTRA:                  -0.281
REMARK UNBOUND:                -0.236
REMARK  Name = 62160147
REMARK  3 active torsions:
REMARK  status: ('A' for Active; 'I' for Inactive)
REMARK    1  A    between atoms: N_4  and  C_12
REMARK    2  A    between atoms: C_5  and  C_9
REMARK    3  A    between atoms: C_10  and  C_11
REMARK                            x       y       z     vdW  Elec       q    Type
REMARK                         _______ _______ _______ _____ _____    ______ ____
ROOT
ATOM      1  N   UNL     1     -19.549  41.767 -13.232  0.00  0.00    +0.000 NA
ATOM      2  C   UNL     1     -17.552  42.880 -12.447  0.00  0.00    +0.000 A 
ATOM      3  C   UNL     1     -18.525  42.634 -13.401  0.00  0.00    +0.000 A 
ATOM      4  C   UNL     1     -17.634  42.193 -11.240  0.00  0.00    +0.000 A 
ATOM      5  C   UNL     1     -18.673  41.293 -11.029  0.00  0.00    +0.000 A 
ATOM      6  C   UNL     1     -19.597  41.117 -12.048  0.00  0.00    +0.000 A 
ENDROOT
BRANCH   2  14
ATOM      7  O   UNL     1     -15.406  43.392 -13.134  0.00  0.00    +0.000 OA
ATOM      8  N   UNL     1     -16.668  45.153 -12.300  0.00  0.00    +0.000 N 
ATOM      9  C   UNL     1     -17.402  47.082 -11.148  0.00  0.00    +0.000 C 
ATOM     10  C   UNL     1     -16.343  47.483 -12.177  0.00  0.00    +0.000 C 
ATOM     11  C   UNL     1     -17.857  45.714 -11.658  0.00  0.00    +0.000 C 
ATOM     12  C   UNL     1     -15.635  46.167 -12.459  0.00  0.00    +0.000 C 
ATOM     13  C   UNL     1     -18.533  48.086 -11.025  0.00  0.00    +0.000 C 
ATOM     14  C   UNL     1     -16.450  43.832 -12.660  0.00  0.00    +0.000 C 
ENDBRANCH   2  14
BRANCH   3  15
ATOM     15  N   UNL     1     -18.450  43.333 -14.633  0.00  0.00    +0.000 N 
ATOM     16  H   UNL     1     -19.324  43.480 -15.124  0.00  0.00    +0.000 HD
ATOM     17  H   UNL     1     -17.723  44.027 -14.751  0.00  0.00    +0.000 HD
ENDBRANCH   3  15
TORSDOF 2
ENDMDL
