MODEL 1
REMARK VINA RESULT:    -6.531      0.000      0.000
REMARK INTER + INTRA:          -8.984
REMARK INTER:                  -8.440
REMARK INTRA:                  -0.544
REMARK UNBOUND:                -0.544
REMARK  Name = 62173314
REMARK  6 active torsions:
REMARK  status: ('A' for Active; 'I' for Inactive)
REMARK    1  A    between atoms: N_5  and  C_8
REMARK    2  A    between atoms: N_6  and  C_15
REMARK    3  A    between atoms: C_8  and  C_9
REMARK    4  A    between atoms: C_9  and  C_12
REMARK    5  A    between atoms: C_11  and  C_16
REMARK    6  A    between atoms: C_15  and  C_18
REMARK                            x       y       z     vdW  Elec       q    Type
REMARK                         _______ _______ _______ _____ _____    ______ ____
ROOT
ATOM      1  N   UNL     1     -17.747  41.698  -9.608  0.00  0.00    +0.000 N 
ATOM      2  N   UNL     1     -17.450  43.334 -11.277  0.00  0.00    +0.000 NA
ATOM      3  C   UNL     1     -18.056  42.199 -10.864  0.00  0.00    +0.000 A 
ATOM      4  C   UNL     1     -18.696  43.149 -13.340  0.00  0.00    +0.000 A 
ATOM      5  C   UNL     1     -18.978  41.493 -11.619  0.00  0.00    +0.000 A 
ATOM      6  C   UNL     1     -19.299  41.983 -12.879  0.00  0.00    +0.000 A 
ATOM      7  C   UNL     1     -17.787  43.781 -12.507  0.00  0.00    +0.000 A 
ATOM      8  H   UNL     1     -17.068  42.218  -9.063  0.00  0.00    +0.000 HD
ENDROOT
BRANCH   4  11
ATOM      9  O   UNL     1     -18.865  44.900 -14.890  0.00  0.00    +0.000 OA
ATOM     10  N   UNL     1     -19.457  42.782 -15.622  0.00  0.00    +0.000 N 
ATOM     11  C   UNL     1     -19.010  43.687 -14.652  0.00  0.00    +0.000 C 
ATOM     12  H   UNL     1     -19.504  41.791 -15.407  0.00  0.00    +0.000 HD
BRANCH  10  13
ATOM     13  C   UNL     1     -19.788  43.158 -16.977  0.00  0.00    +0.000 C 
BRANCH  13  17
ATOM     14  F   UNL     1     -21.688  43.932 -18.124  0.00  0.00    +0.000 F 
ATOM     15  F   UNL     1     -21.519  41.782 -17.808  0.00  0.00    +0.000 F 
ATOM     16  F   UNL     1     -21.994  43.102 -16.131  0.00  0.00    +0.000 F 
ATOM     17  C   UNL     1     -21.260  42.987 -17.259  0.00  0.00    +0.000 C 
ENDBRANCH  13  17
ENDBRANCH  10  13
ENDBRANCH   4  11
BRANCH   1  18
ATOM     18  C   UNL     1     -18.328  40.496  -9.059  0.00  0.00    +0.000 C 
BRANCH  18  19
ATOM     19  C   UNL     1     -19.294  40.832  -7.929  0.00  0.00    +0.000 C 
ATOM     20  C   UNL     1     -20.751  40.812  -8.370  0.00  0.00    +0.000 C 
ENDBRANCH  18  19
ENDBRANCH   1  18
TORSDOF 5
ENDMDL
MODEL 2
REMARK VINA RESULT:    -5.818      5.424      6.344
REMARK INTER + INTRA:          -8.062
REMARK INTER:                  -7.625
REMARK INTRA:                  -0.437
REMARK UNBOUND:                -0.544
REMARK  Name = 62173314
REMARK  6 active torsions:
REMARK  status: ('A' for Active; 'I' for Inactive)
REMARK    1  A    between atoms: N_5  and  C_8
REMARK    2  A    between atoms: N_6  and  C_15
REMARK    3  A    between atoms: C_8  and  C_9
REMARK    4  A    between atoms: C_9  and  C_12
REMARK    5  A    between atoms: C_11  and  C_16
REMARK    6  A    between atoms: C_15  and  C_18
REMARK                            x       y       z     vdW  Elec       q    Type
REMARK                         _______ _______ _______ _____ _____    ______ ____
ROOT
ATOM      1  N   UNL     1     -20.711  40.287  -9.069  0.00  0.00    +0.000 N 
ATOM      2  N   UNL     1     -19.462  40.518 -11.054  0.00  0.00    +0.000 NA
ATOM      3  C   UNL     1     -19.631  40.829  -9.749  0.00  0.00    +0.000 A 
ATOM      4  C   UNL     1     -17.492  41.919 -11.046  0.00  0.00    +0.000 A 
ATOM      5  C   UNL     1     -18.787  41.664  -9.035  0.00  0.00    +0.000 A 
ATOM      6  C   UNL     1     -17.699  42.215  -9.703  0.00  0.00    +0.000 A 
ATOM      7  C   UNL     1     -18.394  41.072 -11.670  0.00  0.00    +0.000 A 
ATOM      8  H   UNL     1     -21.326  39.680  -9.599  0.00  0.00    +0.000 HD
ENDROOT
BRANCH   4  11
ATOM      9  O   UNL     1     -16.441  42.686 -12.997  0.00  0.00    +0.000 OA
ATOM     10  N   UNL     1     -15.218  42.787 -11.029  0.00  0.00    +0.000 N 
ATOM     11  C   UNL     1     -16.365  42.478 -11.771  0.00  0.00    +0.000 C 
ATOM     12  H   UNL     1     -15.218  42.660 -10.023  0.00  0.00    +0.000 HD
BRANCH  10  13
ATOM     13  C   UNL     1     -14.026  43.368 -11.602  0.00  0.00    +0.000 C 
BRANCH  13  17
ATOM     14  F   UNL     1     -12.159  43.234 -10.180  0.00  0.00    +0.000 F 
ATOM     15  F   UNL     1     -13.090  41.358 -10.786  0.00  0.00    +0.000 F 
ATOM     16  F   UNL     1     -11.913  42.511 -12.223  0.00  0.00    +0.000 F 
ATOM     17  C   UNL     1     -12.788  42.607 -11.199  0.00  0.00    +0.000 C 
ENDBRANCH  13  17
ENDBRANCH  10  13
ENDBRANCH   4  11
BRANCH   1  18
ATOM     18  C   UNL     1     -20.993  40.545  -7.677  0.00  0.00    +0.000 C 
BRANCH  18  19
ATOM     19  C   UNL     1     -22.343  41.236  -7.520  0.00  0.00    +0.000 C 
ATOM     20  C   UNL     1     -22.250  42.548  -6.753  0.00  0.00    +0.000 C 
ENDBRANCH  18  19
ENDBRANCH   1  18
TORSDOF 5
ENDMDL
MODEL 3
REMARK VINA RESULT:    -5.702      4.157      7.299
REMARK INTER + INTRA:          -7.912
REMARK INTER:                  -7.567
REMARK INTRA:                  -0.345
REMARK UNBOUND:                -0.544
REMARK  Name = 62173314
REMARK  6 active torsions:
REMARK  status: ('A' for Active; 'I' for Inactive)
REMARK    1  A    between atoms: N_5  and  C_8
REMARK    2  A    between atoms: N_6  and  C_15
REMARK    3  A    between atoms: C_8  and  C_9
REMARK    4  A    between atoms: C_9  and  C_12
REMARK    5  A    between atoms: C_11  and  C_16
REMARK    6  A    between atoms: C_15  and  C_18
REMARK                            x       y       z     vdW  Elec       q    Type
REMARK                         _______ _______ _______ _____ _____    ______ ____
ROOT
ATOM      1  N   UNL     1     -19.854  44.049 -16.094  0.00  0.00    +0.000 N 
ATOM      2  N   UNL     1     -19.721  42.352 -14.464  0.00  0.00    +0.000 NA
ATOM      3  C   UNL     1     -19.379  43.595 -14.873  0.00  0.00    +0.000 A 
ATOM      4  C   UNL     1     -18.424  42.744 -12.462  0.00  0.00    +0.000 A 
ATOM      5  C   UNL     1     -18.578  44.457 -14.143  0.00  0.00    +0.000 A 
ATOM      6  C   UNL     1     -18.096  44.017 -12.916  0.00  0.00    +0.000 A 
ATOM      7  C   UNL     1     -19.233  41.958 -13.267  0.00  0.00    +0.000 A 
ATOM      8  H   UNL     1     -20.437  43.410 -16.623  0.00  0.00    +0.000 HD
ENDROOT
BRANCH   4  11
ATOM      9  O   UNL     1     -16.844  42.646 -10.732  0.00  0.00    +0.000 OA
ATOM     10  N   UNL     1     -18.754  41.353 -10.492  0.00  0.00    +0.000 N 
ATOM     11  C   UNL     1     -17.936  42.254 -11.185  0.00  0.00    +0.000 C 
ATOM     12  H   UNL     1     -19.664  41.106 -10.866  0.00  0.00    +0.000 HD
BRANCH  10  13
ATOM     13  C   UNL     1     -18.419  40.796  -9.202  0.00  0.00    +0.000 C 
BRANCH  13  17
ATOM     14  F   UNL     1     -19.305  40.177  -7.116  0.00  0.00    +0.000 F 
ATOM     15  F   UNL     1     -20.422  41.643  -8.280  0.00  0.00    +0.000 F 
ATOM     16  F   UNL     1     -20.400  39.545  -8.893  0.00  0.00    +0.000 F 
ATOM     17  C   UNL     1     -19.651  40.539  -8.371  0.00  0.00    +0.000 C 
ENDBRANCH  13  17
ENDBRANCH  10  13
ENDBRANCH   4  11
BRANCH   1  18
ATOM     18  C   UNL     1     -19.558  45.355 -16.633  0.00  0.00    +0.000 C 
BRANCH  18  19
ATOM     19  C   UNL     1     -20.830  46.037 -17.123  0.00  0.00    +0.000 C 
ATOM     20  C   UNL     1     -20.774  47.553 -16.994  0.00  0.00    +0.000 C 
ENDBRANCH  18  19
ENDBRANCH   1  18
TORSDOF 5
ENDMDL
MODEL 4
REMARK VINA RESULT:    -5.565      3.154      3.728
REMARK INTER + INTRA:          -7.736
REMARK INTER:                  -7.321
REMARK INTRA:                  -0.415
REMARK UNBOUND:                -0.544
REMARK  Name = 62173314
REMARK  6 active torsions:
REMARK  status: ('A' for Active; 'I' for Inactive)
REMARK    1  A    between atoms: N_5  and  C_8
REMARK    2  A    between atoms: N_6  and  C_15
REMARK    3  A    between atoms: C_8  and  C_9
REMARK    4  A    between atoms: C_9  and  C_12
REMARK    5  A    between atoms: C_11  and  C_16
REMARK    6  A    between atoms: C_15  and  C_18
REMARK                            x       y       z     vdW  Elec       q    Type
REMARK                         _______ _______ _______ _____ _____    ______ ____
ROOT
ATOM      1  N   UNL     1     -19.943  40.224 -10.334  0.00  0.00    +0.000 N 
ATOM      2  N   UNL     1     -19.175  41.143 -12.362  0.00  0.00    +0.000 NA
ATOM      3  C   UNL     1     -19.094  41.083 -11.014  0.00  0.00    +0.000 A 
ATOM      4  C   UNL     1     -17.403  42.786 -12.311  0.00  0.00    +0.000 A 
ATOM      5  C   UNL     1     -18.208  41.830 -10.256  0.00  0.00    +0.000 A 
ATOM      6  C   UNL     1     -17.349  42.695 -10.924  0.00  0.00    +0.000 A 
ATOM      7  C   UNL     1     -18.325  41.996 -12.977  0.00  0.00    +0.000 A 
ATOM      8  H   UNL     1     -20.591  39.683 -10.895  0.00  0.00    +0.000 HD
ENDROOT
BRANCH   4  11
ATOM      9  O   UNL     1     -15.283  43.539 -12.974  0.00  0.00    +0.000 OA
ATOM     10  N   UNL     1     -17.119  44.677 -13.816  0.00  0.00    +0.000 N 
ATOM     11  C   UNL     1     -16.519  43.681 -13.038  0.00  0.00    +0.000 C 
ATOM     12  H   UNL     1     -18.130  44.721 -13.890  0.00  0.00    +0.000 HD
BRANCH  10  13
ATOM     13  C   UNL     1     -16.377  45.627 -14.613  0.00  0.00    +0.000 C 
BRANCH  13  17
ATOM     14  F   UNL     1     -18.524  45.844 -15.545  0.00  0.00    +0.000 F 
ATOM     15  F   UNL     1     -17.255  47.617 -15.536  0.00  0.00    +0.000 F 
ATOM     16  F   UNL     1     -16.826  45.970 -16.908  0.00  0.00    +0.000 F 
ATOM     17  C   UNL     1     -17.248  46.273 -15.662  0.00  0.00    +0.000 C 
ENDBRANCH  13  17
ENDBRANCH  10  13
ENDBRANCH   4  11
BRANCH   1  18
ATOM     18  C   UNL     1     -19.949  40.073  -8.898  0.00  0.00    +0.000 C 
BRANCH  18  19
ATOM     19  C   UNL     1     -21.088  40.873  -8.276  0.00  0.00    +0.000 C 
ATOM     20  C   UNL     1     -20.614  41.833  -7.194  0.00  0.00    +0.000 C 
ENDBRANCH  18  19
ENDBRANCH   1  18
TORSDOF 5
ENDMDL
MODEL 5
REMARK VINA RESULT:    -5.498      1.888      2.310
REMARK INTER + INTRA:          -7.649
REMARK INTER:                  -7.117
REMARK INTRA:                  -0.532
REMARK UNBOUND:                -0.544
REMARK  Name = 62173314
REMARK  6 active torsions:
REMARK  status: ('A' for Active; 'I' for Inactive)
REMARK    1  A    between atoms: N_5  and  C_8
REMARK    2  A    between atoms: N_6  and  C_15
REMARK    3  A    between atoms: C_8  and  C_9
REMARK    4  A    between atoms: C_9  and  C_12
REMARK    5  A    between atoms: C_11  and  C_16
REMARK    6  A    between atoms: C_15  and  C_18
REMARK                            x       y       z     vdW  Elec       q    Type
REMARK                         _______ _______ _______ _____ _____    ______ ____
ROOT
ATOM      1  N   UNL     1     -18.896  40.422 -10.939  0.00  0.00    +0.000 N 
ATOM      2  N   UNL     1     -19.644  41.337 -12.978  0.00  0.00    +0.000 NA
ATOM      3  C   UNL     1     -18.866  41.443 -11.877  0.00  0.00    +0.000 A 
ATOM      4  C   UNL     1     -18.774  43.475 -13.696  0.00  0.00    +0.000 A 
ATOM      5  C   UNL     1     -18.030  42.517 -11.619  0.00  0.00    +0.000 A 
ATOM      6  C   UNL     1     -17.988  43.547 -12.551  0.00  0.00    +0.000 A 
ATOM      7  C   UNL     1     -19.577  42.358 -13.860  0.00  0.00    +0.000 A 
ATOM      8  H   UNL     1     -19.513  39.642 -11.133  0.00  0.00    +0.000 HD
ENDROOT
BRANCH   4  11
ATOM      9  O   UNL     1     -17.839  45.381 -14.691  0.00  0.00    +0.000 OA
ATOM     10  N   UNL     1     -19.784  44.544 -15.635  0.00  0.00    +0.000 N 
ATOM     11  C   UNL     1     -18.753  44.536 -14.687  0.00  0.00    +0.000 C 
ATOM     12  H   UNL     1     -20.476  43.802 -15.636  0.00  0.00    +0.000 HD
BRANCH  10  13
ATOM     13  C   UNL     1     -19.888  45.518 -16.697  0.00  0.00    +0.000 C 
BRANCH  13  17
ATOM     14  F   UNL     1     -18.009  45.472 -18.107  0.00  0.00    +0.000 F 
ATOM     15  F   UNL     1     -19.223  43.664 -18.002  0.00  0.00    +0.000 F 
ATOM     16  F   UNL     1     -19.971  45.426 -19.057  0.00  0.00    +0.000 F 
ATOM     17  C   UNL     1     -19.273  45.013 -17.978  0.00  0.00    +0.000 C 
ENDBRANCH  13  17
ENDBRANCH  10  13
ENDBRANCH   4  11
BRANCH   1  18
ATOM     18  C   UNL     1     -18.111  40.424  -9.727  0.00  0.00    +0.000 C 
BRANCH  18  19
ATOM     19  C   UNL     1     -18.980  40.762  -8.522  0.00  0.00    +0.000 C 
ATOM     20  C   UNL     1     -20.402  40.232  -8.652  0.00  0.00    +0.000 C 
ENDBRANCH  18  19
ENDBRANCH   1  18
TORSDOF 5
ENDMDL
