MODEL 1
REMARK VINA RESULT:    -5.581      0.000      0.000
REMARK INTER + INTRA:          -6.830
REMARK INTER:                  -6.559
REMARK INTRA:                  -0.270
REMARK UNBOUND:                -0.270
REMARK  Name = 62171627
REMARK  6 active torsions:
REMARK  status: ('A' for Active; 'I' for Inactive)
REMARK    1  A    between atoms: N_2  and  C_5
REMARK    2  A    between atoms: N_2  and  C_6
REMARK    3  A    between atoms: N_4  and  C_15
REMARK    4  A    between atoms: C_5  and  C_9
REMARK    5  A    between atoms: C_6  and  C_10
REMARK    6  A    between atoms: C_7  and  C_8
REMARK                            x       y       z     vdW  Elec       q    Type
REMARK                         _______ _______ _______ _____ _____    ______ ____
ROOT
ATOM      1  N   UNL     1     -19.433  42.158  -7.643  0.00  0.00    +0.000 NA
ATOM      2  N   UNL     1     -21.526  41.442  -6.755  0.00  0.00    +0.000 N 
ATOM      3  C   UNL     1     -18.595  41.150  -9.673  0.00  0.00    +0.000 A 
ATOM      4  C   UNL     1     -19.723  40.339  -9.745  0.00  0.00    +0.000 A 
ATOM      5  C   UNL     1     -18.499  42.035  -8.612  0.00  0.00    +0.000 A 
ATOM      6  C   UNL     1     -20.705  40.436  -8.766  0.00  0.00    +0.000 A 
ATOM      7  C   UNL     1     -20.515  41.353  -7.745  0.00  0.00    +0.000 A 
ATOM      8  C   UNL     1     -21.448  42.345  -5.655  0.00  0.00    +0.000 C 
ATOM      9  H   UNL     1     -22.202  40.687  -6.718  0.00  0.00    +0.000 HD
ENDROOT
BRANCH   3  12
ATOM     10  O   UNL     1     -16.645  40.249 -10.489  0.00  0.00    +0.000 OA
ATOM     11  N   UNL     1     -17.626  41.909 -11.810  0.00  0.00    +0.000 N 
ATOM     12  C   UNL     1     -17.537  41.071 -10.693  0.00  0.00    +0.000 C 
BRANCH  11  13
ATOM     13  C   UNL     1     -18.721  42.861 -11.982  0.00  0.00    +0.000 C 
ATOM     14  C   UNL     1     -19.492  42.595 -13.259  0.00  0.00    +0.000 C 
ENDBRANCH  11  13
BRANCH  11  15
ATOM     15  C   UNL     1     -16.636  41.889 -12.876  0.00  0.00    +0.000 C 
ATOM     16  C   UNL     1     -15.833  43.172 -12.913  0.00  0.00    +0.000 C 
ENDBRANCH  11  15
ENDBRANCH   3  12
TORSDOF 3
ENDMDL
MODEL 2
REMARK VINA RESULT:    -4.953      2.622      3.740
REMARK INTER + INTRA:          -6.092
REMARK INTER:                  -5.821
REMARK INTRA:                  -0.271
REMARK UNBOUND:                -0.270
REMARK  Name = 62171627
REMARK  6 active torsions:
REMARK  status: ('A' for Active; 'I' for Inactive)
REMARK    1  A    between atoms: N_2  and  C_5
REMARK    2  A    between atoms: N_2  and  C_6
REMARK    3  A    between atoms: N_4  and  C_15
REMARK    4  A    between atoms: C_5  and  C_9
REMARK    5  A    between atoms: C_6  and  C_10
REMARK    6  A    between atoms: C_7  and  C_8
REMARK                            x       y       z     vdW  Elec       q    Type
REMARK                         _______ _______ _______ _____ _____    ______ ____
ROOT
ATOM      1  N   UNL     1     -18.262  41.861 -10.146  0.00  0.00    +0.000 NA
ATOM      2  N   UNL     1     -20.016  40.263 -10.363  0.00  0.00    +0.000 N 
ATOM      3  C   UNL     1     -17.355  42.906 -12.128  0.00  0.00    +0.000 A 
ATOM      4  C   UNL     1     -18.233  42.177 -12.923  0.00  0.00    +0.000 A 
ATOM      5  C   UNL     1     -17.409  42.714 -10.757  0.00  0.00    +0.000 A 
ATOM      6  C   UNL     1     -19.125  41.290 -12.332  0.00  0.00    +0.000 A 
ATOM      7  C   UNL     1     -19.100  41.170 -10.952  0.00  0.00    +0.000 A 
ATOM      8  C   UNL     1     -20.090  40.048  -8.955  0.00  0.00    +0.000 C 
ATOM      9  H   UNL     1     -20.467  39.596 -10.980  0.00  0.00    +0.000 HD
ENDROOT
BRANCH   3  12
ATOM     10  O   UNL     1     -15.282  43.406 -12.986  0.00  0.00    +0.000 OA
ATOM     11  N   UNL     1     -16.821  45.165 -12.960  0.00  0.00    +0.000 N 
ATOM     12  C   UNL     1     -16.398  43.853 -12.724  0.00  0.00    +0.000 C 
BRANCH  11  13
ATOM     13  C   UNL     1     -18.167  45.621 -12.621  0.00  0.00    +0.000 C 
ATOM     14  C   UNL     1     -18.135  46.709 -11.568  0.00  0.00    +0.000 C 
ENDBRANCH  11  13
BRANCH  11  15
ATOM     15  C   UNL     1     -15.950  46.165 -13.560  0.00  0.00    +0.000 C 
ATOM     16  C   UNL     1     -16.048  46.151 -15.072  0.00  0.00    +0.000 C 
ENDBRANCH  11  15
ENDBRANCH   3  12
TORSDOF 3
ENDMDL
MODEL 3
REMARK VINA RESULT:    -4.316      3.188      4.684
REMARK INTER + INTRA:          -5.343
REMARK INTER:                  -5.195
REMARK INTRA:                  -0.148
REMARK UNBOUND:                -0.270
REMARK  Name = 62171627
REMARK  6 active torsions:
REMARK  status: ('A' for Active; 'I' for Inactive)
REMARK    1  A    between atoms: N_2  and  C_5
REMARK    2  A    between atoms: N_2  and  C_6
REMARK    3  A    between atoms: N_4  and  C_15
REMARK    4  A    between atoms: C_5  and  C_9
REMARK    5  A    between atoms: C_6  and  C_10
REMARK    6  A    between atoms: C_7  and  C_8
REMARK                            x       y       z     vdW  Elec       q    Type
REMARK                         _______ _______ _______ _____ _____    ______ ____
ROOT
ATOM      1  N   UNL     1     -18.712  41.634 -12.373  0.00  0.00    +0.000 NA
ATOM      2  N   UNL     1     -18.951  39.764 -10.914  0.00  0.00    +0.000 N 
ATOM      3  C   UNL     1     -17.657  43.650 -11.558  0.00  0.00    +0.000 A 
ATOM      4  C   UNL     1     -17.472  43.059 -10.313  0.00  0.00    +0.000 A 
ATOM      5  C   UNL     1     -18.277  42.902 -12.546  0.00  0.00    +0.000 A 
ATOM      6  C   UNL     1     -17.906  41.756 -10.097  0.00  0.00    +0.000 A 
ATOM      7  C   UNL     1     -18.515  41.092 -11.150  0.00  0.00    +0.000 A 
ATOM      8  C   UNL     1     -19.591  38.976 -11.915  0.00  0.00    +0.000 C 
ATOM      9  H   UNL     1     -19.006  39.461  -9.948  0.00  0.00    +0.000 HD
ENDROOT
BRANCH   3  12
ATOM     10  O   UNL     1     -17.984  45.924 -11.489  0.00  0.00    +0.000 OA
ATOM     11  N   UNL     1     -15.951  45.218 -12.400  0.00  0.00    +0.000 N 
ATOM     12  C   UNL     1     -17.209  45.027 -11.819  0.00  0.00    +0.000 C 
BRANCH  11  13
ATOM     13  C   UNL     1     -15.085  44.099 -12.764  0.00  0.00    +0.000 C 
ATOM     14  C   UNL     1     -14.002  43.876 -11.728  0.00  0.00    +0.000 C 
ENDBRANCH  11  13
BRANCH  11  15
ATOM     15  C   UNL     1     -15.418  46.544 -12.679  0.00  0.00    +0.000 C 
ATOM     16  C   UNL     1     -14.993  47.251 -11.409  0.00  0.00    +0.000 C 
ENDBRANCH  11  15
ENDBRANCH   3  12
TORSDOF 3
ENDMDL
MODEL 4
REMARK VINA RESULT:    -4.227      4.158      5.649
REMARK INTER + INTRA:          -5.238
REMARK INTER:                  -5.214
REMARK INTRA:                  -0.024
REMARK UNBOUND:                -0.270
REMARK  Name = 62171627
REMARK  6 active torsions:
REMARK  status: ('A' for Active; 'I' for Inactive)
REMARK    1  A    between atoms: N_2  and  C_5
REMARK    2  A    between atoms: N_2  and  C_6
REMARK    3  A    between atoms: N_4  and  C_15
REMARK    4  A    between atoms: C_5  and  C_9
REMARK    5  A    between atoms: C_6  and  C_10
REMARK    6  A    between atoms: C_7  and  C_8
REMARK                            x       y       z     vdW  Elec       q    Type
REMARK                         _______ _______ _______ _____ _____    ______ ____
ROOT
ATOM      1  N   UNL     1     -16.994  42.010 -12.841  0.00  0.00    +0.000 NA
ATOM      2  N   UNL     1     -17.686  40.031 -11.707  0.00  0.00    +0.000 N 
ATOM      3  C   UNL     1     -18.654  43.433 -13.870  0.00  0.00    +0.000 A 
ATOM      4  C   UNL     1     -19.663  42.574 -13.448  0.00  0.00    +0.000 A 
ATOM      5  C   UNL     1     -17.348  43.110 -13.543  0.00  0.00    +0.000 A 
ATOM      6  C   UNL     1     -19.339  41.433 -12.724  0.00  0.00    +0.000 A 
ATOM      7  C   UNL     1     -18.001  41.199 -12.448  0.00  0.00    +0.000 A 
ATOM      8  C   UNL     1     -16.349  39.678 -11.359  0.00  0.00    +0.000 C 
ATOM      9  H   UNL     1     -18.412  39.328 -11.623  0.00  0.00    +0.000 HD
ENDROOT
BRANCH   3  12
ATOM     10  O   UNL     1     -18.680  45.720 -14.104  0.00  0.00    +0.000 OA
ATOM     11  N   UNL     1     -19.538  44.505 -15.907  0.00  0.00    +0.000 N 
ATOM     12  C   UNL     1     -18.965  44.649 -14.639  0.00  0.00    +0.000 C 
BRANCH  11  13
ATOM     13  C   UNL     1     -19.847  43.195 -16.476  0.00  0.00    +0.000 C 
ATOM     14  C   UNL     1     -21.174  43.207 -17.207  0.00  0.00    +0.000 C 
ENDBRANCH  11  13
BRANCH  11  15
ATOM     15  C   UNL     1     -19.864  45.649 -16.746  0.00  0.00    +0.000 C 
ATOM     16  C   UNL     1     -18.709  46.020 -17.653  0.00  0.00    +0.000 C 
ENDBRANCH  11  15
ENDBRANCH   3  12
TORSDOF 3
ENDMDL
MODEL 5
REMARK VINA RESULT:    -4.036      4.764      6.256
REMARK INTER + INTRA:          -5.015
REMARK INTER:                  -4.743
REMARK INTRA:                  -0.272
REMARK UNBOUND:                -0.270
REMARK  Name = 62171627
REMARK  6 active torsions:
REMARK  status: ('A' for Active; 'I' for Inactive)
REMARK    1  A    between atoms: N_2  and  C_5
REMARK    2  A    between atoms: N_2  and  C_6
REMARK    3  A    between atoms: N_4  and  C_15
REMARK    4  A    between atoms: C_5  and  C_9
REMARK    5  A    between atoms: C_6  and  C_10
REMARK    6  A    between atoms: C_7  and  C_8
REMARK                            x       y       z     vdW  Elec       q    Type
REMARK                         _______ _______ _______ _____ _____    ______ ____
ROOT
ATOM      1  N   UNL     1     -18.276  42.428 -13.323  0.00  0.00    +0.000 NA
ATOM      2  N   UNL     1     -16.606  40.833 -12.733  0.00  0.00    +0.000 N 
ATOM      3  C   UNL     1     -17.836  44.783 -13.000  0.00  0.00    +0.000 A 
ATOM      4  C   UNL     1     -16.573  44.486 -12.498  0.00  0.00    +0.000 A 
ATOM      5  C   UNL     1     -18.641  43.727 -13.395  0.00  0.00    +0.000 A 
ATOM      6  C   UNL     1     -16.161  43.161 -12.408  0.00  0.00    +0.000 A 
ATOM      7  C   UNL     1     -17.041  42.178 -12.830  0.00  0.00    +0.000 A 
ATOM      8  C   UNL     1     -17.418  39.731 -13.134  0.00  0.00    +0.000 C 
ATOM      9  H   UNL     1     -15.790  40.651 -12.159  0.00  0.00    +0.000 HD
ENDROOT
BRANCH   3  12
ATOM     10  O   UNL     1     -18.863  46.639 -12.115  0.00  0.00    +0.000 OA
ATOM     11  N   UNL     1     -18.067  46.864 -14.301  0.00  0.00    +0.000 N 
ATOM     12  C   UNL     1     -18.302  46.175 -13.107  0.00  0.00    +0.000 C 
BRANCH  11  13
ATOM     13  C   UNL     1     -17.391  46.242 -15.438  0.00  0.00    +0.000 C 
ATOM     14  C   UNL     1     -18.337  46.048 -16.606  0.00  0.00    +0.000 C 
ENDBRANCH  11  13
BRANCH  11  15
ATOM     15  C   UNL     1     -18.477  48.247 -14.493  0.00  0.00    +0.000 C 
ATOM     16  C   UNL     1     -17.282  49.164 -14.655  0.00  0.00    +0.000 C 
ENDBRANCH  11  15
ENDBRANCH   3  12
TORSDOF 3
ENDMDL
