MODEL 1
REMARK VINA RESULT:    -5.516      0.000      0.000
REMARK INTER + INTRA:          -6.863
REMARK INTER:                  -6.484
REMARK INTRA:                  -0.379
REMARK UNBOUND:                -0.379
REMARK  Name = 62172198
REMARK  5 active torsions:
REMARK  status: ('A' for Active; 'I' for Inactive)
REMARK    1  A    between atoms: N_2  and  C_7
REMARK    2  A    between atoms: N_3  and  C_6
REMARK    3  A    between atoms: N_3  and  C_13
REMARK    4  A    between atoms: C_5  and  C_8
REMARK    5  A    between atoms: C_7  and  C_10
REMARK                            x       y       z     vdW  Elec       q    Type
REMARK                         _______ _______ _______ _____ _____    ______ ____
ROOT
ATOM      1  N   UNL     1     -18.000  41.380 -12.502  0.00  0.00    +0.000 NA
ATOM      2  C   UNL     1     -18.895  41.026 -10.284  0.00  0.00    +0.000 A 
ATOM      3  C   UNL     1     -18.239  41.790 -11.236  0.00  0.00    +0.000 A 
ATOM      4  C   UNL     1     -19.333  39.760 -10.656  0.00  0.00    +0.000 A 
ATOM      5  C   UNL     1     -19.105  39.302 -11.949  0.00  0.00    +0.000 A 
ATOM      6  C   UNL     1     -18.440  40.143 -12.826  0.00  0.00    +0.000 A 
ENDROOT
BRANCH   2   9
ATOM      7  O   UNL     1     -18.245  42.078  -8.292  0.00  0.00    +0.000 OA
ATOM      8  N   UNL     1     -20.419  41.280  -8.404  0.00  0.00    +0.000 N 
ATOM      9  C   UNL     1     -19.140  41.497  -8.928  0.00  0.00    +0.000 C 
ATOM     10  H   UNL     1     -21.109  40.801  -8.976  0.00  0.00    +0.000 HD
BRANCH   8  11
ATOM     11  C   UNL     1     -20.823  41.709  -7.084  0.00  0.00    +0.000 C 
ATOM     12  C   UNL     1     -22.312  41.978  -7.019  0.00  0.00    +0.000 C 
ENDBRANCH   8  11
ENDBRANCH   2   9
BRANCH   3  13
ATOM     13  N   UNL     1     -17.792  43.083 -10.866  0.00  0.00    +0.000 N 
ATOM     14  C   UNL     1     -17.565  44.121 -11.819  0.00  0.00    +0.000 C 
ATOM     15  H   UNL     1     -17.906  43.354  -9.896  0.00  0.00    +0.000 HD
ENDBRANCH   3  13
TORSDOF 3
ENDMDL
MODEL 2
REMARK VINA RESULT:    -5.294      1.803      4.725
REMARK INTER + INTRA:          -6.602
REMARK INTER:                  -6.362
REMARK INTRA:                  -0.240
REMARK UNBOUND:                -0.379
REMARK  Name = 62172198
REMARK  5 active torsions:
REMARK  status: ('A' for Active; 'I' for Inactive)
REMARK    1  A    between atoms: N_2  and  C_7
REMARK    2  A    between atoms: N_3  and  C_6
REMARK    3  A    between atoms: N_3  and  C_13
REMARK    4  A    between atoms: C_5  and  C_8
REMARK    5  A    between atoms: C_7  and  C_10
REMARK                            x       y       z     vdW  Elec       q    Type
REMARK                         _______ _______ _______ _____ _____    ______ ____
ROOT
ATOM      1  N   UNL     1     -20.686  40.130  -9.133  0.00  0.00    +0.000 NA
ATOM      2  C   UNL     1     -18.479  41.035  -9.533  0.00  0.00    +0.000 A 
ATOM      3  C   UNL     1     -19.540  40.202  -9.848  0.00  0.00    +0.000 A 
ATOM      4  C   UNL     1     -18.601  41.846  -8.410  0.00  0.00    +0.000 A 
ATOM      5  C   UNL     1     -19.763  41.800  -7.649  0.00  0.00    +0.000 A 
ATOM      6  C   UNL     1     -20.767  40.934  -8.048  0.00  0.00    +0.000 A 
ENDROOT
BRANCH   2   9
ATOM      7  O   UNL     1     -16.656  40.048 -10.627  0.00  0.00    +0.000 OA
ATOM      8  N   UNL     1     -16.827  42.358 -10.734  0.00  0.00    +0.000 N 
ATOM      9  C   UNL     1     -17.258  41.092 -10.325  0.00  0.00    +0.000 C 
ATOM     10  H   UNL     1     -17.367  43.173 -10.458  0.00  0.00    +0.000 HD
BRANCH   8  11
ATOM     11  C   UNL     1     -15.650  42.575 -11.544  0.00  0.00    +0.000 C 
ATOM     12  C   UNL     1     -15.966  43.406 -12.771  0.00  0.00    +0.000 C 
ENDBRANCH   8  11
ENDBRANCH   2   9
BRANCH   3  13
ATOM     13  N   UNL     1     -19.425  39.373 -10.993  0.00  0.00    +0.000 N 
ATOM     14  C   UNL     1     -19.648  39.855 -12.317  0.00  0.00    +0.000 C 
ATOM     15  H   UNL     1     -18.907  38.508 -10.890  0.00  0.00    +0.000 HD
ENDBRANCH   3  13
TORSDOF 3
ENDMDL
MODEL 3
REMARK VINA RESULT:    -5.197      1.358      2.814
REMARK INTER + INTRA:          -6.488
REMARK INTER:                  -6.138
REMARK INTRA:                  -0.349
REMARK UNBOUND:                -0.379
REMARK  Name = 62172198
REMARK  5 active torsions:
REMARK  status: ('A' for Active; 'I' for Inactive)
REMARK    1  A    between atoms: N_2  and  C_7
REMARK    2  A    between atoms: N_3  and  C_6
REMARK    3  A    between atoms: N_3  and  C_13
REMARK    4  A    between atoms: C_5  and  C_8
REMARK    5  A    between atoms: C_7  and  C_10
REMARK                            x       y       z     vdW  Elec       q    Type
REMARK                         _______ _______ _______ _____ _____    ______ ____
ROOT
ATOM      1  N   UNL     1     -18.715  42.301 -12.991  0.00  0.00    +0.000 NA
ATOM      2  C   UNL     1     -18.237  42.015 -10.638  0.00  0.00    +0.000 A 
ATOM      3  C   UNL     1     -18.873  41.653 -11.815  0.00  0.00    +0.000 A 
ATOM      4  C   UNL     1     -17.385  43.113 -10.671  0.00  0.00    +0.000 A 
ATOM      5  C   UNL     1     -17.197  43.805 -11.862  0.00  0.00    +0.000 A 
ATOM      6  C   UNL     1     -17.878  43.363 -12.984  0.00  0.00    +0.000 A 
ENDROOT
BRANCH   2   9
ATOM      7  O   UNL     1     -17.772  40.266  -9.148  0.00  0.00    +0.000 OA
ATOM      8  N   UNL     1     -19.347  41.831  -8.480  0.00  0.00    +0.000 N 
ATOM      9  C   UNL     1     -18.425  41.295  -9.386  0.00  0.00    +0.000 C 
ATOM     10  H   UNL     1     -19.847  42.678  -8.733  0.00  0.00    +0.000 HD
BRANCH   8  11
ATOM     11  C   UNL     1     -19.627  41.245  -7.189  0.00  0.00    +0.000 C 
ATOM     12  C   UNL     1     -20.710  42.011  -6.455  0.00  0.00    +0.000 C 
ENDBRANCH   8  11
ENDBRANCH   2   9
BRANCH   3  13
ATOM     13  N   UNL     1     -19.742  40.533 -11.791  0.00  0.00    +0.000 N 
ATOM     14  C   UNL     1     -19.328  39.229 -12.194  0.00  0.00    +0.000 C 
ATOM     15  H   UNL     1     -20.575  40.604 -11.217  0.00  0.00    +0.000 HD
ENDBRANCH   3  13
TORSDOF 3
ENDMDL
MODEL 4
REMARK VINA RESULT:    -5.160      3.428      5.022
REMARK INTER + INTRA:          -6.443
REMARK INTER:                  -6.002
REMARK INTRA:                  -0.442
REMARK UNBOUND:                -0.379
REMARK  Name = 62172198
REMARK  5 active torsions:
REMARK  status: ('A' for Active; 'I' for Inactive)
REMARK    1  A    between atoms: N_2  and  C_7
REMARK    2  A    between atoms: N_3  and  C_6
REMARK    3  A    between atoms: N_3  and  C_13
REMARK    4  A    between atoms: C_5  and  C_8
REMARK    5  A    between atoms: C_7  and  C_10
REMARK                            x       y       z     vdW  Elec       q    Type
REMARK                         _______ _______ _______ _____ _____    ______ ____
ROOT
ATOM      1  N   UNL     1     -16.869  40.529 -11.872  0.00  0.00    +0.000 NA
ATOM      2  C   UNL     1     -18.663  41.726 -12.965  0.00  0.00    +0.000 A 
ATOM      3  C   UNL     1     -17.326  41.527 -12.661  0.00  0.00    +0.000 A 
ATOM      4  C   UNL     1     -19.591  40.845 -12.423  0.00  0.00    +0.000 A 
ATOM      5  C   UNL     1     -19.161  39.806 -11.606  0.00  0.00    +0.000 A 
ATOM      6  C   UNL     1     -17.802  39.692 -11.363  0.00  0.00    +0.000 A 
ENDROOT
BRANCH   2   9
ATOM      7  O   UNL     1     -19.097  43.985 -13.419  0.00  0.00    +0.000 OA
ATOM      8  N   UNL     1     -19.567  42.461 -15.102  0.00  0.00    +0.000 N 
ATOM      9  C   UNL     1     -19.124  42.811 -13.822  0.00  0.00    +0.000 C 
ATOM     10  H   UNL     1     -19.560  41.483 -15.373  0.00  0.00    +0.000 HD
BRANCH   8  11
ATOM     11  C   UNL     1     -20.032  43.425 -16.075  0.00  0.00    +0.000 C 
ATOM     12  C   UNL     1     -20.759  42.749 -17.220  0.00  0.00    +0.000 C 
ENDBRANCH   8  11
ENDBRANCH   2   9
BRANCH   3  13
ATOM     13  N   UNL     1     -16.373  42.420 -13.212  0.00  0.00    +0.000 N 
ATOM     14  C   UNL     1     -15.664  43.374 -12.422  0.00  0.00    +0.000 C 
ATOM     15  H   UNL     1     -15.988  42.186 -14.121  0.00  0.00    +0.000 HD
ENDBRANCH   3  13
TORSDOF 3
ENDMDL
MODEL 5
REMARK VINA RESULT:    -5.031      3.276      4.645
REMARK INTER + INTRA:          -6.293
REMARK INTER:                  -5.881
REMARK INTRA:                  -0.412
REMARK UNBOUND:                -0.379
REMARK  Name = 62172198
REMARK  5 active torsions:
REMARK  status: ('A' for Active; 'I' for Inactive)
REMARK    1  A    between atoms: N_2  and  C_7
REMARK    2  A    between atoms: N_3  and  C_6
REMARK    3  A    between atoms: N_3  and  C_13
REMARK    4  A    between atoms: C_5  and  C_8
REMARK    5  A    between atoms: C_7  and  C_10
REMARK                            x       y       z     vdW  Elec       q    Type
REMARK                         _______ _______ _______ _____ _____    ______ ____
ROOT
ATOM      1  N   UNL     1     -19.161  40.684 -13.187  0.00  0.00    +0.000 NA
ATOM      2  C   UNL     1     -17.295  41.446 -11.851  0.00  0.00    +0.000 A 
ATOM      3  C   UNL     1     -18.164  41.560 -12.924  0.00  0.00    +0.000 A 
ATOM      4  C   UNL     1     -17.459  40.365 -10.993  0.00  0.00    +0.000 A 
ATOM      5  C   UNL     1     -18.472  39.442 -11.231  0.00  0.00    +0.000 A 
ATOM      6  C   UNL     1     -19.289  39.645 -12.330  0.00  0.00    +0.000 A 
ENDROOT
BRANCH   2   9
ATOM      7  O   UNL     1     -16.467  43.628 -11.617  0.00  0.00    +0.000 OA
ATOM      8  N   UNL     1     -14.967  41.889 -11.298  0.00  0.00    +0.000 N 
ATOM      9  C   UNL     1     -16.232  42.408 -11.592  0.00  0.00    +0.000 C 
ATOM     10  H   UNL     1     -14.840  40.882 -11.288  0.00  0.00    +0.000 HD
BRANCH   8  11
ATOM     11  C   UNL     1     -13.818  42.714 -10.996  0.00  0.00    +0.000 C 
ATOM     12  C   UNL     1     -12.586  41.873 -10.730  0.00  0.00    +0.000 C 
ENDBRANCH   8  11
ENDBRANCH   2   9
BRANCH   3  13
ATOM     13  N   UNL     1     -18.006  42.661 -13.801  0.00  0.00    +0.000 N 
ATOM     14  C   UNL     1     -19.110  43.302 -14.440  0.00  0.00    +0.000 C 
ATOM     15  H   UNL     1     -17.132  43.173 -13.752  0.00  0.00    +0.000 HD
ENDBRANCH   3  13
TORSDOF 3
ENDMDL
