MODEL 1
REMARK VINA RESULT:    -5.904      0.000      0.000
REMARK INTER + INTRA:          -7.097
REMARK INTER:                  -6.940
REMARK INTRA:                  -0.157
REMARK UNBOUND:                -0.157
REMARK  Name = 62181091
REMARK  5 active torsions:
REMARK  status: ('A' for Active; 'I' for Inactive)
REMARK    1  A    between atoms: N_5  and  C_8
REMARK    2  A    between atoms: N_5  and  C_11
REMARK    3  A    between atoms: N_7  and  C_17
REMARK    4  A    between atoms: C_8  and  C_12
REMARK    5  A    between atoms: C_9  and  C_10
REMARK                            x       y       z     vdW  Elec       q    Type
REMARK                         _______ _______ _______ _____ _____    ______ ____
ROOT
ATOM      1  O   UNL     1     -17.749  43.170  -9.159  0.00  0.00    +0.000 OA
ATOM      2  N   UNL     1     -17.864  41.147 -10.325  0.00  0.00    +0.000 N 
ATOM      3  C   UNL     1     -17.571  42.507 -10.181  0.00  0.00    +0.000 C 
ATOM      4  C   UNL     1     -17.623  40.430 -11.569  0.00  0.00    +0.000 C 
ENDROOT
BRANCH   3   7
ATOM      5  N   UNL     1     -17.380  44.701 -13.220  0.00  0.00    +0.000 NA
ATOM      6  N   UNL     1     -15.541  45.296 -14.614  0.00  0.00    +0.000 N 
ATOM      7  C   UNL     1     -17.017  43.228 -11.337  0.00  0.00    +0.000 A 
ATOM      8  C   UNL     1     -15.665  43.145 -11.653  0.00  0.00    +0.000 A 
ATOM      9  C   UNL     1     -17.825  44.012 -12.144  0.00  0.00    +0.000 A 
ATOM     10  C   UNL     1     -16.061  44.595 -13.497  0.00  0.00    +0.000 A 
ATOM     11  C   UNL     1     -15.170  43.839 -12.753  0.00  0.00    +0.000 A 
ATOM     12  C   UNL     1     -16.354  46.109 -15.459  0.00  0.00    +0.000 C 
ATOM     13  H   UNL     1     -14.619  45.029 -14.939  0.00  0.00    +0.000 HD
ENDBRANCH   3   7
BRANCH   2  14
ATOM     14  C   UNL     1     -18.431  40.353  -9.237  0.00  0.00    +0.000 C 
BRANCH  14  18
ATOM     15  F   UNL     1     -20.461  40.893 -10.317  0.00  0.00    +0.000 F 
ATOM     16  F   UNL     1     -20.517  39.392  -8.737  0.00  0.00    +0.000 F 
ATOM     17  F   UNL     1     -20.237  41.494  -8.227  0.00  0.00    +0.000 F 
ATOM     18  C   UNL     1     -19.923  40.540  -9.130  0.00  0.00    +0.000 C 
ENDBRANCH  14  18
ENDBRANCH   2  14
TORSDOF 3
ENDMDL
MODEL 2
REMARK VINA RESULT:    -5.473      1.923      2.449
REMARK INTER + INTRA:          -6.589
REMARK INTER:                  -6.437
REMARK INTRA:                  -0.152
REMARK UNBOUND:                -0.157
REMARK  Name = 62181091
REMARK  5 active torsions:
REMARK  status: ('A' for Active; 'I' for Inactive)
REMARK    1  A    between atoms: N_5  and  C_8
REMARK    2  A    between atoms: N_5  and  C_11
REMARK    3  A    between atoms: N_7  and  C_17
REMARK    4  A    between atoms: C_8  and  C_12
REMARK    5  A    between atoms: C_9  and  C_10
REMARK                            x       y       z     vdW  Elec       q    Type
REMARK                         _______ _______ _______ _____ _____    ______ ____
ROOT
ATOM      1  O   UNL     1     -17.238  41.006 -13.502  0.00  0.00    +0.000 OA
ATOM      2  N   UNL     1     -17.554  41.641 -11.275  0.00  0.00    +0.000 N 
ATOM      3  C   UNL     1     -17.335  41.875 -12.636  0.00  0.00    +0.000 C 
ATOM      4  C   UNL     1     -17.659  42.726 -10.310  0.00  0.00    +0.000 C 
ENDROOT
BRANCH   3   7
ATOM      5  N   UNL     1     -18.233  45.294 -13.899  0.00  0.00    +0.000 NA
ATOM      6  N   UNL     1     -16.878  47.193 -14.387  0.00  0.00    +0.000 N 
ATOM      7  C   UNL     1     -17.191  43.267 -13.092  0.00  0.00    +0.000 A 
ATOM      8  C   UNL     1     -15.942  43.875 -13.154  0.00  0.00    +0.000 A 
ATOM      9  C   UNL     1     -18.295  44.012 -13.472  0.00  0.00    +0.000 A 
ATOM     10  C   UNL     1     -17.002  45.852 -13.947  0.00  0.00    +0.000 A 
ATOM     11  C   UNL     1     -15.837  45.192 -13.589  0.00  0.00    +0.000 A 
ATOM     12  C   UNL     1     -18.001  47.979 -14.784  0.00  0.00    +0.000 C 
ATOM     13  H   UNL     1     -15.949  47.514 -14.634  0.00  0.00    +0.000 HD
ENDBRANCH   3   7
BRANCH   2  14
ATOM     14  C   UNL     1     -17.694  40.293 -10.729  0.00  0.00    +0.000 C 
BRANCH  14  18
ATOM     15  F   UNL     1     -19.546  39.658  -9.406  0.00  0.00    +0.000 F 
ATOM     16  F   UNL     1     -19.935  40.809 -11.216  0.00  0.00    +0.000 F 
ATOM     17  F   UNL     1     -19.336  38.718 -11.368  0.00  0.00    +0.000 F 
ATOM     18  C   UNL     1     -19.138  39.861 -10.677  0.00  0.00    +0.000 C 
ENDBRANCH  14  18
ENDBRANCH   2  14
TORSDOF 3
ENDMDL
MODEL 3
REMARK VINA RESULT:    -5.430      2.119      2.497
REMARK INTER + INTRA:          -6.539
REMARK INTER:                  -6.354
REMARK INTRA:                  -0.185
REMARK UNBOUND:                -0.157
REMARK  Name = 62181091
REMARK  5 active torsions:
REMARK  status: ('A' for Active; 'I' for Inactive)
REMARK    1  A    between atoms: N_5  and  C_8
REMARK    2  A    between atoms: N_5  and  C_11
REMARK    3  A    between atoms: N_7  and  C_17
REMARK    4  A    between atoms: C_8  and  C_12
REMARK    5  A    between atoms: C_9  and  C_10
REMARK                            x       y       z     vdW  Elec       q    Type
REMARK                         _______ _______ _______ _____ _____    ______ ____
ROOT
ATOM      1  O   UNL     1     -18.038  42.475  -9.936  0.00  0.00    +0.000 OA
ATOM      2  N   UNL     1     -18.488  41.970 -12.174  0.00  0.00    +0.000 N 
ATOM      3  C   UNL     1     -17.803  42.611 -11.137  0.00  0.00    +0.000 C 
ATOM      4  C   UNL     1     -18.150  42.181 -13.574  0.00  0.00    +0.000 C 
ENDROOT
BRANCH   3   7
ATOM      5  N   UNL     1     -16.029  45.770 -12.118  0.00  0.00    +0.000 NA
ATOM      6  N   UNL     1     -13.719  46.225 -12.482  0.00  0.00    +0.000 N 
ATOM      7  C   UNL     1     -16.716  43.539 -11.487  0.00  0.00    +0.000 A 
ATOM      8  C   UNL     1     -15.393  43.113 -11.524  0.00  0.00    +0.000 A 
ATOM      9  C   UNL     1     -16.979  44.865 -11.789  0.00  0.00    +0.000 A 
ATOM     10  C   UNL     1     -14.754  45.319 -12.144  0.00  0.00    +0.000 A 
ATOM     11  C   UNL     1     -14.387  44.014 -11.858  0.00  0.00    +0.000 A 
ATOM     12  C   UNL     1     -13.966  47.594 -12.797  0.00  0.00    +0.000 C 
ATOM     13  H   UNL     1     -12.816  45.827 -12.719  0.00  0.00    +0.000 HD
ENDBRANCH   3   7
BRANCH   2  14
ATOM     14  C   UNL     1     -19.590  41.044 -11.923  0.00  0.00    +0.000 C 
BRANCH  14  18
ATOM     15  F   UNL     1     -19.380  39.338 -10.301  0.00  0.00    +0.000 F 
ATOM     16  F   UNL     1     -19.665  38.739 -12.377  0.00  0.00    +0.000 F 
ATOM     17  F   UNL     1     -17.752  39.570 -11.741  0.00  0.00    +0.000 F 
ATOM     18  C   UNL     1     -19.089  39.664 -11.579  0.00  0.00    +0.000 C 
ENDBRANCH  14  18
ENDBRANCH   2  14
TORSDOF 3
ENDMDL
MODEL 4
REMARK VINA RESULT:    -5.345      2.246      2.794
REMARK INTER + INTRA:          -6.439
REMARK INTER:                  -6.241
REMARK INTRA:                  -0.197
REMARK UNBOUND:                -0.157
REMARK  Name = 62181091
REMARK  5 active torsions:
REMARK  status: ('A' for Active; 'I' for Inactive)
REMARK    1  A    between atoms: N_5  and  C_8
REMARK    2  A    between atoms: N_5  and  C_11
REMARK    3  A    between atoms: N_7  and  C_17
REMARK    4  A    between atoms: C_8  and  C_12
REMARK    5  A    between atoms: C_9  and  C_10
REMARK                            x       y       z     vdW  Elec       q    Type
REMARK                         _______ _______ _______ _____ _____    ______ ____
ROOT
ATOM      1  O   UNL     1     -16.984  41.652 -13.322  0.00  0.00    +0.000 OA
ATOM      2  N   UNL     1     -17.559  41.519 -11.061  0.00  0.00    +0.000 N 
ATOM      3  C   UNL     1     -17.179  42.185 -12.230  0.00  0.00    +0.000 C 
ATOM      4  C   UNL     1     -17.772  42.221  -9.803  0.00  0.00    +0.000 C 
ENDROOT
BRANCH   3   7
ATOM      5  N   UNL     1     -15.446  45.505 -11.987  0.00  0.00    +0.000 NA
ATOM      6  N   UNL     1     -16.304  47.728 -11.994  0.00  0.00    +0.000 N 
ATOM      7  C   UNL     1     -16.974  43.640 -12.170  0.00  0.00    +0.000 A 
ATOM      8  C   UNL     1     -18.051  44.519 -12.235  0.00  0.00    +0.000 A 
ATOM      9  C   UNL     1     -15.704  44.178 -12.048  0.00  0.00    +0.000 A 
ATOM     10  C   UNL     1     -16.517  46.329 -12.053  0.00  0.00    +0.000 A 
ATOM     11  C   UNL     1     -17.825  45.891 -12.176  0.00  0.00    +0.000 A 
ATOM     12  C   UNL     1     -15.006  48.304 -11.868  0.00  0.00    +0.000 C 
ATOM     13  H   UNL     1     -17.114  48.311 -11.815  0.00  0.00    +0.000 HD
ENDBRANCH   3   7
BRANCH   2  14
ATOM     14  C   UNL     1     -17.771  40.073 -11.021  0.00  0.00    +0.000 C 
BRANCH  14  18
ATOM     15  F   UNL     1     -19.440  38.546 -11.702  0.00  0.00    +0.000 F 
ATOM     16  F   UNL     1     -19.742  39.614  -9.826  0.00  0.00    +0.000 F 
ATOM     17  F   UNL     1     -19.946  40.672 -11.723  0.00  0.00    +0.000 F 
ATOM     18  C   UNL     1     -19.237  39.724 -11.074  0.00  0.00    +0.000 C 
ENDBRANCH  14  18
ENDBRANCH   2  14
TORSDOF 3
ENDMDL
MODEL 5
REMARK VINA RESULT:    -5.102      3.949      6.594
REMARK INTER + INTRA:          -6.154
REMARK INTER:                  -5.955
REMARK INTRA:                  -0.199
REMARK UNBOUND:                -0.157
REMARK  Name = 62181091
REMARK  5 active torsions:
REMARK  status: ('A' for Active; 'I' for Inactive)
REMARK    1  A    between atoms: N_5  and  C_8
REMARK    2  A    between atoms: N_5  and  C_11
REMARK    3  A    between atoms: N_7  and  C_17
REMARK    4  A    between atoms: C_8  and  C_12
REMARK    5  A    between atoms: C_9  and  C_10
REMARK                            x       y       z     vdW  Elec       q    Type
REMARK                         _______ _______ _______ _____ _____    ______ ____
ROOT
ATOM      1  O   UNL     1     -15.608  43.460 -13.106  0.00  0.00    +0.000 OA
ATOM      2  N   UNL     1     -17.118  45.223 -12.829  0.00  0.00    +0.000 N 
ATOM      3  C   UNL     1     -16.686  43.899 -12.706  0.00  0.00    +0.000 C 
ATOM      4  C   UNL     1     -18.410  45.667 -12.327  0.00  0.00    +0.000 C 
ENDROOT
BRANCH   3   7
ATOM      5  N   UNL     1     -18.352  41.851 -10.038  0.00  0.00    +0.000 NA
ATOM      6  N   UNL     1     -20.081  40.216 -10.163  0.00  0.00    +0.000 N 
ATOM      7  C   UNL     1     -17.585  42.929 -12.062  0.00  0.00    +0.000 A 
ATOM      8  C   UNL     1     -18.493  42.187 -12.810  0.00  0.00    +0.000 A 
ATOM      9  C   UNL     1     -17.554  42.726 -10.692  0.00  0.00    +0.000 A 
ATOM     10  C   UNL     1     -19.222  41.147 -10.797  0.00  0.00    +0.000 A 
ATOM     11  C   UNL     1     -19.331  41.276 -12.172  0.00  0.00    +0.000 A 
ATOM     12  C   UNL     1     -20.067  39.991  -8.755  0.00  0.00    +0.000 C 
ATOM     13  H   UNL     1     -20.553  39.544 -10.758  0.00  0.00    +0.000 HD
ENDBRANCH   3   7
BRANCH   2  14
ATOM     14  C   UNL     1     -16.300  46.253 -13.467  0.00  0.00    +0.000 C 
BRANCH  14  18
ATOM     15  F   UNL     1     -16.711  47.564 -15.389  0.00  0.00    +0.000 F 
ATOM     16  F   UNL     1     -15.459  45.794 -15.614  0.00  0.00    +0.000 F 
ATOM     17  F   UNL     1     -17.607  45.572 -15.314  0.00  0.00    +0.000 F 
ATOM     18  C   UNL     1     -16.526  46.298 -14.957  0.00  0.00    +0.000 C 
ENDBRANCH  14  18
ENDBRANCH   2  14
TORSDOF 3
ENDMDL
