MODEL 1
REMARK VINA RESULT:    -6.515      0.000      0.000
REMARK INTER + INTRA:          -8.243
REMARK INTER:                  -7.658
REMARK INTRA:                  -0.585
REMARK UNBOUND:                -0.585
REMARK  Name = 62415572
REMARK  3 active torsions:
REMARK  status: ('A' for Active; 'I' for Inactive)
REMARK    1  A    between atoms: N_2  and  C_5
REMARK    2  A    between atoms: N_2  and  C_9
REMARK    3  A    between atoms: C_10  and  C_12
REMARK                            x       y       z     vdW  Elec       q    Type
REMARK                         _______ _______ _______ _____ _____    ______ ____
ROOT
ATOM      1  N   UNL     1     -18.518  42.243  -8.290  0.00  0.00    +0.000 NA
ATOM      2  C   UNL     1     -18.426  41.578  -9.463  0.00  0.00    +0.000 A 
ATOM      3  C   UNL     1     -19.368  40.666  -9.913  0.00  0.00    +0.000 A 
ATOM      4  C   UNL     1     -20.475  40.423  -9.107  0.00  0.00    +0.000 A 
ATOM      5  C   UNL     1     -19.608  41.982  -7.534  0.00  0.00    +0.000 A 
ATOM      6  C   UNL     1     -20.604  41.089  -7.894  0.00  0.00    +0.000 A 
ENDROOT
BRANCH   3   9
ATOM      7  O   UNL     1     -18.494  38.975 -11.299  0.00  0.00    +0.000 OA
ATOM      8  N   UNL     1     -19.998  40.420 -12.254  0.00  0.00    +0.000 N 
ATOM      9  C   UNL     1     -19.240  39.961 -11.181  0.00  0.00    +0.000 C 
ATOM     10  H   UNL     1     -20.618  41.219 -12.173  0.00  0.00    +0.000 HD
ATOM     11  H   UNL     1     -19.952  39.961 -13.157  0.00  0.00    +0.000 HD
ENDBRANCH   3   9
BRANCH   2  12
ATOM     12  N   UNL     1     -17.306  41.826 -10.268  0.00  0.00    +0.000 N 
ATOM     13  H   UNL     1     -16.889  40.997 -10.682  0.00  0.00    +0.000 HD
BRANCH  12  14
ATOM     14  C   UNL     1     -16.967  43.051 -10.930  0.00  0.00    +0.000 C 
ATOM     15  C   UNL     1     -15.849  42.870 -11.978  0.00  0.00    +0.000 C 
ATOM     16  C   UNL     1     -17.913  43.371 -12.106  0.00  0.00    +0.000 C 
ATOM     17  C   UNL     1     -16.661  43.811 -12.893  0.00  0.00    +0.000 C 
ENDBRANCH  12  14
ENDBRANCH   2  12
TORSDOF 3
ENDMDL
MODEL 2
REMARK VINA RESULT:    -6.244      1.123      3.889
REMARK INTER + INTRA:          -7.925
REMARK INTER:                  -7.584
REMARK INTRA:                  -0.341
REMARK UNBOUND:                -0.585
REMARK  Name = 62415572
REMARK  3 active torsions:
REMARK  status: ('A' for Active; 'I' for Inactive)
REMARK    1  A    between atoms: N_2  and  C_5
REMARK    2  A    between atoms: N_2  and  C_9
REMARK    3  A    between atoms: C_10  and  C_12
REMARK                            x       y       z     vdW  Elec       q    Type
REMARK                         _______ _______ _______ _____ _____    ______ ____
ROOT
ATOM      1  N   UNL     1     -17.598  42.984  -9.844  0.00  0.00    +0.000 NA
ATOM      2  C   UNL     1     -18.037  41.743 -10.152  0.00  0.00    +0.000 A 
ATOM      3  C   UNL     1     -18.424  41.352 -11.424  0.00  0.00    +0.000 A 
ATOM      4  C   UNL     1     -18.354  42.295 -12.444  0.00  0.00    +0.000 A 
ATOM      5  C   UNL     1     -17.543  43.873 -10.861  0.00  0.00    +0.000 A 
ATOM      6  C   UNL     1     -17.907  43.581 -12.165  0.00  0.00    +0.000 A 
ENDROOT
BRANCH   3   9
ATOM      7  O   UNL     1     -18.324  39.004 -11.270  0.00  0.00    +0.000 OA
ATOM      8  N   UNL     1     -20.026  39.886 -12.529  0.00  0.00    +0.000 N 
ATOM      9  C   UNL     1     -18.896  40.008 -11.725  0.00  0.00    +0.000 C 
ATOM     10  H   UNL     1     -20.511  40.695 -12.902  0.00  0.00    +0.000 HD
ATOM     11  H   UNL     1     -20.403  38.974 -12.764  0.00  0.00    +0.000 HD
ENDBRANCH   3   9
BRANCH   2  12
ATOM     12  N   UNL     1     -18.106  40.801  -9.118  0.00  0.00    +0.000 N 
ATOM     13  H   UNL     1     -17.217  40.375  -8.871  0.00  0.00    +0.000 HD
BRANCH  12  14
ATOM     14  C   UNL     1     -19.111  40.700  -8.100  0.00  0.00    +0.000 C 
ATOM     15  C   UNL     1     -19.477  42.069  -7.489  0.00  0.00    +0.000 C 
ATOM     16  C   UNL     1     -20.540  40.661  -8.679  0.00  0.00    +0.000 C 
ATOM     17  C   UNL     1     -20.948  41.606  -7.529  0.00  0.00    +0.000 C 
ENDBRANCH  12  14
ENDBRANCH   2  12
TORSDOF 3
ENDMDL
MODEL 3
REMARK VINA RESULT:    -5.846      1.744      4.519
REMARK INTER + INTRA:          -7.457
REMARK INTER:                  -6.896
REMARK INTRA:                  -0.561
REMARK UNBOUND:                -0.585
REMARK  Name = 62415572
REMARK  3 active torsions:
REMARK  status: ('A' for Active; 'I' for Inactive)
REMARK    1  A    between atoms: N_2  and  C_5
REMARK    2  A    between atoms: N_2  and  C_9
REMARK    3  A    between atoms: C_10  and  C_12
REMARK                            x       y       z     vdW  Elec       q    Type
REMARK                         _______ _______ _______ _____ _____    ______ ____
ROOT
ATOM      1  N   UNL     1     -19.640  41.627 -12.276  0.00  0.00    +0.000 NA
ATOM      2  C   UNL     1     -18.561  40.987 -11.773  0.00  0.00    +0.000 A 
ATOM      3  C   UNL     1     -17.255  41.252 -12.154  0.00  0.00    +0.000 A 
ATOM      4  C   UNL     1     -17.044  42.238 -13.112  0.00  0.00    +0.000 A 
ATOM      5  C   UNL     1     -19.396  42.580 -13.204  0.00  0.00    +0.000 A 
ATOM      6  C   UNL     1     -18.130  42.919 -13.652  0.00  0.00    +0.000 A 
ENDROOT
BRANCH   3   9
ATOM      7  O   UNL     1     -16.035  39.304 -11.643  0.00  0.00    +0.000 OA
ATOM      8  N   UNL     1     -15.096  41.303 -11.026  0.00  0.00    +0.000 N 
ATOM      9  C   UNL     1     -16.112  40.543 -11.598  0.00  0.00    +0.000 C 
ATOM     10  H   UNL     1     -15.138  42.316 -10.987  0.00  0.00    +0.000 HD
ATOM     11  H   UNL     1     -14.274  40.861 -10.630  0.00  0.00    +0.000 HD
ENDBRANCH   3   9
BRANCH   2  12
ATOM     12  N   UNL     1     -18.782  39.993 -10.810  0.00  0.00    +0.000 N 
ATOM     13  H   UNL     1     -18.510  39.057 -11.097  0.00  0.00    +0.000 HD
BRANCH  12  14
ATOM     14  C   UNL     1     -18.893  40.167  -9.392  0.00  0.00    +0.000 C 
ATOM     15  C   UNL     1     -18.643  41.624  -8.951  0.00  0.00    +0.000 C 
ATOM     16  C   UNL     1     -20.352  40.357  -8.930  0.00  0.00    +0.000 C 
ATOM     17  C   UNL     1     -19.826  41.450  -7.976  0.00  0.00    +0.000 C 
ENDBRANCH  12  14
ENDBRANCH   2  12
TORSDOF 3
ENDMDL
MODEL 4
REMARK VINA RESULT:    -5.452      1.912      3.191
REMARK INTER + INTRA:          -6.994
REMARK INTER:                  -6.597
REMARK INTRA:                  -0.397
REMARK UNBOUND:                -0.585
REMARK  Name = 62415572
REMARK  3 active torsions:
REMARK  status: ('A' for Active; 'I' for Inactive)
REMARK    1  A    between atoms: N_2  and  C_5
REMARK    2  A    between atoms: N_2  and  C_9
REMARK    3  A    between atoms: C_10  and  C_12
REMARK                            x       y       z     vdW  Elec       q    Type
REMARK                         _______ _______ _______ _____ _____    ______ ____
ROOT
ATOM      1  N   UNL     1     -17.243  40.629 -12.587  0.00  0.00    +0.000 NA
ATOM      2  C   UNL     1     -17.325  41.110 -11.327  0.00  0.00    +0.000 A 
ATOM      3  C   UNL     1     -18.317  40.758 -10.426  0.00  0.00    +0.000 A 
ATOM      4  C   UNL     1     -19.286  39.853 -10.846  0.00  0.00    +0.000 A 
ATOM      5  C   UNL     1     -18.201  39.751 -12.959  0.00  0.00    +0.000 A 
ATOM      6  C   UNL     1     -19.234  39.336 -12.135  0.00  0.00    +0.000 A 
ENDROOT
BRANCH   3   9
ATOM      7  O   UNL     1     -18.180  42.501  -8.848  0.00  0.00    +0.000 OA
ATOM      8  N   UNL     1     -18.697  40.417  -8.043  0.00  0.00    +0.000 N 
ATOM      9  C   UNL     1     -18.382  41.296  -9.075  0.00  0.00    +0.000 C 
ATOM     10  H   UNL     1     -18.874  39.432  -8.211  0.00  0.00    +0.000 HD
ATOM     11  H   UNL     1     -18.763  40.740  -7.084  0.00  0.00    +0.000 HD
ENDBRANCH   3   9
BRANCH   2  12
ATOM     12  N   UNL     1     -16.346  42.024 -10.913  0.00  0.00    +0.000 N 
ATOM     13  H   UNL     1     -15.506  41.600 -10.529  0.00  0.00    +0.000 HD
BRANCH  12  14
ATOM     14  C   UNL     1     -16.176  43.375 -11.358  0.00  0.00    +0.000 C 
ATOM     15  C   UNL     1     -15.501  43.463 -12.743  0.00  0.00    +0.000 C 
ATOM     16  C   UNL     1     -17.444  43.946 -12.024  0.00  0.00    +0.000 C 
ATOM     17  C   UNL     1     -16.513  44.579 -13.079  0.00  0.00    +0.000 C 
ENDBRANCH  12  14
ENDBRANCH   2  12
TORSDOF 3
ENDMDL
MODEL 5
REMARK VINA RESULT:    -5.358      2.056      4.857
REMARK INTER + INTRA:          -6.883
REMARK INTER:                  -6.387
REMARK INTRA:                  -0.496
REMARK UNBOUND:                -0.585
REMARK  Name = 62415572
REMARK  3 active torsions:
REMARK  status: ('A' for Active; 'I' for Inactive)
REMARK    1  A    between atoms: N_2  and  C_5
REMARK    2  A    between atoms: N_2  and  C_9
REMARK    3  A    between atoms: C_10  and  C_12
REMARK                            x       y       z     vdW  Elec       q    Type
REMARK                         _______ _______ _______ _____ _____    ______ ____
ROOT
ATOM      1  N   UNL     1     -19.777  39.731 -10.662  0.00  0.00    +0.000 NA
ATOM      2  C   UNL     1     -19.314  40.931 -10.247  0.00  0.00    +0.000 A 
ATOM      3  C   UNL     1     -18.184  41.546 -10.762  0.00  0.00    +0.000 A 
ATOM      4  C   UNL     1     -17.486  40.887 -11.768  0.00  0.00    +0.000 A 
ATOM      5  C   UNL     1     -19.073  39.121 -11.641  0.00  0.00    +0.000 A 
ATOM      6  C   UNL     1     -17.932  39.651 -12.221  0.00  0.00    +0.000 A 
ENDROOT
BRANCH   3   9
ATOM      7  O   UNL     1     -17.657  43.108  -9.080  0.00  0.00    +0.000 OA
ATOM      8  N   UNL     1     -17.290  43.760 -11.248  0.00  0.00    +0.000 N 
ATOM      9  C   UNL     1     -17.707  42.839 -10.292  0.00  0.00    +0.000 C 
ATOM     10  H   UNL     1     -17.316  43.554 -12.241  0.00  0.00    +0.000 HD
ATOM     11  H   UNL     1     -16.942  44.673 -10.976  0.00  0.00    +0.000 HD
ENDBRANCH   3   9
BRANCH   2  12
ATOM     12  N   UNL     1     -20.022  41.587  -9.231  0.00  0.00    +0.000 N 
ATOM     13  H   UNL     1     -20.621  42.342  -9.551  0.00  0.00    +0.000 HD
BRANCH  12  14
ATOM     14  C   UNL     1     -20.361  41.072  -7.937  0.00  0.00    +0.000 C 
ATOM     15  C   UNL     1     -19.927  42.010  -6.792  0.00  0.00    +0.000 C 
ATOM     16  C   UNL     1     -21.818  41.383  -7.538  0.00  0.00    +0.000 C 
ATOM     17  C   UNL     1     -21.283  41.696  -6.125  0.00  0.00    +0.000 C 
ENDBRANCH  12  14
ENDBRANCH   2  12
TORSDOF 3
ENDMDL
