MODEL 1
REMARK VINA RESULT:    -6.321      0.000      0.000
REMARK INTER + INTRA:          -9.147
REMARK INTER:                  -8.538
REMARK INTRA:                  -0.610
REMARK UNBOUND:                -0.610
REMARK  Name = 63227520
REMARK  7 active torsions:
REMARK  status: ('A' for Active; 'I' for Inactive)
REMARK    1  A    between atoms: N_5  and  C_8
REMARK    2  A    between atoms: N_6  and  C_11
REMARK    3  A    between atoms: N_6  and  C_14
REMARK    4  A    between atoms: C_8  and  C_9
REMARK    5  A    between atoms: C_9  and  C_13
REMARK    6  A    between atoms: C_10  and  C_12
REMARK    7  A    between atoms: C_14  and  C_17
REMARK                            x       y       z     vdW  Elec       q    Type
REMARK                         _______ _______ _______ _____ _____    ______ ____
ROOT
ATOM      1  N   UNL     1     -17.195  41.862 -13.029  0.00  0.00    +0.000 NA
ATOM      2  C   UNL     1     -17.770  41.411 -10.724  0.00  0.00    +0.000 A 
ATOM      3  C   UNL     1     -17.652  42.253 -11.819  0.00  0.00    +0.000 A 
ATOM      4  C   UNL     1     -17.394  40.082 -10.882  0.00  0.00    +0.000 A 
ATOM      5  C   UNL     1     -16.919  39.642 -12.113  0.00  0.00    +0.000 A 
ATOM      6  C   UNL     1     -16.838  40.563 -13.145  0.00  0.00    +0.000 A 
ENDROOT
BRANCH   2   9
ATOM      7  O   UNL     1     -17.874  42.934  -8.944  0.00  0.00    +0.000 OA
ATOM      8  N   UNL     1     -19.221  41.051  -8.794  0.00  0.00    +0.000 N 
ATOM      9  C   UNL     1     -18.280  41.871  -9.407  0.00  0.00    +0.000 C 
ATOM     10  H   UNL     1     -19.502  40.188  -9.252  0.00  0.00    +0.000 HD
BRANCH   8  11
ATOM     11  C   UNL     1     -19.825  41.372  -7.531  0.00  0.00    +0.000 C 
BRANCH  11  12
ATOM     12  C   UNL     1     -21.349  41.377  -7.595  0.00  0.00    +0.000 C 
BRANCH  12  16
ATOM     13  F   UNL     1     -21.355  42.108  -5.343  0.00  0.00    +0.000 F 
ATOM     14  F   UNL     1     -21.935  43.544  -6.878  0.00  0.00    +0.000 F 
ATOM     15  F   UNL     1     -23.289  41.924  -6.341  0.00  0.00    +0.000 F 
ATOM     16  C   UNL     1     -21.990  42.239  -6.526  0.00  0.00    +0.000 C 
ENDBRANCH  12  16
ENDBRANCH  11  12
ENDBRANCH   8  11
ENDBRANCH   2   9
BRANCH   3  17
ATOM     17  N   UNL     1     -18.037  43.609 -11.666  0.00  0.00    +0.000 N 
ATOM     18  H   UNL     1     -18.961  43.773 -11.279  0.00  0.00    +0.000 HD
BRANCH  17  19
ATOM     19  C   UNL     1     -17.428  44.669 -12.400  0.00  0.00    +0.000 C 
ATOM     20  C   UNL     1     -18.431  45.781 -12.643  0.00  0.00    +0.000 C 
ENDBRANCH  17  19
ENDBRANCH   3  17
TORSDOF 6
ENDMDL
MODEL 2
REMARK VINA RESULT:    -6.147      1.238      2.867
REMARK INTER + INTRA:          -8.913
REMARK INTER:                  -8.313
REMARK INTRA:                  -0.600
REMARK UNBOUND:                -0.610
REMARK  Name = 63227520
REMARK  7 active torsions:
REMARK  status: ('A' for Active; 'I' for Inactive)
REMARK    1  A    between atoms: N_5  and  C_8
REMARK    2  A    between atoms: N_6  and  C_11
REMARK    3  A    between atoms: N_6  and  C_14
REMARK    4  A    between atoms: C_8  and  C_9
REMARK    5  A    between atoms: C_9  and  C_13
REMARK    6  A    between atoms: C_10  and  C_12
REMARK    7  A    between atoms: C_14  and  C_17
REMARK                            x       y       z     vdW  Elec       q    Type
REMARK                         _______ _______ _______ _____ _____    ______ ____
ROOT
ATOM      1  N   UNL     1     -17.939  42.794 -13.309  0.00  0.00    +0.000 NA
ATOM      2  C   UNL     1     -17.930  42.360 -10.931  0.00  0.00    +0.000 A 
ATOM      3  C   UNL     1     -18.264  42.038 -12.237  0.00  0.00    +0.000 A 
ATOM      4  C   UNL     1     -17.217  43.533 -10.712  0.00  0.00    +0.000 A 
ATOM      5  C   UNL     1     -16.864  44.337 -11.790  0.00  0.00    +0.000 A 
ATOM      6  C   UNL     1     -17.246  43.927 -13.057  0.00  0.00    +0.000 A 
ENDROOT
BRANCH   2   9
ATOM      7  O   UNL     1     -17.870  40.356  -9.715  0.00  0.00    +0.000 OA
ATOM      8  N   UNL     1     -19.104  42.098  -8.807  0.00  0.00    +0.000 N 
ATOM      9  C   UNL     1     -18.299  41.506  -9.773  0.00  0.00    +0.000 C 
ATOM     10  H   UNL     1     -19.412  43.058  -8.936  0.00  0.00    +0.000 HD
BRANCH   8  11
ATOM     11  C   UNL     1     -19.525  41.410  -7.618  0.00  0.00    +0.000 C 
BRANCH  11  12
ATOM     12  C   UNL     1     -21.017  41.095  -7.621  0.00  0.00    +0.000 C 
BRANCH  12  16
ATOM     13  F   UNL     1     -22.024  43.156  -7.038  0.00  0.00    +0.000 F 
ATOM     14  F   UNL     1     -23.004  41.324  -6.377  0.00  0.00    +0.000 F 
ATOM     15  F   UNL     1     -21.158  41.972  -5.419  0.00  0.00    +0.000 F 
ATOM     16  C   UNL     1     -21.801  41.898  -6.603  0.00  0.00    +0.000 C 
ENDBRANCH  12  16
ENDBRANCH  11  12
ENDBRANCH   8  11
ENDBRANCH   2   9
BRANCH   3  17
ATOM     17  N   UNL     1     -18.987  40.841 -12.469  0.00  0.00    +0.000 N 
ATOM     18  H   UNL     1     -19.796  40.683 -11.876  0.00  0.00    +0.000 HD
BRANCH  17  19
ATOM     19  C   UNL     1     -18.418  39.713 -13.129  0.00  0.00    +0.000 C 
ATOM     20  C   UNL     1     -16.905  39.753 -13.023  0.00  0.00    +0.000 C 
ENDBRANCH  17  19
ENDBRANCH   3  17
TORSDOF 6
ENDMDL
MODEL 3
REMARK VINA RESULT:    -5.963      3.075      3.989
REMARK INTER + INTRA:          -8.664
REMARK INTER:                  -7.992
REMARK INTRA:                  -0.672
REMARK UNBOUND:                -0.610
REMARK  Name = 63227520
REMARK  7 active torsions:
REMARK  status: ('A' for Active; 'I' for Inactive)
REMARK    1  A    between atoms: N_5  and  C_8
REMARK    2  A    between atoms: N_6  and  C_11
REMARK    3  A    between atoms: N_6  and  C_14
REMARK    4  A    between atoms: C_8  and  C_9
REMARK    5  A    between atoms: C_9  and  C_13
REMARK    6  A    between atoms: C_10  and  C_12
REMARK    7  A    between atoms: C_14  and  C_17
REMARK                            x       y       z     vdW  Elec       q    Type
REMARK                         _______ _______ _______ _____ _____    ______ ____
ROOT
ATOM      1  N   UNL     1     -17.797  45.001 -14.325  0.00  0.00    +0.000 NA
ATOM      2  C   UNL     1     -17.794  42.918 -13.097  0.00  0.00    +0.000 A 
ATOM      3  C   UNL     1     -18.386  43.848 -13.938  0.00  0.00    +0.000 A 
ATOM      4  C   UNL     1     -16.515  43.190 -12.624  0.00  0.00    +0.000 A 
ATOM      5  C   UNL     1     -15.877  44.367 -13.001  0.00  0.00    +0.000 A 
ATOM      6  C   UNL     1     -16.555  45.231 -13.845  0.00  0.00    +0.000 A 
ENDROOT
BRANCH   2   9
ATOM      7  O   UNL     1     -18.646  40.777 -13.530  0.00  0.00    +0.000 OA
ATOM      8  N   UNL     1     -18.829  41.559 -11.353  0.00  0.00    +0.000 N 
ATOM      9  C   UNL     1     -18.466  41.657 -12.692  0.00  0.00    +0.000 C 
ATOM     10  H   UNL     1     -18.640  42.338 -10.728  0.00  0.00    +0.000 HD
BRANCH   8  11
ATOM     11  C   UNL     1     -19.465  40.394 -10.805  0.00  0.00    +0.000 C 
BRANCH  11  12
ATOM     12  C   UNL     1     -20.074  40.651  -9.431  0.00  0.00    +0.000 C 
BRANCH  12  16
ATOM     13  F   UNL     1     -18.837  42.360  -8.357  0.00  0.00    +0.000 F 
ATOM     14  F   UNL     1     -19.476  40.658  -7.152  0.00  0.00    +0.000 F 
ATOM     15  F   UNL     1     -17.863  40.420  -8.598  0.00  0.00    +0.000 F 
ATOM     16  C   UNL     1     -19.048  41.027  -8.381  0.00  0.00    +0.000 C 
ENDBRANCH  12  16
ENDBRANCH  11  12
ENDBRANCH   8  11
ENDBRANCH   2   9
BRANCH   3  17
ATOM     17  N   UNL     1     -19.689  43.575 -14.427  0.00  0.00    +0.000 N 
ATOM     18  H   UNL     1     -20.379  43.299 -13.737  0.00  0.00    +0.000 HD
BRANCH  17  19
ATOM     19  C   UNL     1     -19.945  43.246 -15.790  0.00  0.00    +0.000 C 
ATOM     20  C   UNL     1     -21.437  43.260 -16.060  0.00  0.00    +0.000 C 
ENDBRANCH  17  19
ENDBRANCH   3  17
TORSDOF 6
ENDMDL
MODEL 4
REMARK VINA RESULT:    -5.919      5.299      6.783
REMARK INTER + INTRA:          -8.605
REMARK INTER:                  -7.887
REMARK INTRA:                  -0.718
REMARK UNBOUND:                -0.610
REMARK  Name = 63227520
REMARK  7 active torsions:
REMARK  status: ('A' for Active; 'I' for Inactive)
REMARK    1  A    between atoms: N_5  and  C_8
REMARK    2  A    between atoms: N_6  and  C_11
REMARK    3  A    between atoms: N_6  and  C_14
REMARK    4  A    between atoms: C_8  and  C_9
REMARK    5  A    between atoms: C_9  and  C_13
REMARK    6  A    between atoms: C_10  and  C_12
REMARK    7  A    between atoms: C_14  and  C_17
REMARK                            x       y       z     vdW  Elec       q    Type
REMARK                         _______ _______ _______ _____ _____    ______ ____
ROOT
ATOM      1  N   UNL     1     -16.677  40.518 -11.847  0.00  0.00    +0.000 NA
ATOM      2  C   UNL     1     -18.491  41.769 -12.841  0.00  0.00    +0.000 A 
ATOM      3  C   UNL     1     -17.152  41.575 -12.542  0.00  0.00    +0.000 A 
ATOM      4  C   UNL     1     -19.402  40.815 -12.398  0.00  0.00    +0.000 A 
ATOM      5  C   UNL     1     -18.951  39.714 -11.679  0.00  0.00    +0.000 A 
ATOM      6  C   UNL     1     -17.591  39.612 -11.432  0.00  0.00    +0.000 A 
ENDROOT
BRANCH   2   9
ATOM      7  O   UNL     1     -19.115  44.020 -13.039  0.00  0.00    +0.000 OA
ATOM      8  N   UNL     1     -19.239  42.724 -14.959  0.00  0.00    +0.000 N 
ATOM      9  C   UNL     1     -18.982  42.940 -13.610  0.00  0.00    +0.000 C 
ATOM     10  H   UNL     1     -19.099  41.796 -15.349  0.00  0.00    +0.000 HD
BRANCH   8  11
ATOM     11  C   UNL     1     -19.695  43.763 -15.839  0.00  0.00    +0.000 C 
BRANCH  11  12
ATOM     12  C   UNL     1     -19.877  43.278 -17.274  0.00  0.00    +0.000 C 
BRANCH  12  16
ATOM     13  F   UNL     1     -22.145  43.244 -16.595  0.00  0.00    +0.000 F 
ATOM     14  F   UNL     1     -21.720  43.617 -18.701  0.00  0.00    +0.000 F 
ATOM     15  F   UNL     1     -21.460  41.616 -17.881  0.00  0.00    +0.000 F 
ATOM     16  C   UNL     1     -21.313  42.930 -17.610  0.00  0.00    +0.000 C 
ENDBRANCH  12  16
ENDBRANCH  11  12
ENDBRANCH   8  11
ENDBRANCH   2   9
BRANCH   3  17
ATOM     17  N   UNL     1     -16.217  42.541 -12.994  0.00  0.00    +0.000 N 
ATOM     18  H   UNL     1     -15.678  42.293 -13.817  0.00  0.00    +0.000 HD
BRANCH  17  19
ATOM     19  C   UNL     1     -15.705  43.569 -12.150  0.00  0.00    +0.000 C 
ATOM     20  C   UNL     1     -15.470  44.835 -12.952  0.00  0.00    +0.000 C 
ENDBRANCH  17  19
ENDBRANCH   3  17
TORSDOF 6
ENDMDL
MODEL 5
REMARK VINA RESULT:    -5.567      5.361      7.281
REMARK INTER + INTRA:          -8.129
REMARK INTER:                  -7.375
REMARK INTRA:                  -0.755
REMARK UNBOUND:                -0.610
REMARK  Name = 63227520
REMARK  7 active torsions:
REMARK  status: ('A' for Active; 'I' for Inactive)
REMARK    1  A    between atoms: N_5  and  C_8
REMARK    2  A    between atoms: N_6  and  C_11
REMARK    3  A    between atoms: N_6  and  C_14
REMARK    4  A    between atoms: C_8  and  C_9
REMARK    5  A    between atoms: C_9  and  C_13
REMARK    6  A    between atoms: C_10  and  C_12
REMARK    7  A    between atoms: C_14  and  C_17
REMARK                            x       y       z     vdW  Elec       q    Type
REMARK                         _______ _______ _______ _____ _____    ______ ____
ROOT
ATOM      1  N   UNL     1     -15.763  42.638 -11.992  0.00  0.00    +0.000 NA
ATOM      2  C   UNL     1     -17.827  43.063 -13.176  0.00  0.00    +0.000 A 
ATOM      3  C   UNL     1     -16.810  42.228 -12.741  0.00  0.00    +0.000 A 
ATOM      4  C   UNL     1     -17.765  44.406 -12.818  0.00  0.00    +0.000 A 
ATOM      5  C   UNL     1     -16.703  44.865 -12.047  0.00  0.00    +0.000 A 
ATOM      6  C   UNL     1     -15.736  43.950 -11.663  0.00  0.00    +0.000 A 
ENDROOT
BRANCH   2   9
ATOM      7  O   UNL     1     -19.645  41.642 -13.589  0.00  0.00    +0.000 OA
ATOM      8  N   UNL     1     -19.199  43.265 -15.185  0.00  0.00    +0.000 N 
ATOM      9  C   UNL     1     -18.967  42.581 -13.997  0.00  0.00    +0.000 C 
ATOM     10  H   UNL     1     -18.586  44.034 -15.444  0.00  0.00    +0.000 HD
BRANCH   8  11
ATOM     11  C   UNL     1     -20.277  42.933 -16.074  0.00  0.00    +0.000 C 
BRANCH  11  12
ATOM     12  C   UNL     1     -20.295  43.806 -17.325  0.00  0.00    +0.000 C 
BRANCH  12  16
ATOM     13  F   UNL     1     -22.545  44.206 -16.707  0.00  0.00    +0.000 F 
ATOM     14  F   UNL     1     -21.221  45.928 -16.893  0.00  0.00    +0.000 F 
ATOM     15  F   UNL     1     -21.912  44.893 -18.682  0.00  0.00    +0.000 F 
ATOM     16  C   UNL     1     -21.508  44.710 -17.407  0.00  0.00    +0.000 C 
ENDBRANCH  12  16
ENDBRANCH  11  12
ENDBRANCH   8  11
ENDBRANCH   2   9
BRANCH   3  17
ATOM     17  N   UNL     1     -16.867  40.858 -13.099  0.00  0.00    +0.000 N 
ATOM     18  H   UNL     1     -17.340  40.641 -13.971  0.00  0.00    +0.000 HD
BRANCH  17  19
ATOM     19  C   UNL     1     -16.714  39.807 -12.148  0.00  0.00    +0.000 C 
ATOM     20  C   UNL     1     -17.984  39.650 -11.333  0.00  0.00    +0.000 C 
ENDBRANCH  17  19
ENDBRANCH   3  17
TORSDOF 6
ENDMDL
