MODEL 1
REMARK VINA RESULT:    -6.832      0.000      0.000
REMARK INTER + INTRA:          -9.120
REMARK INTER:                  -8.629
REMARK INTRA:                  -0.491
REMARK UNBOUND:                -0.491
REMARK  Name = 63228068
REMARK  5 active torsions:
REMARK  status: ('A' for Active; 'I' for Inactive)
REMARK    1  A    between atoms: N_5  and  C_8
REMARK    2  A    between atoms: N_7  and  C_13
REMARK    3  A    between atoms: C_8  and  C_9
REMARK    4  A    between atoms: C_9  and  C_10
REMARK    5  A    between atoms: C_11  and  C_12
REMARK                            x       y       z     vdW  Elec       q    Type
REMARK                         _______ _______ _______ _____ _____    ______ ____
ROOT
ATOM      1  O   UNL     1     -18.442  39.679 -10.116  0.00  0.00    +0.000 OA
ATOM      2  N   UNL     1     -19.275  41.567  -9.057  0.00  0.00    +0.000 N 
ATOM      3  C   UNL     1     -18.770  40.862 -10.144  0.00  0.00    +0.000 C 
ATOM      4  H   UNL     1     -19.502  42.552  -9.165  0.00  0.00    +0.000 HD
ENDROOT
BRANCH   3   6
ATOM      5  N   UNL     1     -19.104  41.957 -13.748  0.00  0.00    +0.000 NA
ATOM      6  C   UNL     1     -18.607  41.630 -11.404  0.00  0.00    +0.000 A 
ATOM      7  C   UNL     1     -19.236  41.277 -12.586  0.00  0.00    +0.000 A 
ATOM      8  C   UNL     1     -17.788  42.755 -11.414  0.00  0.00    +0.000 A 
ATOM      9  C   UNL     1     -17.626  43.480 -12.589  0.00  0.00    +0.000 A 
ATOM     10  C   UNL     1     -18.299  43.043 -13.718  0.00  0.00    +0.000 A 
BRANCH   7  11
ATOM     11  N   UNL     1     -20.070  40.130 -12.585  0.00  0.00    +0.000 N 
ATOM     12  H   UNL     1     -19.714  39.272 -12.987  0.00  0.00    +0.000 HD
ATOM     13  H   UNL     1     -21.067  40.296 -12.640  0.00  0.00    +0.000 HD
ENDBRANCH   7  11
ENDBRANCH   3   6
BRANCH   2  14
ATOM     14  C   UNL     1     -19.467  40.971  -7.764  0.00  0.00    +0.000 C 
BRANCH  14  15
ATOM     15  C   UNL     1     -20.149  41.914  -6.781  0.00  0.00    +0.000 C 
BRANCH  15  19
ATOM     16  F   UNL     1     -22.080  41.157  -7.937  0.00  0.00    +0.000 F 
ATOM     17  F   UNL     1     -22.242  41.447  -5.777  0.00  0.00    +0.000 F 
ATOM     18  F   UNL     1     -22.114  43.171  -7.106  0.00  0.00    +0.000 F 
ATOM     19  C   UNL     1     -21.660  41.915  -6.902  0.00  0.00    +0.000 C 
ENDBRANCH  15  19
ENDBRANCH  14  15
ENDBRANCH   2  14
TORSDOF 5
ENDMDL
MODEL 2
REMARK VINA RESULT:    -6.619      3.466      5.690
REMARK INTER + INTRA:          -8.851
REMARK INTER:                  -8.080
REMARK INTRA:                  -0.771
REMARK UNBOUND:                -0.491
REMARK  Name = 63228068
REMARK  5 active torsions:
REMARK  status: ('A' for Active; 'I' for Inactive)
REMARK    1  A    between atoms: N_5  and  C_8
REMARK    2  A    between atoms: N_7  and  C_13
REMARK    3  A    between atoms: C_8  and  C_9
REMARK    4  A    between atoms: C_9  and  C_10
REMARK    5  A    between atoms: C_11  and  C_12
REMARK                            x       y       z     vdW  Elec       q    Type
REMARK                         _______ _______ _______ _____ _____    ______ ____
ROOT
ATOM      1  O   UNL     1     -17.725  40.349  -8.618  0.00  0.00    +0.000 OA
ATOM      2  N   UNL     1     -18.267  42.163  -9.959  0.00  0.00    +0.000 N 
ATOM      3  C   UNL     1     -18.502  41.242  -8.943  0.00  0.00    +0.000 C 
ATOM      4  H   UNL     1     -18.977  42.858 -10.174  0.00  0.00    +0.000 HD
ENDROOT
BRANCH   3   6
ATOM      5  N   UNL     1     -22.083  40.630  -7.897  0.00  0.00    +0.000 NA
ATOM      6  C   UNL     1     -19.805  41.362  -8.240  0.00  0.00    +0.000 A 
ATOM      7  C   UNL     1     -20.886  40.542  -8.518  0.00  0.00    +0.000 A 
ATOM      8  C   UNL     1     -19.963  42.336  -7.259  0.00  0.00    +0.000 A 
ATOM      9  C   UNL     1     -21.179  42.457  -6.598  0.00  0.00    +0.000 A 
ATOM     10  C   UNL     1     -22.199  41.589  -6.950  0.00  0.00    +0.000 A 
BRANCH   7  11
ATOM     11  N   UNL     1     -20.735  39.549  -9.520  0.00  0.00    +0.000 N 
ATOM     12  H   UNL     1     -21.125  39.722 -10.437  0.00  0.00    +0.000 HD
ATOM     13  H   UNL     1     -20.691  38.589  -9.201  0.00  0.00    +0.000 HD
ENDBRANCH   7  11
ENDBRANCH   3   6
BRANCH   2  14
ATOM     14  C   UNL     1     -17.066  42.161 -10.747  0.00  0.00    +0.000 C 
BRANCH  14  15
ATOM     15  C   UNL     1     -17.266  41.524 -12.117  0.00  0.00    +0.000 C 
BRANCH  15  19
ATOM     16  F   UNL     1     -16.734  39.571 -13.359  0.00  0.00    +0.000 F 
ATOM     17  F   UNL     1     -16.002  39.694 -11.304  0.00  0.00    +0.000 F 
ATOM     18  F   UNL     1     -18.123  39.370 -11.693  0.00  0.00    +0.000 F 
ATOM     19  C   UNL     1     -17.023  40.027 -12.122  0.00  0.00    +0.000 C 
ENDBRANCH  15  19
ENDBRANCH  14  15
ENDBRANCH   2  14
TORSDOF 5
ENDMDL
MODEL 3
REMARK VINA RESULT:    -5.945      5.026      6.673
REMARK INTER + INTRA:          -8.000
REMARK INTER:                  -7.665
REMARK INTRA:                  -0.335
REMARK UNBOUND:                -0.491
REMARK  Name = 63228068
REMARK  5 active torsions:
REMARK  status: ('A' for Active; 'I' for Inactive)
REMARK    1  A    between atoms: N_5  and  C_8
REMARK    2  A    between atoms: N_7  and  C_13
REMARK    3  A    between atoms: C_8  and  C_9
REMARK    4  A    between atoms: C_9  and  C_10
REMARK    5  A    between atoms: C_11  and  C_12
REMARK                            x       y       z     vdW  Elec       q    Type
REMARK                         _______ _______ _______ _____ _____    ______ ____
ROOT
ATOM      1  O   UNL     1     -17.298  41.540 -13.538  0.00  0.00    +0.000 OA
ATOM      2  N   UNL     1     -19.362  42.598 -13.515  0.00  0.00    +0.000 N 
ATOM      3  C   UNL     1     -18.335  41.845 -12.956  0.00  0.00    +0.000 C 
ATOM      4  H   UNL     1     -20.196  42.786 -12.966  0.00  0.00    +0.000 HD
ENDROOT
BRANCH   3   6
ATOM      5  N   UNL     1     -19.398  39.715 -10.018  0.00  0.00    +0.000 NA
ATOM      6  C   UNL     1     -18.554  41.370 -11.566  0.00  0.00    +0.000 A 
ATOM      7  C   UNL     1     -19.183  40.171 -11.273  0.00  0.00    +0.000 A 
ATOM      8  C   UNL     1     -18.115  42.151 -10.503  0.00  0.00    +0.000 A 
ATOM      9  C   UNL     1     -18.317  41.716  -9.198  0.00  0.00    +0.000 A 
ATOM     10  C   UNL     1     -18.958  40.503  -9.011  0.00  0.00    +0.000 A 
BRANCH   7  11
ATOM     11  N   UNL     1     -19.637  39.370 -12.352  0.00  0.00    +0.000 N 
ATOM     12  H   UNL     1     -20.626  39.363 -12.567  0.00  0.00    +0.000 HD
ATOM     13  H   UNL     1     -19.108  38.528 -12.543  0.00  0.00    +0.000 HD
ENDBRANCH   7  11
ENDBRANCH   3   6
BRANCH   2  14
ATOM     14  C   UNL     1     -19.311  43.108 -14.857  0.00  0.00    +0.000 C 
BRANCH  14  15
ATOM     15  C   UNL     1     -20.677  43.116 -15.532  0.00  0.00    +0.000 C 
BRANCH  15  19
ATOM     16  F   UNL     1     -21.502  42.331 -17.616  0.00  0.00    +0.000 F 
ATOM     17  F   UNL     1     -20.810  44.401 -17.516  0.00  0.00    +0.000 F 
ATOM     18  F   UNL     1     -19.372  42.763 -17.461  0.00  0.00    +0.000 F 
ATOM     19  C   UNL     1     -20.597  43.154 -17.045  0.00  0.00    +0.000 C 
ENDBRANCH  15  19
ENDBRANCH  14  15
ENDBRANCH   2  14
TORSDOF 5
ENDMDL
MODEL 4
REMARK VINA RESULT:    -5.907      3.605      5.617
REMARK INTER + INTRA:          -7.951
REMARK INTER:                  -7.462
REMARK INTRA:                  -0.489
REMARK UNBOUND:                -0.491
REMARK  Name = 63228068
REMARK  5 active torsions:
REMARK  status: ('A' for Active; 'I' for Inactive)
REMARK    1  A    between atoms: N_5  and  C_8
REMARK    2  A    between atoms: N_7  and  C_13
REMARK    3  A    between atoms: C_8  and  C_9
REMARK    4  A    between atoms: C_9  and  C_10
REMARK    5  A    between atoms: C_11  and  C_12
REMARK                            x       y       z     vdW  Elec       q    Type
REMARK                         _______ _______ _______ _____ _____    ______ ____
ROOT
ATOM      1  O   UNL     1     -17.260  40.110 -10.569  0.00  0.00    +0.000 OA
ATOM      2  N   UNL     1     -17.063  42.416 -10.411  0.00  0.00    +0.000 N 
ATOM      3  C   UNL     1     -17.643  41.186 -10.119  0.00  0.00    +0.000 C 
ATOM      4  H   UNL     1     -17.459  43.261 -10.009  0.00  0.00    +0.000 HD
ENDROOT
BRANCH   3   6
ATOM      5  N   UNL     1     -21.044  40.461  -8.633  0.00  0.00    +0.000 NA
ATOM      6  C   UNL     1     -18.823  41.218  -9.217  0.00  0.00    +0.000 A 
ATOM      7  C   UNL     1     -19.955  40.450  -9.435  0.00  0.00    +0.000 A 
ATOM      8  C   UNL     1     -18.806  42.049  -8.102  0.00  0.00    +0.000 A 
ATOM      9  C   UNL     1     -19.906  42.088  -7.253  0.00  0.00    +0.000 A 
ATOM     10  C   UNL     1     -20.990  41.282  -7.560  0.00  0.00    +0.000 A 
BRANCH   7  11
ATOM     11  N   UNL     1     -19.982  39.602 -10.572  0.00  0.00    +0.000 N 
ATOM     12  H   UNL     1     -19.670  39.973 -11.460  0.00  0.00    +0.000 HD
ATOM     13  H   UNL     1     -20.701  38.889 -10.586  0.00  0.00    +0.000 HD
ENDBRANCH   7  11
ENDBRANCH   3   6
BRANCH   2  14
ATOM     14  C   UNL     1     -15.932  42.553 -11.286  0.00  0.00    +0.000 C 
BRANCH  14  15
ATOM     15  C   UNL     1     -16.044  43.767 -12.200  0.00  0.00    +0.000 C 
BRANCH  15  19
ATOM     16  F   UNL     1     -17.036  44.482 -14.236  0.00  0.00    +0.000 F 
ATOM     17  F   UNL     1     -17.410  42.427 -13.594  0.00  0.00    +0.000 F 
ATOM     18  F   UNL     1     -18.352  44.090 -12.544  0.00  0.00    +0.000 F 
ATOM     19  C   UNL     1     -17.216  43.690 -13.158  0.00  0.00    +0.000 C 
ENDBRANCH  15  19
ENDBRANCH  14  15
ENDBRANCH   2  14
TORSDOF 5
ENDMDL
MODEL 5
REMARK VINA RESULT:    -5.849      5.162      7.139
REMARK INTER + INTRA:          -7.878
REMARK INTER:                  -7.349
REMARK INTRA:                  -0.530
REMARK UNBOUND:                -0.491
REMARK  Name = 63228068
REMARK  5 active torsions:
REMARK  status: ('A' for Active; 'I' for Inactive)
REMARK    1  A    between atoms: N_5  and  C_8
REMARK    2  A    between atoms: N_7  and  C_13
REMARK    3  A    between atoms: C_8  and  C_9
REMARK    4  A    between atoms: C_9  and  C_10
REMARK    5  A    between atoms: C_11  and  C_12
REMARK                            x       y       z     vdW  Elec       q    Type
REMARK                         _______ _______ _______ _____ _____    ______ ____
ROOT
ATOM      1  O   UNL     1     -18.621  44.103 -13.192  0.00  0.00    +0.000 OA
ATOM      2  N   UNL     1     -19.268  42.691 -14.914  0.00  0.00    +0.000 N 
ATOM      3  C   UNL     1     -18.799  42.973 -13.636  0.00  0.00    +0.000 C 
ATOM      4  H   UNL     1     -19.367  41.723 -15.206  0.00  0.00    +0.000 HD
ENDROOT
BRANCH   3   6
ATOM      5  N   UNL     1     -16.863  40.421 -11.627  0.00  0.00    +0.000 NA
ATOM      6  C   UNL     1     -18.477  41.799 -12.784  0.00  0.00    +0.000 A 
ATOM      7  C   UNL     1     -17.185  41.483 -12.399  0.00  0.00    +0.000 A 
ATOM      8  C   UNL     1     -19.507  40.972 -12.347  0.00  0.00    +0.000 A 
ATOM      9  C   UNL     1     -19.216  39.871 -11.551  0.00  0.00    +0.000 A 
ATOM     10  C   UNL     1     -17.890  39.640 -11.222  0.00  0.00    +0.000 A 
BRANCH   7  11
ATOM     11  N   UNL     1     -16.129  42.319 -12.844  0.00  0.00    +0.000 N 
ATOM     12  H   UNL     1     -16.098  43.276 -12.516  0.00  0.00    +0.000 HD
ATOM     13  H   UNL     1     -15.757  42.126 -13.765  0.00  0.00    +0.000 HD
ENDBRANCH   7  11
ENDBRANCH   3   6
BRANCH   2  14
ATOM     14  C   UNL     1     -19.598  43.717 -15.864  0.00  0.00    +0.000 C 
BRANCH  14  15
ATOM     15  C   UNL     1     -19.832  43.163 -17.265  0.00  0.00    +0.000 C 
BRANCH  15  19
ATOM     16  F   UNL     1     -21.733  43.622 -18.612  0.00  0.00    +0.000 F 
ATOM     17  F   UNL     1     -21.503  41.589 -17.846  0.00  0.00    +0.000 F 
ATOM     18  F   UNL     1     -22.059  43.210 -16.498  0.00  0.00    +0.000 F 
ATOM     19  C   UNL     1     -21.293  42.893 -17.565  0.00  0.00    +0.000 C 
ENDBRANCH  15  19
ENDBRANCH  14  15
ENDBRANCH   2  14
TORSDOF 5
ENDMDL
