MODEL 1
REMARK VINA RESULT:    -6.343      0.000      0.000
REMARK INTER + INTRA:          -9.247
REMARK INTER:                  -8.198
REMARK INTRA:                  -1.049
REMARK UNBOUND:                -1.049
REMARK  Name = 63226790
REMARK  5 active torsions:
REMARK  status: ('A' for Active; 'I' for Inactive)
REMARK    1  A    between atoms: N_5  and  C_8
REMARK    2  A    between atoms: N_5  and  C_10
REMARK    3  A    between atoms: C_8  and  C_9
REMARK    4  A    between atoms: C_9  and  C_11
REMARK    5  A    between atoms: C_12  and  C_15
REMARK                            x       y       z     vdW  Elec       q    Type
REMARK                         _______ _______ _______ _____ _____    ______ ____
ROOT
ATOM      1  N   UNL     1     -18.561  42.324  -8.315  0.00  0.00    +0.000 NA
ATOM      2  C   UNL     1     -18.291  41.609  -9.431  0.00  0.00    +0.000 A 
ATOM      3  C   UNL     1     -19.024  40.507  -9.842  0.00  0.00    +0.000 A 
ATOM      4  C   UNL     1     -20.102  40.113  -9.058  0.00  0.00    +0.000 A 
ATOM      5  C   UNL     1     -20.411  40.823  -7.903  0.00  0.00    +0.000 A 
ATOM      6  C   UNL     1     -19.615  41.911  -7.578  0.00  0.00    +0.000 A 
ENDROOT
BRANCH   3   9
ATOM      7  O   UNL     1     -17.534  39.467 -11.341  0.00  0.00    +0.000 OA
ATOM      8  N   UNL     1     -19.765  39.353 -11.855  0.00  0.00    +0.000 N 
ATOM      9  C   UNL     1     -18.706  39.755 -11.049  0.00  0.00    +0.000 C 
ATOM     10  H   UNL     1     -20.730  39.573 -11.629  0.00  0.00    +0.000 HD
ATOM     11  H   UNL     1     -19.602  38.821 -12.704  0.00  0.00    +0.000 HD
ENDBRANCH   3   9
BRANCH   2  12
ATOM     12  N   UNL     1     -17.212  42.005 -10.206  0.00  0.00    +0.000 N 
ATOM     13  H   UNL     1     -16.511  41.303 -10.413  0.00  0.00    +0.000 HD
BRANCH  12  14
ATOM     14  C   UNL     1     -17.221  43.176 -11.052  0.00  0.00    +0.000 C 
BRANCH  14  15
ATOM     15  C   UNL     1     -16.971  42.796 -12.508  0.00  0.00    +0.000 C 
BRANCH  15  19
ATOM     16  F   UNL     1     -18.278  41.400 -13.917  0.00  0.00    +0.000 F 
ATOM     17  F   UNL     1     -19.337  42.704 -12.520  0.00  0.00    +0.000 F 
ATOM     18  F   UNL     1     -18.344  43.550 -14.267  0.00  0.00    +0.000 F 
ATOM     19  C   UNL     1     -18.245  42.603 -13.306  0.00  0.00    +0.000 C 
ENDBRANCH  15  19
ENDBRANCH  14  15
ENDBRANCH  12  14
ENDBRANCH   2  12
TORSDOF 5
ENDMDL
MODEL 2
REMARK VINA RESULT:    -6.146      3.440      5.033
REMARK INTER + INTRA:          -8.991
REMARK INTER:                  -8.479
REMARK INTRA:                  -0.513
REMARK UNBOUND:                -1.049
REMARK  Name = 63226790
REMARK  5 active torsions:
REMARK  status: ('A' for Active; 'I' for Inactive)
REMARK    1  A    between atoms: N_5  and  C_8
REMARK    2  A    between atoms: N_5  and  C_10
REMARK    3  A    between atoms: C_8  and  C_9
REMARK    4  A    between atoms: C_9  and  C_11
REMARK    5  A    between atoms: C_12  and  C_15
REMARK                            x       y       z     vdW  Elec       q    Type
REMARK                         _______ _______ _______ _____ _____    ______ ____
ROOT
ATOM      1  N   UNL     1     -17.808  42.807  -9.645  0.00  0.00    +0.000 NA
ATOM      2  C   UNL     1     -18.389  41.642 -10.012  0.00  0.00    +0.000 A 
ATOM      3  C   UNL     1     -18.528  41.225 -11.326  0.00  0.00    +0.000 A 
ATOM      4  C   UNL     1     -18.041  42.058 -12.328  0.00  0.00    +0.000 A 
ATOM      5  C   UNL     1     -17.438  43.264 -11.990  0.00  0.00    +0.000 A 
ATOM      6  C   UNL     1     -17.348  43.590 -10.646  0.00  0.00    +0.000 A 
ENDROOT
BRANCH   3   9
ATOM      7  O   UNL     1     -18.860  38.903 -11.121  0.00  0.00    +0.000 OA
ATOM      8  N   UNL     1     -20.131  39.995 -12.686  0.00  0.00    +0.000 N 
ATOM      9  C   UNL     1     -19.161  39.965 -11.690  0.00  0.00    +0.000 C 
ATOM     10  H   UNL     1     -20.395  40.855 -13.158  0.00  0.00    +0.000 HD
ATOM     11  H   UNL     1     -20.609  39.147 -12.975  0.00  0.00    +0.000 HD
ENDBRANCH   3   9
BRANCH   2  12
ATOM     12  N   UNL     1     -18.875  40.819  -9.008  0.00  0.00    +0.000 N 
ATOM     13  H   UNL     1     -18.198  40.254  -8.507  0.00  0.00    +0.000 HD
BRANCH  12  14
ATOM     14  C   UNL     1     -20.156  41.005  -8.370  0.00  0.00    +0.000 C 
BRANCH  14  15
ATOM     15  C   UNL     1     -20.022  41.878  -7.126  0.00  0.00    +0.000 C 
BRANCH  15  19
ATOM     16  F   UNL     1     -21.855  43.353  -6.797  0.00  0.00    +0.000 F 
ATOM     17  F   UNL     1     -22.259  41.207  -6.735  0.00  0.00    +0.000 F 
ATOM     18  F   UNL     1     -21.184  42.165  -5.098  0.00  0.00    +0.000 F 
ATOM     19  C   UNL     1     -21.345  42.155  -6.441  0.00  0.00    +0.000 C 
ENDBRANCH  15  19
ENDBRANCH  14  15
ENDBRANCH  12  14
ENDBRANCH   2  12
TORSDOF 5
ENDMDL
MODEL 3
REMARK VINA RESULT:    -6.094      3.402      5.234
REMARK INTER + INTRA:          -8.925
REMARK INTER:                  -8.374
REMARK INTRA:                  -0.551
REMARK UNBOUND:                -1.049
REMARK  Name = 63226790
REMARK  5 active torsions:
REMARK  status: ('A' for Active; 'I' for Inactive)
REMARK    1  A    between atoms: N_5  and  C_8
REMARK    2  A    between atoms: N_5  and  C_10
REMARK    3  A    between atoms: C_8  and  C_9
REMARK    4  A    between atoms: C_9  and  C_11
REMARK    5  A    between atoms: C_12  and  C_15
REMARK                            x       y       z     vdW  Elec       q    Type
REMARK                         _______ _______ _______ _____ _____    ______ ____
ROOT
ATOM      1  N   UNL     1     -19.249  39.918 -10.797  0.00  0.00    +0.000 NA
ATOM      2  C   UNL     1     -18.520  41.029 -10.546  0.00  0.00    +0.000 A 
ATOM      3  C   UNL     1     -17.635  41.596 -11.449  0.00  0.00    +0.000 A 
ATOM      4  C   UNL     1     -17.489  40.983 -12.689  0.00  0.00    +0.000 A 
ATOM      5  C   UNL     1     -18.220  39.838 -12.983  0.00  0.00    +0.000 A 
ATOM      6  C   UNL     1     -19.080  39.350 -12.011  0.00  0.00    +0.000 A 
ENDROOT
BRANCH   3   9
ATOM      7  O   UNL     1     -17.408  43.901 -11.021  0.00  0.00    +0.000 OA
ATOM      8  N   UNL     1     -15.487  42.649 -10.990  0.00  0.00    +0.000 N 
ATOM      9  C   UNL     1     -16.861  42.793 -11.149  0.00  0.00    +0.000 C 
ATOM     10  H   UNL     1     -15.024  41.751 -11.084  0.00  0.00    +0.000 HD
ATOM     11  H   UNL     1     -14.900  43.449 -10.774  0.00  0.00    +0.000 HD
ENDBRANCH   3   9
BRANCH   2  12
ATOM     12  N   UNL     1     -18.669  41.633  -9.308  0.00  0.00    +0.000 N 
ATOM     13  H   UNL     1     -18.629  42.646  -9.281  0.00  0.00    +0.000 HD
BRANCH  12  14
ATOM     14  C   UNL     1     -19.268  40.983  -8.166  0.00  0.00    +0.000 C 
BRANCH  14  15
ATOM     15  C   UNL     1     -19.759  42.010  -7.151  0.00  0.00    +0.000 C 
BRANCH  15  19
ATOM     16  F   UNL     1     -21.857  41.041  -7.699  0.00  0.00    +0.000 F 
ATOM     17  F   UNL     1     -21.499  41.563  -5.608  0.00  0.00    +0.000 F 
ATOM     18  F   UNL     1     -21.829  43.132  -7.086  0.00  0.00    +0.000 F 
ATOM     19  C   UNL     1     -21.249  41.927  -6.883  0.00  0.00    +0.000 C 
ENDBRANCH  15  19
ENDBRANCH  14  15
ENDBRANCH  12  14
ENDBRANCH   2  12
TORSDOF 5
ENDMDL
MODEL 4
REMARK VINA RESULT:    -6.023      2.409      4.332
REMARK INTER + INTRA:          -8.832
REMARK INTER:                  -7.968
REMARK INTRA:                  -0.864
REMARK UNBOUND:                -1.049
REMARK  Name = 63226790
REMARK  5 active torsions:
REMARK  status: ('A' for Active; 'I' for Inactive)
REMARK    1  A    between atoms: N_5  and  C_8
REMARK    2  A    between atoms: N_5  and  C_10
REMARK    3  A    between atoms: C_8  and  C_9
REMARK    4  A    between atoms: C_9  and  C_11
REMARK    5  A    between atoms: C_12  and  C_15
REMARK                            x       y       z     vdW  Elec       q    Type
REMARK                         _______ _______ _______ _____ _____    ______ ____
ROOT
ATOM      1  N   UNL     1     -18.068  43.523 -11.569  0.00  0.00    +0.000 NA
ATOM      2  C   UNL     1     -17.776  42.247 -11.231  0.00  0.00    +0.000 A 
ATOM      3  C   UNL     1     -17.766  41.190 -12.128  0.00  0.00    +0.000 A 
ATOM      4  C   UNL     1     -18.077  41.460 -13.456  0.00  0.00    +0.000 A 
ATOM      5  C   UNL     1     -18.383  42.760 -13.842  0.00  0.00    +0.000 A 
ATOM      6  C   UNL     1     -18.364  43.747 -12.869  0.00  0.00    +0.000 A 
ENDROOT
BRANCH   3   9
ATOM      7  O   UNL     1     -18.316  39.075 -11.249  0.00  0.00    +0.000 OA
ATOM      8  N   UNL     1     -16.149  39.379 -11.933  0.00  0.00    +0.000 N 
ATOM      9  C   UNL     1     -17.451  39.824 -11.732  0.00  0.00    +0.000 C 
ATOM     10  H   UNL     1     -15.430  39.975 -12.333  0.00  0.00    +0.000 HD
ATOM     11  H   UNL     1     -15.875  38.434 -11.682  0.00  0.00    +0.000 HD
ENDBRANCH   3   9
BRANCH   2  12
ATOM     12  N   UNL     1     -17.471  41.984  -9.905  0.00  0.00    +0.000 N 
ATOM     13  H   UNL     1     -16.489  41.912  -9.663  0.00  0.00    +0.000 HD
BRANCH  12  14
ATOM     14  C   UNL     1     -18.387  42.208  -8.812  0.00  0.00    +0.000 C 
BRANCH  14  15
ATOM     15  C   UNL     1     -18.968  40.890  -8.310  0.00  0.00    +0.000 C 
BRANCH  15  19
ATOM     16  F   UNL     1     -20.482  40.888 -10.140  0.00  0.00    +0.000 F 
ATOM     17  F   UNL     1     -20.714  39.323  -8.633  0.00  0.00    +0.000 F 
ATOM     18  F   UNL     1     -21.267  41.380  -8.168  0.00  0.00    +0.000 F 
ATOM     19  C   UNL     1     -20.367  40.614  -8.824  0.00  0.00    +0.000 C 
ENDBRANCH  15  19
ENDBRANCH  14  15
ENDBRANCH  12  14
ENDBRANCH   2  12
TORSDOF 5
ENDMDL
MODEL 5
REMARK VINA RESULT:    -5.706      1.826      2.178
REMARK INTER + INTRA:          -8.423
REMARK INTER:                  -7.926
REMARK INTRA:                  -0.497
REMARK UNBOUND:                -1.049
REMARK  Name = 63226790
REMARK  5 active torsions:
REMARK  status: ('A' for Active; 'I' for Inactive)
REMARK    1  A    between atoms: N_5  and  C_8
REMARK    2  A    between atoms: N_5  and  C_10
REMARK    3  A    between atoms: C_8  and  C_9
REMARK    4  A    between atoms: C_9  and  C_11
REMARK    5  A    between atoms: C_12  and  C_15
REMARK                            x       y       z     vdW  Elec       q    Type
REMARK                         _______ _______ _______ _____ _____    ______ ____
ROOT
ATOM      1  N   UNL     1     -18.789  42.204  -8.167  0.00  0.00    +0.000 NA
ATOM      2  C   UNL     1     -18.471  41.522  -9.290  0.00  0.00    +0.000 A 
ATOM      3  C   UNL     1     -19.238  40.496  -9.820  0.00  0.00    +0.000 A 
ATOM      4  C   UNL     1     -20.407  40.148  -9.152  0.00  0.00    +0.000 A 
ATOM      5  C   UNL     1     -20.768  40.825  -7.993  0.00  0.00    +0.000 A 
ATOM      6  C   UNL     1     -19.932  41.836  -7.546  0.00  0.00    +0.000 A 
ENDROOT
BRANCH   3   9
ATOM      7  O   UNL     1     -17.714  39.345 -11.198  0.00  0.00    +0.000 OA
ATOM      8  N   UNL     1     -19.853  39.577 -11.990  0.00  0.00    +0.000 N 
ATOM      9  C   UNL     1     -18.866  39.778 -11.031  0.00  0.00    +0.000 C 
ATOM     10  H   UNL     1     -20.802  39.918 -11.868  0.00  0.00    +0.000 HD
ATOM     11  H   UNL     1     -19.652  39.077 -12.850  0.00  0.00    +0.000 HD
ENDBRANCH   3   9
BRANCH   2  12
ATOM     12  N   UNL     1     -17.302  41.873  -9.949  0.00  0.00    +0.000 N 
ATOM     13  H   UNL     1     -16.528  41.220  -9.893  0.00  0.00    +0.000 HD
BRANCH  12  14
ATOM     14  C   UNL     1     -17.242  42.854 -11.006  0.00  0.00    +0.000 C 
BRANCH  14  15
ATOM     15  C   UNL     1     -15.912  42.772 -11.749  0.00  0.00    +0.000 C 
BRANCH  15  19
ATOM     16  F   UNL     1     -14.169  44.385 -11.814  0.00  0.00    +0.000 F 
ATOM     17  F   UNL     1     -15.412  44.165 -13.597  0.00  0.00    +0.000 F 
ATOM     18  F   UNL     1     -16.225  45.105 -11.806  0.00  0.00    +0.000 F 
ATOM     19  C   UNL     1     -15.418  44.115 -12.248  0.00  0.00    +0.000 C 
ENDBRANCH  15  19
ENDBRANCH  14  15
ENDBRANCH  12  14
ENDBRANCH   2  12
TORSDOF 5
ENDMDL
