MODEL 1
REMARK VINA RESULT:    -7.049      0.000      0.000
REMARK INTER + INTRA:          -8.964
REMARK INTER:                  -8.697
REMARK INTRA:                  -0.267
REMARK UNBOUND:                -0.267
REMARK  Name = 63227522
REMARK  5 active torsions:
REMARK  status: ('A' for Active; 'I' for Inactive)
REMARK    1  A    between atoms: N_5  and  C_8
REMARK    2  A    between atoms: N_7  and  C_17
REMARK    3  A    between atoms: C_8  and  C_9
REMARK    4  A    between atoms: C_9  and  C_10
REMARK    5  A    between atoms: C_11  and  C_12
REMARK                            x       y       z     vdW  Elec       q    Type
REMARK                         _______ _______ _______ _____ _____    ______ ____
ROOT
ATOM      1  O   UNL     1     -17.503  40.381  -9.996  0.00  0.00    +0.000 OA
ATOM      2  N   UNL     1     -19.576  41.233  -9.395  0.00  0.00    +0.000 N 
ATOM      3  C   UNL     1     -18.506  41.037 -10.263  0.00  0.00    +0.000 C 
ATOM      4  H   UNL     1     -20.352  41.828  -9.663  0.00  0.00    +0.000 HD
ENDROOT
BRANCH   3   7
ATOM      5  N   UNL     1     -19.698  41.865 -13.739  0.00  0.00    +0.000 NA
ATOM      6  N   UNL     1     -18.960  43.502 -15.306  0.00  0.00    +0.000 N 
ATOM      7  C   UNL     1     -18.607  41.703 -11.588  0.00  0.00    +0.000 A 
ATOM      8  C   UNL     1     -17.754  42.746 -11.932  0.00  0.00    +0.000 A 
ATOM      9  C   UNL     1     -19.553  41.303 -12.518  0.00  0.00    +0.000 A 
ATOM     10  C   UNL     1     -18.852  42.876 -14.038  0.00  0.00    +0.000 A 
ATOM     11  C   UNL     1     -17.873  43.349 -13.179  0.00  0.00    +0.000 A 
ATOM     12  C   UNL     1     -19.926  43.107 -16.278  0.00  0.00    +0.000 C 
ATOM     13  H   UNL     1     -18.186  44.088 -15.599  0.00  0.00    +0.000 HD
ENDBRANCH   3   7
BRANCH   2  14
ATOM     14  C   UNL     1     -19.615  40.675  -8.073  0.00  0.00    +0.000 C 
BRANCH  14  15
ATOM     15  C   UNL     1     -20.074  41.685  -7.026  0.00  0.00    +0.000 C 
BRANCH  15  19
ATOM     16  F   UNL     1     -22.207  40.948  -7.765  0.00  0.00    +0.000 F 
ATOM     17  F   UNL     1     -21.998  41.489  -5.659  0.00  0.00    +0.000 F 
ATOM     18  F   UNL     1     -21.994  43.038  -7.192  0.00  0.00    +0.000 F 
ATOM     19  C   UNL     1     -21.582  41.783  -6.910  0.00  0.00    +0.000 C 
ENDBRANCH  15  19
ENDBRANCH  14  15
ENDBRANCH   2  14
TORSDOF 4
ENDMDL
MODEL 2
REMARK VINA RESULT:    -6.714      1.608      2.301
REMARK INTER + INTRA:          -8.551
REMARK INTER:                  -8.422
REMARK INTRA:                  -0.130
REMARK UNBOUND:                -0.267
REMARK  Name = 63227522
REMARK  5 active torsions:
REMARK  status: ('A' for Active; 'I' for Inactive)
REMARK    1  A    between atoms: N_5  and  C_8
REMARK    2  A    between atoms: N_7  and  C_17
REMARK    3  A    between atoms: C_8  and  C_9
REMARK    4  A    between atoms: C_9  and  C_10
REMARK    5  A    between atoms: C_11  and  C_12
REMARK                            x       y       z     vdW  Elec       q    Type
REMARK                         _______ _______ _______ _____ _____    ______ ____
ROOT
ATOM      1  O   UNL     1     -19.011  39.313 -10.864  0.00  0.00    +0.000 OA
ATOM      2  N   UNL     1     -19.927  41.010  -9.573  0.00  0.00    +0.000 N 
ATOM      3  C   UNL     1     -19.205  40.507 -10.650  0.00  0.00    +0.000 C 
ATOM      4  H   UNL     1     -20.005  42.011  -9.429  0.00  0.00    +0.000 HD
ENDROOT
BRANCH   3   7
ATOM      5  N   UNL     1     -17.001  43.268 -11.957  0.00  0.00    +0.000 NA
ATOM      6  N   UNL     1     -16.925  44.348 -14.080  0.00  0.00    +0.000 N 
ATOM      7  C   UNL     1     -18.619  41.514 -11.573  0.00  0.00    +0.000 A 
ATOM      8  C   UNL     1     -19.100  41.662 -12.870  0.00  0.00    +0.000 A 
ATOM      9  C   UNL     1     -17.577  42.333 -11.169  0.00  0.00    +0.000 A 
ATOM     10  C   UNL     1     -17.494  43.383 -13.211  0.00  0.00    +0.000 A 
ATOM     11  C   UNL     1     -18.532  42.613 -13.710  0.00  0.00    +0.000 A 
ATOM     12  C   UNL     1     -15.853  45.202 -13.685  0.00  0.00    +0.000 C 
ATOM     13  H   UNL     1     -17.447  44.578 -14.919  0.00  0.00    +0.000 HD
ENDBRANCH   3   7
BRANCH   2  14
ATOM     14  C   UNL     1     -20.532  40.165  -8.581  0.00  0.00    +0.000 C 
BRANCH  14  15
ATOM     15  C   UNL     1     -21.604  40.887  -7.773  0.00  0.00    +0.000 C 
BRANCH  15  19
ATOM     16  F   UNL     1     -19.696  41.988  -6.888  0.00  0.00    +0.000 F 
ATOM     17  F   UNL     1     -21.559  43.123  -6.996  0.00  0.00    +0.000 F 
ATOM     18  F   UNL     1     -21.332  41.532  -5.524  0.00  0.00    +0.000 F 
ATOM     19  C   UNL     1     -21.038  41.894  -6.792  0.00  0.00    +0.000 C 
ENDBRANCH  15  19
ENDBRANCH  14  15
ENDBRANCH   2  14
TORSDOF 4
ENDMDL
MODEL 3
REMARK VINA RESULT:    -6.283      1.930      2.329
REMARK INTER + INTRA:          -8.020
REMARK INTER:                  -7.480
REMARK INTRA:                  -0.540
REMARK UNBOUND:                -0.267
REMARK  Name = 63227522
REMARK  5 active torsions:
REMARK  status: ('A' for Active; 'I' for Inactive)
REMARK    1  A    between atoms: N_5  and  C_8
REMARK    2  A    between atoms: N_7  and  C_17
REMARK    3  A    between atoms: C_8  and  C_9
REMARK    4  A    between atoms: C_9  and  C_10
REMARK    5  A    between atoms: C_11  and  C_12
REMARK                            x       y       z     vdW  Elec       q    Type
REMARK                         _______ _______ _______ _____ _____    ______ ____
ROOT
ATOM      1  O   UNL     1     -17.422  41.489 -11.155  0.00  0.00    +0.000 OA
ATOM      2  N   UNL     1     -19.633  40.813 -11.354  0.00  0.00    +0.000 N 
ATOM      3  C   UNL     1     -18.523  41.580 -11.691  0.00  0.00    +0.000 C 
ATOM      4  H   UNL     1     -20.527  40.976 -11.805  0.00  0.00    +0.000 HD
ENDROOT
BRANCH   3   7
ATOM      5  N   UNL     1     -19.788  43.202 -14.847  0.00  0.00    +0.000 NA
ATOM      6  N   UNL     1     -19.351  45.341 -15.800  0.00  0.00    +0.000 N 
ATOM      7  C   UNL     1     -18.725  42.589 -12.764  0.00  0.00    +0.000 A 
ATOM      8  C   UNL     1     -18.083  43.821 -12.720  0.00  0.00    +0.000 A 
ATOM      9  C   UNL     1     -19.561  42.330 -13.839  0.00  0.00    +0.000 A 
ATOM     10  C   UNL     1     -19.147  44.390 -14.770  0.00  0.00    +0.000 A 
ATOM     11  C   UNL     1     -18.293  44.745 -13.738  0.00  0.00    +0.000 A 
ATOM     12  C   UNL     1     -20.205  45.097 -16.916  0.00  0.00    +0.000 C 
ATOM     13  H   UNL     1     -18.698  46.117 -15.848  0.00  0.00    +0.000 HD
ENDBRANCH   3   7
BRANCH   2  14
ATOM     14  C   UNL     1     -19.602  39.815 -10.322  0.00  0.00    +0.000 C 
BRANCH  14  15
ATOM     15  C   UNL     1     -20.246  40.294  -9.025  0.00  0.00    +0.000 C 
BRANCH  15  19
ATOM     16  F   UNL     1     -19.642  40.844  -6.795  0.00  0.00    +0.000 F 
ATOM     17  F   UNL     1     -18.027  40.450  -8.212  0.00  0.00    +0.000 F 
ATOM     18  F   UNL     1     -19.186  42.290  -8.359  0.00  0.00    +0.000 F 
ATOM     19  C   UNL     1     -19.267  40.969  -8.085  0.00  0.00    +0.000 C 
ENDBRANCH  15  19
ENDBRANCH  14  15
ENDBRANCH   2  14
TORSDOF 4
ENDMDL
MODEL 4
REMARK VINA RESULT:    -6.235      3.810      6.609
REMARK INTER + INTRA:          -7.960
REMARK INTER:                  -7.667
REMARK INTRA:                  -0.292
REMARK UNBOUND:                -0.267
REMARK  Name = 63227522
REMARK  5 active torsions:
REMARK  status: ('A' for Active; 'I' for Inactive)
REMARK    1  A    between atoms: N_5  and  C_8
REMARK    2  A    between atoms: N_7  and  C_17
REMARK    3  A    between atoms: C_8  and  C_9
REMARK    4  A    between atoms: C_9  and  C_10
REMARK    5  A    between atoms: C_11  and  C_12
REMARK                            x       y       z     vdW  Elec       q    Type
REMARK                         _______ _______ _______ _____ _____    ______ ____
ROOT
ATOM      1  O   UNL     1     -17.943  39.704 -10.958  0.00  0.00    +0.000 OA
ATOM      2  N   UNL     1     -16.974  41.746 -10.431  0.00  0.00    +0.000 N 
ATOM      3  C   UNL     1     -17.924  40.739 -10.296  0.00  0.00    +0.000 C 
ATOM      4  H   UNL     1     -17.048  42.599  -9.885  0.00  0.00    +0.000 HD
ENDROOT
BRANCH   3   7
ATOM      5  N   UNL     1     -19.749  42.166  -7.326  0.00  0.00    +0.000 NA
ATOM      6  N   UNL     1     -21.910  41.701  -6.436  0.00  0.00    +0.000 N 
ATOM      7  C   UNL     1     -18.991  40.975  -9.289  0.00  0.00    +0.000 A 
ATOM      8  C   UNL     1     -20.190  40.273  -9.336  0.00  0.00    +0.000 A 
ATOM      9  C   UNL     1     -18.821  41.903  -8.273  0.00  0.00    +0.000 A 
ATOM     10  C   UNL     1     -20.902  41.464  -7.404  0.00  0.00    +0.000 A 
ATOM     11  C   UNL     1     -21.169  40.516  -8.379  0.00  0.00    +0.000 A 
ATOM     12  C   UNL     1     -21.757  42.649  -5.382  0.00  0.00    +0.000 C 
ATOM     13  H   UNL     1     -22.657  41.017  -6.371  0.00  0.00    +0.000 HD
ENDBRANCH   3   7
BRANCH   2  14
ATOM     14  C   UNL     1     -15.897  41.676 -11.378  0.00  0.00    +0.000 C 
BRANCH  14  15
ATOM     15  C   UNL     1     -15.775  42.940 -12.221  0.00  0.00    +0.000 C 
BRANCH  15  19
ATOM     16  F   UNL     1     -18.016  43.726 -12.183  0.00  0.00    +0.000 F 
ATOM     17  F   UNL     1     -16.806  44.206 -13.937  0.00  0.00    +0.000 F 
ATOM     18  F   UNL     1     -17.508  42.167 -13.617  0.00  0.00    +0.000 F 
ATOM     19  C   UNL     1     -17.038  43.269 -12.993  0.00  0.00    +0.000 C 
ENDBRANCH  15  19
ENDBRANCH  14  15
ENDBRANCH   2  14
TORSDOF 4
ENDMDL
MODEL 5
REMARK VINA RESULT:    -6.016      1.933      2.475
REMARK INTER + INTRA:          -7.689
REMARK INTER:                  -7.365
REMARK INTRA:                  -0.325
REMARK UNBOUND:                -0.267
REMARK  Name = 63227522
REMARK  5 active torsions:
REMARK  status: ('A' for Active; 'I' for Inactive)
REMARK    1  A    between atoms: N_5  and  C_8
REMARK    2  A    between atoms: N_7  and  C_17
REMARK    3  A    between atoms: C_8  and  C_9
REMARK    4  A    between atoms: C_9  and  C_10
REMARK    5  A    between atoms: C_11  and  C_12
REMARK                            x       y       z     vdW  Elec       q    Type
REMARK                         _______ _______ _______ _____ _____    ______ ____
ROOT
ATOM      1  O   UNL     1     -19.691  40.384 -12.806  0.00  0.00    +0.000 OA
ATOM      2  N   UNL     1     -18.758  41.524 -11.013  0.00  0.00    +0.000 N 
ATOM      3  C   UNL     1     -19.201  41.403 -12.326  0.00  0.00    +0.000 C 
ATOM      4  H   UNL     1     -18.318  42.382 -10.696  0.00  0.00    +0.000 HD
ENDROOT
BRANCH   3   7
ATOM      5  N   UNL     1     -19.590  43.774 -15.227  0.00  0.00    +0.000 NA
ATOM      6  N   UNL     1     -18.620  45.909 -15.654  0.00  0.00    +0.000 N 
ATOM      7  C   UNL     1     -19.032  42.602 -13.187  0.00  0.00    +0.000 A 
ATOM      8  C   UNL     1     -18.199  43.648 -12.805  0.00  0.00    +0.000 A 
ATOM      9  C   UNL     1     -19.699  42.713 -14.397  0.00  0.00    +0.000 A 
ATOM     10  C   UNL     1     -18.771  44.771 -14.821  0.00  0.00    +0.000 A 
ATOM     11  C   UNL     1     -18.060  44.757 -13.632  0.00  0.00    +0.000 A 
ATOM     12  C   UNL     1     -19.296  46.044 -16.902  0.00  0.00    +0.000 C 
ATOM     13  H   UNL     1     -17.842  46.528 -15.452  0.00  0.00    +0.000 HD
ENDBRANCH   3   7
BRANCH   2  14
ATOM     14  C   UNL     1     -18.831  40.447 -10.066  0.00  0.00    +0.000 C 
BRANCH  14  15
ATOM     15  C   UNL     1     -20.105  40.489  -9.229  0.00  0.00    +0.000 C 
BRANCH  15  19
ATOM     16  F   UNL     1     -19.235  42.282  -7.937  0.00  0.00    +0.000 F 
ATOM     17  F   UNL     1     -21.081  41.341  -7.246  0.00  0.00    +0.000 F 
ATOM     18  F   UNL     1     -19.182  40.284  -7.071  0.00  0.00    +0.000 F 
ATOM     19  C   UNL     1     -19.901  41.111  -7.861  0.00  0.00    +0.000 C 
ENDBRANCH  15  19
ENDBRANCH  14  15
ENDBRANCH   2  14
TORSDOF 4
ENDMDL
