MODEL 1
REMARK VINA RESULT:    -6.562      0.000      0.000
REMARK INTER + INTRA:          -8.341
REMARK INTER:                  -8.096
REMARK INTRA:                  -0.244
REMARK UNBOUND:                -0.244
REMARK  Name = 63961449
REMARK  5 active torsions:
REMARK  status: ('A' for Active; 'I' for Inactive)
REMARK    1  A    between atoms: S_1  and  C_7
REMARK    2  A    between atoms: S_1  and  C_14
REMARK    3  A    between atoms: N_3  and  C_6
REMARK    4  A    between atoms: C_6  and  C_7
REMARK    5  A    between atoms: C_8  and  C_9
REMARK                            x       y       z     vdW  Elec       q    Type
REMARK                         _______ _______ _______ _____ _____    ______ ____
ROOT
ATOM      1  N   UNL     1     -19.286  42.336  -7.312  0.00  0.00    +0.000 NA
ATOM      2  N   UNL     1     -21.236  42.754  -6.007  0.00  0.00    +0.000 N 
ATOM      3  C   UNL     1     -19.383  40.727  -9.114  0.00  0.00    +0.000 A 
ATOM      4  C   UNL     1     -20.722  40.479  -8.829  0.00  0.00    +0.000 A 
ATOM      5  C   UNL     1     -18.716  41.657  -8.332  0.00  0.00    +0.000 A 
ATOM      6  C   UNL     1     -21.343  41.159  -7.787  0.00  0.00    +0.000 A 
ATOM      7  C   UNL     1     -20.588  42.069  -7.066  0.00  0.00    +0.000 A 
ATOM      8  H   UNL     1     -22.235  42.905  -6.070  0.00  0.00    +0.000 HD
ATOM      9  H   UNL     1     -20.681  43.423  -5.486  0.00  0.00    +0.000 HD
ENDROOT
BRANCH   3  12
ATOM     10  O   UNL     1     -19.292  39.145 -10.843  0.00  0.00    +0.000 OA
ATOM     11  N   UNL     1     -17.392  40.424 -10.479  0.00  0.00    +0.000 N 
ATOM     12  C   UNL     1     -18.706  40.033 -10.195  0.00  0.00    +0.000 C 
ATOM     13  H   UNL     1     -16.965  41.184  -9.960  0.00  0.00    +0.000 HD
BRANCH  11  14
ATOM     14  C   UNL     1     -16.596  39.845 -11.537  0.00  0.00    +0.000 C 
BRANCH  14  15
ATOM     15  C   UNL     1     -17.010  40.321 -12.922  0.00  0.00    +0.000 C 
BRANCH  15  16
ATOM     16  S   UNL     1     -17.298  42.116 -12.976  0.00  0.00    +0.000 S 
ATOM     17  C   UNL     1     -19.071  42.083 -13.329  0.00  0.00    +0.000 C 
ENDBRANCH  15  16
ENDBRANCH  14  15
ENDBRANCH  11  14
ENDBRANCH   3  12
TORSDOF 4
ENDMDL
MODEL 2
REMARK VINA RESULT:    -6.560      1.810      2.158
REMARK INTER + INTRA:          -8.338
REMARK INTER:                  -8.061
REMARK INTRA:                  -0.277
REMARK UNBOUND:                -0.244
REMARK  Name = 63961449
REMARK  5 active torsions:
REMARK  status: ('A' for Active; 'I' for Inactive)
REMARK    1  A    between atoms: S_1  and  C_7
REMARK    2  A    between atoms: S_1  and  C_14
REMARK    3  A    between atoms: N_3  and  C_6
REMARK    4  A    between atoms: C_6  and  C_7
REMARK    5  A    between atoms: C_8  and  C_9
REMARK                            x       y       z     vdW  Elec       q    Type
REMARK                         _______ _______ _______ _____ _____    ______ ____
ROOT
ATOM      1  N   UNL     1     -22.240  41.390  -7.403  0.00  0.00    +0.000 NA
ATOM      2  N   UNL     1     -22.464  42.868  -5.547  0.00  0.00    +0.000 N 
ATOM      3  C   UNL     1     -20.057  41.027  -8.377  0.00  0.00    +0.000 A 
ATOM      4  C   UNL     1     -19.492  41.900  -7.454  0.00  0.00    +0.000 A 
ATOM      5  C   UNL     1     -21.424  40.808  -8.310  0.00  0.00    +0.000 A 
ATOM      6  C   UNL     1     -20.300  42.518  -6.505  0.00  0.00    +0.000 A 
ATOM      7  C   UNL     1     -21.655  42.231  -6.521  0.00  0.00    +0.000 A 
ATOM      8  H   UNL     1     -22.042  43.130  -4.666  0.00  0.00    +0.000 HD
ATOM      9  H   UNL     1     -23.454  42.652  -5.560  0.00  0.00    +0.000 HD
ENDROOT
BRANCH   3  12
ATOM     10  O   UNL     1     -18.001  40.342  -9.272  0.00  0.00    +0.000 OA
ATOM     11  N   UNL     1     -19.912  39.753 -10.446  0.00  0.00    +0.000 N 
ATOM     12  C   UNL     1     -19.241  40.367  -9.381  0.00  0.00    +0.000 C 
ATOM     13  H   UNL     1     -20.927  39.755 -10.475  0.00  0.00    +0.000 HD
BRANCH  11  14
ATOM     14  C   UNL     1     -19.243  39.039 -11.509  0.00  0.00    +0.000 C 
BRANCH  14  15
ATOM     15  C   UNL     1     -18.863  39.933 -12.680  0.00  0.00    +0.000 C 
BRANCH  15  16
ATOM     16  S   UNL     1     -17.062  40.125 -12.844  0.00  0.00    +0.000 S 
ATOM     17  C   UNL     1     -17.000  41.930 -12.925  0.00  0.00    +0.000 C 
ENDBRANCH  15  16
ENDBRANCH  14  15
ENDBRANCH  11  14
ENDBRANCH   3  12
TORSDOF 4
ENDMDL
MODEL 3
REMARK VINA RESULT:    -5.432      1.975      2.201
REMARK INTER + INTRA:          -6.946
REMARK INTER:                  -6.729
REMARK INTRA:                  -0.217
REMARK UNBOUND:                -0.244
REMARK  Name = 63961449
REMARK  5 active torsions:
REMARK  status: ('A' for Active; 'I' for Inactive)
REMARK    1  A    between atoms: S_1  and  C_7
REMARK    2  A    between atoms: S_1  and  C_14
REMARK    3  A    between atoms: N_3  and  C_6
REMARK    4  A    between atoms: C_6  and  C_7
REMARK    5  A    between atoms: C_8  and  C_9
REMARK                            x       y       z     vdW  Elec       q    Type
REMARK                         _______ _______ _______ _____ _____    ______ ____
ROOT
ATOM      1  N   UNL     1     -21.356  40.551  -8.604  0.00  0.00    +0.000 NA
ATOM      2  N   UNL     1     -22.509  41.458  -6.727  0.00  0.00    +0.000 N 
ATOM      3  C   UNL     1     -19.069  41.211  -9.028  0.00  0.00    +0.000 A 
ATOM      4  C   UNL     1     -19.092  42.036  -7.909  0.00  0.00    +0.000 A 
ATOM      5  C   UNL     1     -20.217  40.495  -9.330  0.00  0.00    +0.000 A 
ATOM      6  C   UNL     1     -20.246  42.119  -7.137  0.00  0.00    +0.000 A 
ATOM      7  C   UNL     1     -21.340  41.363  -7.524  0.00  0.00    +0.000 A 
ATOM      8  H   UNL     1     -22.406  41.683  -5.745  0.00  0.00    +0.000 HD
ATOM      9  H   UNL     1     -23.305  40.900  -7.010  0.00  0.00    +0.000 HD
ENDROOT
BRANCH   3  12
ATOM     10  O   UNL     1     -17.349  39.995 -10.060  0.00  0.00    +0.000 OA
ATOM     11  N   UNL     1     -17.382  42.286 -10.414  0.00  0.00    +0.000 N 
ATOM     12  C   UNL     1     -17.879  41.103  -9.854  0.00  0.00    +0.000 C 
ATOM     13  H   UNL     1     -17.869  43.164 -10.262  0.00  0.00    +0.000 HD
BRANCH  11  14
ATOM     14  C   UNL     1     -16.223  42.339 -11.275  0.00  0.00    +0.000 C 
BRANCH  14  15
ATOM     15  C   UNL     1     -16.274  43.487 -12.273  0.00  0.00    +0.000 C 
BRANCH  15  16
ATOM     16  S   UNL     1     -17.827  43.510 -13.218  0.00  0.00    +0.000 S 
ATOM     17  C   UNL     1     -18.461  45.100 -12.638  0.00  0.00    +0.000 C 
ENDBRANCH  15  16
ENDBRANCH  14  15
ENDBRANCH  11  14
ENDBRANCH   3  12
TORSDOF 4
ENDMDL
MODEL 4
REMARK VINA RESULT:    -5.294      3.142      5.728
REMARK INTER + INTRA:          -6.776
REMARK INTER:                  -6.588
REMARK INTRA:                  -0.188
REMARK UNBOUND:                -0.244
REMARK  Name = 63961449
REMARK  5 active torsions:
REMARK  status: ('A' for Active; 'I' for Inactive)
REMARK    1  A    between atoms: S_1  and  C_7
REMARK    2  A    between atoms: S_1  and  C_14
REMARK    3  A    between atoms: N_3  and  C_6
REMARK    4  A    between atoms: C_6  and  C_7
REMARK    5  A    between atoms: C_8  and  C_9
REMARK                            x       y       z     vdW  Elec       q    Type
REMARK                         _______ _______ _______ _____ _____    ______ ____
ROOT
ATOM      1  N   UNL     1     -18.095  42.276 -13.279  0.00  0.00    +0.000 NA
ATOM      2  N   UNL     1     -16.563  44.007 -13.858  0.00  0.00    +0.000 N 
ATOM      3  C   UNL     1     -18.437  41.719 -10.951  0.00  0.00    +0.000 A 
ATOM      4  C   UNL     1     -17.521  42.696 -10.576  0.00  0.00    +0.000 A 
ATOM      5  C   UNL     1     -18.687  41.550 -12.304  0.00  0.00    +0.000 A 
ATOM      6  C   UNL     1     -16.892  43.463 -11.551  0.00  0.00    +0.000 A 
ATOM      7  C   UNL     1     -17.212  43.216 -12.876  0.00  0.00    +0.000 A 
ATOM      8  H   UNL     1     -16.262  44.939 -13.604  0.00  0.00    +0.000 HD
ATOM      9  H   UNL     1     -16.804  43.826 -14.825  0.00  0.00    +0.000 HD
ENDROOT
BRANCH   3  12
ATOM     10  O   UNL     1     -19.243  39.676 -10.130  0.00  0.00    +0.000 OA
ATOM     11  N   UNL     1     -19.571  41.550  -8.805  0.00  0.00    +0.000 N 
ATOM     12  C   UNL     1     -19.110  40.901  -9.957  0.00  0.00    +0.000 C 
ATOM     13  H   UNL     1     -19.402  42.543  -8.679  0.00  0.00    +0.000 HD
BRANCH  11  14
ATOM     14  C   UNL     1     -20.239  40.871  -7.717  0.00  0.00    +0.000 C 
BRANCH  14  15
ATOM     15  C   UNL     1     -20.499  41.776  -6.521  0.00  0.00    +0.000 C 
BRANCH  15  16
ATOM     16  S   UNL     1     -22.162  42.510  -6.562  0.00  0.00    +0.000 S 
ATOM     17  C   UNL     1     -23.036  41.129  -7.332  0.00  0.00    +0.000 C 
ENDBRANCH  15  16
ENDBRANCH  14  15
ENDBRANCH  11  14
ENDBRANCH   3  12
TORSDOF 4
ENDMDL
MODEL 5
REMARK VINA RESULT:    -5.060      4.026      5.646
REMARK INTER + INTRA:          -6.488
REMARK INTER:                  -6.307
REMARK INTRA:                  -0.181
REMARK UNBOUND:                -0.244
REMARK  Name = 63961449
REMARK  5 active torsions:
REMARK  status: ('A' for Active; 'I' for Inactive)
REMARK    1  A    between atoms: S_1  and  C_7
REMARK    2  A    between atoms: S_1  and  C_14
REMARK    3  A    between atoms: N_3  and  C_6
REMARK    4  A    between atoms: C_6  and  C_7
REMARK    5  A    between atoms: C_8  and  C_9
REMARK                            x       y       z     vdW  Elec       q    Type
REMARK                         _______ _______ _______ _____ _____    ______ ____
ROOT
ATOM      1  N   UNL     1     -18.975  40.883 -11.394  0.00  0.00    +0.000 NA
ATOM      2  N   UNL     1     -17.716  40.828  -9.372  0.00  0.00    +0.000 N 
ATOM      3  C   UNL     1     -18.712  42.749 -12.908  0.00  0.00    +0.000 A 
ATOM      4  C   UNL     1     -17.783  43.325 -12.048  0.00  0.00    +0.000 A 
ATOM      5  C   UNL     1     -19.275  41.538 -12.538  0.00  0.00    +0.000 A 
ATOM      6  C   UNL     1     -17.449  42.680 -10.862  0.00  0.00    +0.000 A 
ATOM      7  C   UNL     1     -18.067  41.472 -10.584  0.00  0.00    +0.000 A 
ATOM      8  H   UNL     1     -16.794  40.992  -8.988  0.00  0.00    +0.000 HD
ATOM      9  H   UNL     1     -18.167  39.942  -9.176  0.00  0.00    +0.000 HD
ENDROOT
BRANCH   3  12
ATOM     10  O   UNL     1     -18.741  44.574 -14.381  0.00  0.00    +0.000 OA
ATOM     11  N   UNL     1     -19.811  42.637 -15.077  0.00  0.00    +0.000 N 
ATOM     12  C   UNL     1     -19.083  43.398 -14.154  0.00  0.00    +0.000 C 
ATOM     13  H   UNL     1     -20.030  41.667 -14.875  0.00  0.00    +0.000 HD
BRANCH  11  14
ATOM     14  C   UNL     1     -20.232  43.133 -16.367  0.00  0.00    +0.000 C 
BRANCH  14  15
ATOM     15  C   UNL     1     -21.713  43.481 -16.417  0.00  0.00    +0.000 C 
BRANCH  15  16
ATOM     16  S   UNL     1     -22.056  44.870 -17.540  0.00  0.00    +0.000 S 
ATOM     17  C   UNL     1     -23.794  45.125 -17.113  0.00  0.00    +0.000 C 
ENDBRANCH  15  16
ENDBRANCH  14  15
ENDBRANCH  11  14
ENDBRANCH   3  12
TORSDOF 4
ENDMDL
