MODEL 1
REMARK VINA RESULT:    -6.163      0.000      0.000
REMARK INTER + INTRA:          -8.064
REMARK INTER:                  -7.424
REMARK INTRA:                  -0.640
REMARK UNBOUND:                -0.640
REMARK  Name = 64088008
REMARK  4 active torsions:
REMARK  status: ('A' for Active; 'I' for Inactive)
REMARK    1  A    between atoms: N_6  and  C_11
REMARK    2  A    between atoms: C_7  and  C_9
REMARK    3  A    between atoms: C_7  and  C_10
REMARK    4  A    between atoms: C_8  and  C_9
REMARK                            x       y       z     vdW  Elec       q    Type
REMARK                         _______ _______ _______ _____ _____    ______ ____
ROOT
ATOM      1  N   UNL     1     -22.325  40.636  -7.928  0.00  0.00    +0.000 NA
ATOM      2  C   UNL     1     -20.042  41.432  -7.966  0.00  0.00    +0.000 A 
ATOM      3  C   UNL     1     -21.063  40.608  -8.412  0.00  0.00    +0.000 A 
ATOM      4  C   UNL     1     -20.335  42.343  -6.957  0.00  0.00    +0.000 A 
ATOM      5  C   UNL     1     -21.621  42.401  -6.433  0.00  0.00    +0.000 A 
ATOM      6  C   UNL     1     -22.572  41.534  -6.948  0.00  0.00    +0.000 A 
ENDROOT
BRANCH   3   7
ATOM      7  N   UNL     1     -20.772  39.679  -9.443  0.00  0.00    +0.000 N 
ATOM      8  H   UNL     1     -21.172  39.832 -10.360  0.00  0.00    +0.000 HD
ATOM      9  H   UNL     1     -20.617  38.721  -9.155  0.00  0.00    +0.000 HD
ENDBRANCH   3   7
BRANCH   2  11
ATOM     10  O   UNL     1     -18.027  40.327  -8.462  0.00  0.00    +0.000 OA
ATOM     11  C   UNL     1     -18.691  41.381  -8.510  0.00  0.00    +0.000 C 
BRANCH  11  12
ATOM     12  C   UNL     1     -18.076  42.636  -9.150  0.00  0.00    +0.000 C 
BRANCH  12  16
ATOM     13  F   UNL     1     -17.745  43.717 -11.215  0.00  0.00    +0.000 F 
ATOM     14  F   UNL     1     -18.781  41.801 -11.251  0.00  0.00    +0.000 F 
ATOM     15  F   UNL     1     -16.629  41.879 -10.867  0.00  0.00    +0.000 F 
ATOM     16  C   UNL     1     -17.805  42.498 -10.633  0.00  0.00    +0.000 C 
ENDBRANCH  12  16
ENDBRANCH  11  12
ENDBRANCH   2  11
TORSDOF 4
ENDMDL
MODEL 2
REMARK VINA RESULT:    -6.143      2.891      4.782
REMARK INTER + INTRA:          -8.041
REMARK INTER:                  -7.412
REMARK INTRA:                  -0.629
REMARK UNBOUND:                -0.640
REMARK  Name = 64088008
REMARK  4 active torsions:
REMARK  status: ('A' for Active; 'I' for Inactive)
REMARK    1  A    between atoms: N_6  and  C_11
REMARK    2  A    between atoms: C_7  and  C_9
REMARK    3  A    between atoms: C_7  and  C_10
REMARK    4  A    between atoms: C_8  and  C_9
REMARK                            x       y       z     vdW  Elec       q    Type
REMARK                         _______ _______ _______ _____ _____    ______ ____
ROOT
ATOM      1  N   UNL     1     -19.595  42.002 -13.766  0.00  0.00    +0.000 NA
ATOM      2  C   UNL     1     -18.507  41.854 -11.611  0.00  0.00    +0.000 A 
ATOM      3  C   UNL     1     -19.346  41.365 -12.600  0.00  0.00    +0.000 A 
ATOM      4  C   UNL     1     -17.884  43.077 -11.834  0.00  0.00    +0.000 A 
ATOM      5  C   UNL     1     -18.114  43.762 -13.022  0.00  0.00    +0.000 A 
ATOM      6  C   UNL     1     -18.971  43.187 -13.948  0.00  0.00    +0.000 A 
ENDROOT
BRANCH   3   7
ATOM      7  N   UNL     1     -19.984  40.118 -12.381  0.00  0.00    +0.000 N 
ATOM      8  H   UNL     1     -19.409  39.308 -12.180  0.00  0.00    +0.000 HD
ATOM      9  H   UNL     1     -20.853  39.962 -12.877  0.00  0.00    +0.000 HD
ENDBRANCH   3   7
BRANCH   2  11
ATOM     10  O   UNL     1     -17.875  39.957 -10.377  0.00  0.00    +0.000 OA
ATOM     11  C   UNL     1     -18.257  41.143 -10.365  0.00  0.00    +0.000 C 
BRANCH  11  12
ATOM     12  C   UNL     1     -18.465  41.859  -9.020  0.00  0.00    +0.000 C 
BRANCH  12  16
ATOM     13  F   UNL     1     -20.640  40.960  -9.016  0.00  0.00    +0.000 F 
ATOM     14  F   UNL     1     -20.085  42.225  -7.331  0.00  0.00    +0.000 F 
ATOM     15  F   UNL     1     -19.253  40.210  -7.513  0.00  0.00    +0.000 F 
ATOM     16  C   UNL     1     -19.616  41.310  -8.205  0.00  0.00    +0.000 C 
ENDBRANCH  12  16
ENDBRANCH  11  12
ENDBRANCH   2  11
TORSDOF 4
ENDMDL
MODEL 3
REMARK VINA RESULT:    -5.852      1.890      2.676
REMARK INTER + INTRA:          -7.689
REMARK INTER:                  -6.945
REMARK INTRA:                  -0.745
REMARK UNBOUND:                -0.640
REMARK  Name = 64088008
REMARK  4 active torsions:
REMARK  status: ('A' for Active; 'I' for Inactive)
REMARK    1  A    between atoms: N_6  and  C_11
REMARK    2  A    between atoms: C_7  and  C_9
REMARK    3  A    between atoms: C_7  and  C_10
REMARK    4  A    between atoms: C_8  and  C_9
REMARK                            x       y       z     vdW  Elec       q    Type
REMARK                         _______ _______ _______ _____ _____    ______ ____
ROOT
ATOM      1  N   UNL     1     -20.598  40.072  -9.038  0.00  0.00    +0.000 NA
ATOM      2  C   UNL     1     -18.540  41.078  -9.810  0.00  0.00    +0.000 A 
ATOM      3  C   UNL     1     -19.588  40.181  -9.930  0.00  0.00    +0.000 A 
ATOM      4  C   UNL     1     -18.526  41.918  -8.702  0.00  0.00    +0.000 A 
ATOM      5  C   UNL     1     -19.548  41.836  -7.763  0.00  0.00    +0.000 A 
ATOM      6  C   UNL     1     -20.552  40.905  -7.974  0.00  0.00    +0.000 A 
ENDROOT
BRANCH   3   7
ATOM      7  N   UNL     1     -19.610  39.322 -11.059  0.00  0.00    +0.000 N 
ATOM      8  H   UNL     1     -20.483  39.199 -11.556  0.00  0.00    +0.000 HD
ATOM      9  H   UNL     1     -18.967  38.540 -11.043  0.00  0.00    +0.000 HD
ENDBRANCH   3   7
BRANCH   2  11
ATOM     10  O   UNL     1     -16.578  40.301 -10.845  0.00  0.00    +0.000 OA
ATOM     11  C   UNL     1     -17.466  41.174 -10.790  0.00  0.00    +0.000 C 
BRANCH  11  12
ATOM     12  C   UNL     1     -17.425  42.360 -11.768  0.00  0.00    +0.000 C 
BRANCH  12  16
ATOM     13  F   UNL     1     -18.075  40.956 -13.542  0.00  0.00    +0.000 F 
ATOM     14  F   UNL     1     -18.020  43.098 -13.939  0.00  0.00    +0.000 F 
ATOM     15  F   UNL     1     -19.605  42.252 -12.691  0.00  0.00    +0.000 F 
ATOM     16  C   UNL     1     -18.292  42.173 -12.994  0.00  0.00    +0.000 C 
ENDBRANCH  12  16
ENDBRANCH  11  12
ENDBRANCH   2  11
TORSDOF 4
ENDMDL
MODEL 4
REMARK VINA RESULT:    -5.372      2.860      3.936
REMARK INTER + INTRA:          -7.112
REMARK INTER:                  -6.506
REMARK INTRA:                  -0.606
REMARK UNBOUND:                -0.640
REMARK  Name = 64088008
REMARK  4 active torsions:
REMARK  status: ('A' for Active; 'I' for Inactive)
REMARK    1  A    between atoms: N_6  and  C_11
REMARK    2  A    between atoms: C_7  and  C_9
REMARK    3  A    between atoms: C_7  and  C_10
REMARK    4  A    between atoms: C_8  and  C_9
REMARK                            x       y       z     vdW  Elec       q    Type
REMARK                         _______ _______ _______ _____ _____    ______ ____
ROOT
ATOM      1  N   UNL     1     -19.621  39.692 -10.013  0.00  0.00    +0.000 NA
ATOM      2  C   UNL     1     -18.462  41.212 -11.495  0.00  0.00    +0.000 A 
ATOM      3  C   UNL     1     -19.240  40.092 -11.247  0.00  0.00    +0.000 A 
ATOM      4  C   UNL     1     -18.047  41.969 -10.405  0.00  0.00    +0.000 A 
ATOM      5  C   UNL     1     -18.419  41.590  -9.120  0.00  0.00    +0.000 A 
ATOM      6  C   UNL     1     -19.199  40.454  -8.978  0.00  0.00    +0.000 A 
ENDROOT
BRANCH   3   7
ATOM      7  N   UNL     1     -19.669  39.316 -12.353  0.00  0.00    +0.000 N 
ATOM      8  H   UNL     1     -19.099  39.309 -13.190  0.00  0.00    +0.000 HD
ATOM      9  H   UNL     1     -20.669  39.209 -12.469  0.00  0.00    +0.000 HD
ENDBRANCH   3   7
BRANCH   2  11
ATOM     10  O   UNL     1     -17.098  41.082 -13.405  0.00  0.00    +0.000 OA
ATOM     11  C   UNL     1     -18.069  41.619 -12.837  0.00  0.00    +0.000 C 
BRANCH  11  12
ATOM     12  C   UNL     1     -18.858  42.721 -13.564  0.00  0.00    +0.000 C 
BRANCH  12  16
ATOM     13  F   UNL     1     -18.733  44.915 -14.406  0.00  0.00    +0.000 F 
ATOM     14  F   UNL     1     -16.896  44.048 -13.617  0.00  0.00    +0.000 F 
ATOM     15  F   UNL     1     -18.495  44.662 -12.256  0.00  0.00    +0.000 F 
ATOM     16  C   UNL     1     -18.235  44.096 -13.453  0.00  0.00    +0.000 C 
ENDBRANCH  12  16
ENDBRANCH  11  12
ENDBRANCH   2  11
TORSDOF 4
ENDMDL
MODEL 5
REMARK VINA RESULT:    -5.315      3.887      5.682
REMARK INTER + INTRA:          -7.043
REMARK INTER:                  -6.268
REMARK INTRA:                  -0.775
REMARK UNBOUND:                -0.640
REMARK  Name = 64088008
REMARK  4 active torsions:
REMARK  status: ('A' for Active; 'I' for Inactive)
REMARK    1  A    between atoms: N_6  and  C_11
REMARK    2  A    between atoms: C_7  and  C_9
REMARK    3  A    between atoms: C_7  and  C_10
REMARK    4  A    between atoms: C_8  and  C_9
REMARK                            x       y       z     vdW  Elec       q    Type
REMARK                         _______ _______ _______ _____ _____    ______ ____
ROOT
ATOM      1  N   UNL     1     -18.072  43.966 -13.820  0.00  0.00    +0.000 NA
ATOM      2  C   UNL     1     -17.625  41.781 -12.883  0.00  0.00    +0.000 A 
ATOM      3  C   UNL     1     -18.429  42.689 -13.554  0.00  0.00    +0.000 A 
ATOM      4  C   UNL     1     -16.374  42.212 -12.457  0.00  0.00    +0.000 A 
ATOM      5  C   UNL     1     -15.971  43.518 -12.712  0.00  0.00    +0.000 A 
ATOM      6  C   UNL     1     -16.848  44.348 -13.390  0.00  0.00    +0.000 A 
ENDROOT
BRANCH   3   7
ATOM      7  N   UNL     1     -19.706  42.256 -13.994  0.00  0.00    +0.000 N 
ATOM      8  H   UNL     1     -20.508  42.844 -13.806  0.00  0.00    +0.000 HD
ATOM      9  H   UNL     1     -19.857  41.255 -14.023  0.00  0.00    +0.000 HD
ENDBRANCH   3   7
BRANCH   2  11
ATOM     10  O   UNL     1     -18.445  39.677 -13.536  0.00  0.00    +0.000 OA
ATOM     11  C   UNL     1     -18.037  40.410 -12.614  0.00  0.00    +0.000 C 
BRANCH  11  12
ATOM     12  C   UNL     1     -17.969  39.858 -11.181  0.00  0.00    +0.000 C 
BRANCH  12  16
ATOM     13  F   UNL     1     -19.333  39.677  -9.271  0.00  0.00    +0.000 F 
ATOM     14  F   UNL     1     -19.998  41.033 -10.842  0.00  0.00    +0.000 F 
ATOM     15  F   UNL     1     -18.297  41.568  -9.575  0.00  0.00    +0.000 F 
ATOM     16  C   UNL     1     -18.907  40.548 -10.213  0.00  0.00    +0.000 C 
ENDBRANCH  12  16
ENDBRANCH  11  12
ENDBRANCH   2  11
TORSDOF 4
ENDMDL
