MODEL 1
REMARK VINA RESULT:    -5.416      0.000      0.000
REMARK INTER + INTRA:          -6.676
REMARK INTER:                  -6.208
REMARK INTRA:                  -0.468
REMARK UNBOUND:                -0.468
REMARK  Name = 64087795
REMARK  5 active torsions:
REMARK  status: ('A' for Active; 'I' for Inactive)
REMARK    1  A    between atoms: N_3  and  C_9
REMARK    2  A    between atoms: C_4  and  C_5
REMARK    3  A    between atoms: C_4  and  C_6
REMARK    4  A    between atoms: C_4  and  C_7
REMARK    5  A    between atoms: C_5  and  C_8
REMARK                            x       y       z     vdW  Elec       q    Type
REMARK                         _______ _______ _______ _____ _____    ______ ____
ROOT
ATOM      1  N   UNL     1     -20.601  40.087  -9.064  0.00  0.00    +0.000 NA
ATOM      2  C   UNL     1     -18.518  41.063  -9.809  0.00  0.00    +0.000 A 
ATOM      3  C   UNL     1     -19.577  40.179  -9.942  0.00  0.00    +0.000 A 
ATOM      4  C   UNL     1     -18.511  41.908  -8.704  0.00  0.00    +0.000 A 
ATOM      5  C   UNL     1     -19.547  41.843  -7.779  0.00  0.00    +0.000 A 
ATOM      6  C   UNL     1     -20.559  40.924  -8.002  0.00  0.00    +0.000 A 
ENDROOT
BRANCH   3   7
ATOM      7  N   UNL     1     -19.593  39.317 -11.066  0.00  0.00    +0.000 N 
ATOM      8  H   UNL     1     -20.497  39.143 -11.490  0.00  0.00    +0.000 HD
ATOM      9  H   UNL     1     -18.779  39.288 -11.667  0.00  0.00    +0.000 HD
ENDBRANCH   3   7
BRANCH   2  11
ATOM     10  O   UNL     1     -16.613  40.203 -10.875  0.00  0.00    +0.000 OA
ATOM     11  C   UNL     1     -17.403  41.142 -10.798  0.00  0.00    +0.000 C 
BRANCH  11  12
ATOM     12  C   UNL     1     -17.254  42.381 -11.679  0.00  0.00    +0.000 C 
ATOM     13  C   UNL     1     -17.592  42.037 -13.130  0.00  0.00    +0.000 C 
ATOM     14  C   UNL     1     -15.829  42.917 -11.576  0.00  0.00    +0.000 C 
ENDBRANCH  11  12
ENDBRANCH   2  11
TORSDOF 3
ENDMDL
MODEL 2
REMARK VINA RESULT:    -5.233      1.614      2.038
REMARK INTER + INTRA:          -6.467
REMARK INTER:                  -6.009
REMARK INTRA:                  -0.457
REMARK UNBOUND:                -0.468
REMARK  Name = 64087795
REMARK  5 active torsions:
REMARK  status: ('A' for Active; 'I' for Inactive)
REMARK    1  A    between atoms: N_3  and  C_9
REMARK    2  A    between atoms: C_4  and  C_5
REMARK    3  A    between atoms: C_4  and  C_6
REMARK    4  A    between atoms: C_4  and  C_7
REMARK    5  A    between atoms: C_5  and  C_8
REMARK                            x       y       z     vdW  Elec       q    Type
REMARK                         _______ _______ _______ _____ _____    ______ ____
ROOT
ATOM      1  N   UNL     1     -19.583  39.680 -10.052  0.00  0.00    +0.000 NA
ATOM      2  C   UNL     1     -18.481  41.326 -11.439  0.00  0.00    +0.000 A 
ATOM      3  C   UNL     1     -19.214  40.163 -11.260  0.00  0.00    +0.000 A 
ATOM      4  C   UNL     1     -18.104  42.039 -10.306  0.00  0.00    +0.000 A 
ATOM      5  C   UNL     1     -18.466  41.573  -9.046  0.00  0.00    +0.000 A 
ATOM      6  C   UNL     1     -19.198  40.400  -8.974  0.00  0.00    +0.000 A 
ENDROOT
BRANCH   3   7
ATOM      7  N   UNL     1     -19.603  39.432 -12.410  0.00  0.00    +0.000 N 
ATOM      8  H   UNL     1     -20.592  39.430 -12.630  0.00  0.00    +0.000 HD
ATOM      9  H   UNL     1     -18.950  39.354 -13.179  0.00  0.00    +0.000 HD
ENDBRANCH   3   7
BRANCH   2  11
ATOM     10  O   UNL     1     -17.290  41.184 -13.456  0.00  0.00    +0.000 OA
ATOM     11  C   UNL     1     -18.091  41.835 -12.787  0.00  0.00    +0.000 C 
BRANCH  11  12
ATOM     12  C   UNL     1     -18.675  43.149 -13.302  0.00  0.00    +0.000 C 
ATOM     13  C   UNL     1     -19.369  42.924 -14.645  0.00  0.00    +0.000 C 
ATOM     14  C   UNL     1     -17.564  44.186 -13.442  0.00  0.00    +0.000 C 
ENDBRANCH  11  12
ENDBRANCH   2  11
TORSDOF 3
ENDMDL
MODEL 3
REMARK VINA RESULT:    -5.103      2.342      4.297
REMARK INTER + INTRA:          -6.318
REMARK INTER:                  -6.086
REMARK INTRA:                  -0.231
REMARK UNBOUND:                -0.468
REMARK  Name = 64087795
REMARK  5 active torsions:
REMARK  status: ('A' for Active; 'I' for Inactive)
REMARK    1  A    between atoms: N_3  and  C_9
REMARK    2  A    between atoms: C_4  and  C_5
REMARK    3  A    between atoms: C_4  and  C_6
REMARK    4  A    between atoms: C_4  and  C_7
REMARK    5  A    between atoms: C_5  and  C_8
REMARK                            x       y       z     vdW  Elec       q    Type
REMARK                         _______ _______ _______ _____ _____    ______ ____
ROOT
ATOM      1  N   UNL     1     -16.927  41.950 -13.193  0.00  0.00    +0.000 NA
ATOM      2  C   UNL     1     -18.613  40.842 -11.861  0.00  0.00    +0.000 A 
ATOM      3  C   UNL     1     -17.313  40.998 -12.315  0.00  0.00    +0.000 A 
ATOM      4  C   UNL     1     -19.579  41.720 -12.340  0.00  0.00    +0.000 A 
ATOM      5  C   UNL     1     -19.221  42.713 -13.245  0.00  0.00    +0.000 A 
ATOM      6  C   UNL     1     -17.894  42.785 -13.637  0.00  0.00    +0.000 A 
ENDROOT
BRANCH   3   7
ATOM      7  N   UNL     1     -16.322  40.108 -11.829  0.00  0.00    +0.000 N 
ATOM      8  H   UNL     1     -15.719  40.460 -11.095  0.00  0.00    +0.000 HD
ATOM      9  H   UNL     1     -16.514  39.114 -11.844  0.00  0.00    +0.000 HD
ENDBRANCH   3   7
BRANCH   2  11
ATOM     10  O   UNL     1     -19.273  38.657 -11.312  0.00  0.00    +0.000 OA
ATOM     11  C   UNL     1     -19.008  39.781 -10.887  0.00  0.00    +0.000 C 
BRANCH  11  12
ATOM     12  C   UNL     1     -19.088  40.108  -9.398  0.00  0.00    +0.000 C 
ATOM     13  C   UNL     1     -20.548  40.143  -8.945  0.00  0.00    +0.000 C 
ATOM     14  C   UNL     1     -18.414  41.451  -9.129  0.00  0.00    +0.000 C 
ENDBRANCH  11  12
ENDBRANCH   2  11
TORSDOF 3
ENDMDL
MODEL 4
REMARK VINA RESULT:    -4.671      1.938      2.726
REMARK INTER + INTRA:          -5.822
REMARK INTER:                  -5.486
REMARK INTRA:                  -0.336
REMARK UNBOUND:                -0.468
REMARK  Name = 64087795
REMARK  5 active torsions:
REMARK  status: ('A' for Active; 'I' for Inactive)
REMARK    1  A    between atoms: N_3  and  C_9
REMARK    2  A    between atoms: C_4  and  C_5
REMARK    3  A    between atoms: C_4  and  C_6
REMARK    4  A    between atoms: C_4  and  C_7
REMARK    5  A    between atoms: C_5  and  C_8
REMARK                            x       y       z     vdW  Elec       q    Type
REMARK                         _______ _______ _______ _____ _____    ______ ____
ROOT
ATOM      1  N   UNL     1     -17.647  40.425  -9.202  0.00  0.00    +0.000 NA
ATOM      2  C   UNL     1     -18.187  40.887 -11.514  0.00  0.00    +0.000 A 
ATOM      3  C   UNL     1     -17.287  40.665 -10.483  0.00  0.00    +0.000 A 
ATOM      4  C   UNL     1     -19.544  40.861 -11.209  0.00  0.00    +0.000 A 
ATOM      5  C   UNL     1     -19.953  40.618  -9.903  0.00  0.00    +0.000 A 
ATOM      6  C   UNL     1     -18.975  40.408  -8.945  0.00  0.00    +0.000 A 
ENDROOT
BRANCH   3   7
ATOM      7  N   UNL     1     -15.903  40.687 -10.786  0.00  0.00    +0.000 N 
ATOM      8  H   UNL     1     -15.589  41.419 -11.411  0.00  0.00    +0.000 HD
ATOM      9  H   UNL     1     -15.249  40.350 -10.090  0.00  0.00    +0.000 HD
ENDBRANCH   3   7
BRANCH   2  11
ATOM     10  O   UNL     1     -17.279  40.219 -13.572  0.00  0.00    +0.000 OA
ATOM     11  C   UNL     1     -17.758  41.146 -12.920  0.00  0.00    +0.000 C 
BRANCH  11  12
ATOM     12  C   UNL     1     -17.906  42.544 -13.515  0.00  0.00    +0.000 C 
ATOM     13  C   UNL     1     -17.680  43.602 -12.434  0.00  0.00    +0.000 C 
ATOM     14  C   UNL     1     -19.294  42.698 -14.129  0.00  0.00    +0.000 C 
ENDBRANCH  11  12
ENDBRANCH   2  11
TORSDOF 3
ENDMDL
MODEL 5
REMARK VINA RESULT:    -4.474      2.627      4.602
REMARK INTER + INTRA:          -5.596
REMARK INTER:                  -5.429
REMARK INTRA:                  -0.167
REMARK UNBOUND:                -0.468
REMARK  Name = 64087795
REMARK  5 active torsions:
REMARK  status: ('A' for Active; 'I' for Inactive)
REMARK    1  A    between atoms: N_3  and  C_9
REMARK    2  A    between atoms: C_4  and  C_5
REMARK    3  A    between atoms: C_4  and  C_6
REMARK    4  A    between atoms: C_4  and  C_7
REMARK    5  A    between atoms: C_5  and  C_8
REMARK                            x       y       z     vdW  Elec       q    Type
REMARK                         _______ _______ _______ _____ _____    ______ ____
ROOT
ATOM      1  N   UNL     1     -18.443  44.023 -13.933  0.00  0.00    +0.000 NA
ATOM      2  C   UNL     1     -17.327  42.084 -13.016  0.00  0.00    +0.000 A 
ATOM      3  C   UNL     1     -18.414  42.712 -13.603  0.00  0.00    +0.000 A 
ATOM      4  C   UNL     1     -16.198  42.851 -12.750  0.00  0.00    +0.000 A 
ATOM      5  C   UNL     1     -16.190  44.203 -13.075  0.00  0.00    +0.000 A 
ATOM      6  C   UNL     1     -17.327  44.736 -13.659  0.00  0.00    +0.000 A 
ENDROOT
BRANCH   3   7
ATOM      7  N   UNL     1     -19.567  41.937 -13.879  0.00  0.00    +0.000 N 
ATOM      8  H   UNL     1     -19.643  41.050 -13.395  0.00  0.00    +0.000 HD
ATOM      9  H   UNL     1     -20.427  42.415 -14.122  0.00  0.00    +0.000 HD
ENDBRANCH   3   7
BRANCH   2  11
ATOM     10  O   UNL     1     -16.971  39.819 -13.519  0.00  0.00    +0.000 OA
ATOM     11  C   UNL     1     -17.324  40.633 -12.666  0.00  0.00    +0.000 C 
BRANCH  11  12
ATOM     12  C   UNL     1     -17.768  40.185 -11.276  0.00  0.00    +0.000 C 
ATOM     13  C   UNL     1     -19.044  39.347 -11.376  0.00  0.00    +0.000 C 
ATOM     14  C   UNL     1     -18.001  41.406 -10.391  0.00  0.00    +0.000 C 
ENDBRANCH  11  12
ENDBRANCH   2  11
TORSDOF 3
ENDMDL
