MODEL 1
REMARK VINA RESULT:    -5.448      0.000      0.000
REMARK INTER + INTRA:          -6.017
REMARK INTER:                  -5.766
REMARK INTRA:                  -0.250
REMARK UNBOUND:                -0.250
REMARK  Name = 64128153
REMARK  3 active torsions:
REMARK  status: ('A' for Active; 'I' for Inactive)
REMARK    1  A    between atoms: C_4  and  C_8
REMARK    2  A    between atoms: C_5  and  C_9
REMARK    3  A    between atoms: C_8  and  C_11
REMARK                            x       y       z     vdW  Elec       q    Type
REMARK                         _______ _______ _______ _____ _____    ______ ____
ROOT
ATOM      1  N   UNL     1     -19.540  39.676 -10.042  0.00  0.00    +0.000 NA
ATOM      2  N   UNL     1     -19.638  39.305 -12.380  0.00  0.00    +0.000 N 
ATOM      3  C   UNL     1     -18.527  41.272 -11.550  0.00  0.00    +0.000 A 
ATOM      4  C   UNL     1     -18.127  42.050 -10.469  0.00  0.00    +0.000 A 
ATOM      5  C   UNL     1     -19.225  40.105 -11.285  0.00  0.00    +0.000 A 
ATOM      6  C   UNL     1     -18.431  41.644  -9.175  0.00  0.00    +0.000 A 
ATOM      7  C   UNL     1     -17.370  43.323 -10.666  0.00  0.00    +0.000 C 
ATOM      8  C   UNL     1     -19.133  40.459  -9.017  0.00  0.00    +0.000 A 
ATOM      9  H   UNL     1     -19.859  39.759 -13.257  0.00  0.00    +0.000 HD
ATOM     10  H   UNL     1     -20.142  38.455 -12.152  0.00  0.00    +0.000 HD
ENDROOT
BRANCH   3  12
ATOM     11  O   UNL     1     -17.199  41.263 -13.499  0.00  0.00    +0.000 OA
ATOM     12  C   UNL     1     -18.213  41.684 -12.914  0.00  0.00    +0.000 C 
ATOM     13  C   UNL     1     -19.132  42.649 -13.650  0.00  0.00    +0.000 C 
ENDBRANCH   3  12
TORSDOF 1
ENDMDL
MODEL 2
REMARK VINA RESULT:    -5.140      1.506      3.122
REMARK INTER + INTRA:          -5.690
REMARK INTER:                  -5.438
REMARK INTRA:                  -0.253
REMARK UNBOUND:                -0.250
REMARK  Name = 64128153
REMARK  3 active torsions:
REMARK  status: ('A' for Active; 'I' for Inactive)
REMARK    1  A    between atoms: C_4  and  C_8
REMARK    2  A    between atoms: C_5  and  C_9
REMARK    3  A    between atoms: C_8  and  C_11
REMARK                            x       y       z     vdW  Elec       q    Type
REMARK                         _______ _______ _______ _____ _____    ______ ____
ROOT
ATOM      1  N   UNL     1     -19.718  41.574 -13.562  0.00  0.00    +0.000 NA
ATOM      2  N   UNL     1     -19.580  39.542 -12.352  0.00  0.00    +0.000 N 
ATOM      3  C   UNL     1     -18.312  41.444 -11.600  0.00  0.00    +0.000 A 
ATOM      4  C   UNL     1     -17.939  42.774 -11.769  0.00  0.00    +0.000 A 
ATOM      5  C   UNL     1     -19.195  40.896 -12.515  0.00  0.00    +0.000 A 
ATOM      6  C   UNL     1     -18.455  43.504 -12.833  0.00  0.00    +0.000 A 
ATOM      7  C   UNL     1     -16.991  43.442 -10.827  0.00  0.00    +0.000 C 
ATOM      8  C   UNL     1     -19.333  42.864 -13.693  0.00  0.00    +0.000 A 
ATOM      9  H   UNL     1     -18.920  38.896 -11.938  0.00  0.00    +0.000 HD
ATOM     10  H   UNL     1     -20.232  39.173 -13.035  0.00  0.00    +0.000 HD
ENDROOT
BRANCH   3  12
ATOM     11  O   UNL     1     -16.773  39.947 -10.622  0.00  0.00    +0.000 OA
ATOM     12  C   UNL     1     -17.781  40.664 -10.486  0.00  0.00    +0.000 C 
ATOM     13  C   UNL     1     -18.462  40.716  -9.126  0.00  0.00    +0.000 C 
ENDBRANCH   3  12
TORSDOF 1
ENDMDL
MODEL 3
REMARK VINA RESULT:    -4.991      1.889      2.371
REMARK INTER + INTRA:          -5.533
REMARK INTER:                  -5.350
REMARK INTRA:                  -0.182
REMARK UNBOUND:                -0.250
REMARK  Name = 64128153
REMARK  3 active torsions:
REMARK  status: ('A' for Active; 'I' for Inactive)
REMARK    1  A    between atoms: C_4  and  C_8
REMARK    2  A    between atoms: C_5  and  C_9
REMARK    3  A    between atoms: C_8  and  C_11
REMARK                            x       y       z     vdW  Elec       q    Type
REMARK                         _______ _______ _______ _____ _____    ______ ____
ROOT
ATOM      1  N   UNL     1     -20.206  41.025  -7.663  0.00  0.00    +0.000 NA
ATOM      2  N   UNL     1     -20.924  39.328  -9.153  0.00  0.00    +0.000 N 
ATOM      3  C   UNL     1     -19.196  40.850  -9.852  0.00  0.00    +0.000 A 
ATOM      4  C   UNL     1     -18.377  41.939  -9.569  0.00  0.00    +0.000 A 
ATOM      5  C   UNL     1     -20.085  40.436  -8.874  0.00  0.00    +0.000 A 
ATOM      6  C   UNL     1     -18.473  42.571  -8.335  0.00  0.00    +0.000 A 
ATOM      7  C   UNL     1     -17.390  42.450 -10.567  0.00  0.00    +0.000 C 
ATOM      8  C   UNL     1     -19.394  42.080  -7.424  0.00  0.00    +0.000 A 
ATOM      9  H   UNL     1     -21.216  39.169 -10.108  0.00  0.00    +0.000 HD
ATOM     10  H   UNL     1     -21.559  39.047  -8.415  0.00  0.00    +0.000 HD
ENDROOT
BRANCH   3  12
ATOM     11  O   UNL     1     -18.590  39.048 -11.247  0.00  0.00    +0.000 OA
ATOM     12  C   UNL     1     -19.106  40.175 -11.142  0.00  0.00    +0.000 C 
ATOM     13  C   UNL     1     -19.649  40.848 -12.395  0.00  0.00    +0.000 C 
ENDBRANCH   3  12
TORSDOF 1
ENDMDL
MODEL 4
REMARK VINA RESULT:    -4.937      1.826      2.603
REMARK INTER + INTRA:          -5.475
REMARK INTER:                  -5.229
REMARK INTRA:                  -0.246
REMARK UNBOUND:                -0.250
REMARK  Name = 64128153
REMARK  3 active torsions:
REMARK  status: ('A' for Active; 'I' for Inactive)
REMARK    1  A    between atoms: C_4  and  C_8
REMARK    2  A    between atoms: C_5  and  C_9
REMARK    3  A    between atoms: C_8  and  C_11
REMARK                            x       y       z     vdW  Elec       q    Type
REMARK                         _______ _______ _______ _____ _____    ______ ____
ROOT
ATOM      1  N   UNL     1     -18.097  42.435  -9.081  0.00  0.00    +0.000 NA
ATOM      2  N   UNL     1     -17.330  43.701 -10.930  0.00  0.00    +0.000 N 
ATOM      3  C   UNL     1     -18.262  41.515 -11.310  0.00  0.00    +0.000 A 
ATOM      4  C   UNL     1     -18.835  40.356 -10.796  0.00  0.00    +0.000 A 
ATOM      5  C   UNL     1     -17.914  42.516 -10.418  0.00  0.00    +0.000 A 
ATOM      6  C   UNL     1     -19.038  40.235  -9.427  0.00  0.00    +0.000 A 
ATOM      7  C   UNL     1     -19.240  39.228 -11.688  0.00  0.00    +0.000 C 
ATOM      8  C   UNL     1     -18.656  41.294  -8.619  0.00  0.00    +0.000 A 
ATOM      9  H   UNL     1     -16.761  43.640 -11.766  0.00  0.00    +0.000 HD
ATOM     10  H   UNL     1     -17.091  44.416 -10.253  0.00  0.00    +0.000 HD
ENDROOT
BRANCH   3  12
ATOM     11  O   UNL     1     -16.961  41.342 -13.268  0.00  0.00    +0.000 OA
ATOM     12  C   UNL     1     -18.044  41.658 -12.745  0.00  0.00    +0.000 C 
ATOM     13  C   UNL     1     -19.152  42.205 -13.635  0.00  0.00    +0.000 C 
ENDBRANCH   3  12
TORSDOF 1
ENDMDL
MODEL 5
REMARK VINA RESULT:    -4.712      2.603      3.630
REMARK INTER + INTRA:          -5.238
REMARK INTER:                  -4.989
REMARK INTRA:                  -0.249
REMARK UNBOUND:                -0.250
REMARK  Name = 64128153
REMARK  3 active torsions:
REMARK  status: ('A' for Active; 'I' for Inactive)
REMARK    1  A    between atoms: C_4  and  C_8
REMARK    2  A    between atoms: C_5  and  C_9
REMARK    3  A    between atoms: C_8  and  C_11
REMARK                            x       y       z     vdW  Elec       q    Type
REMARK                         _______ _______ _______ _____ _____    ______ ____
ROOT
ATOM      1  N   UNL     1     -15.889  43.138 -11.293  0.00  0.00    +0.000 NA
ATOM      2  N   UNL     1     -15.412  40.823 -11.132  0.00  0.00    +0.000 N 
ATOM      3  C   UNL     1     -17.371  41.537 -12.335  0.00  0.00    +0.000 A 
ATOM      4  C   UNL     1     -18.182  42.572 -12.788  0.00  0.00    +0.000 A 
ATOM      5  C   UNL     1     -16.246  41.870 -11.599  0.00  0.00    +0.000 A 
ATOM      6  C   UNL     1     -17.849  43.889 -12.494  0.00  0.00    +0.000 A 
ATOM      7  C   UNL     1     -19.414  42.301 -13.589  0.00  0.00    +0.000 C 
ATOM      8  C   UNL     1     -16.702  44.117 -11.751  0.00  0.00    +0.000 A 
ATOM      9  H   UNL     1     -15.833  39.929 -10.912  0.00  0.00    +0.000 HD
ATOM     10  H   UNL     1     -14.595  41.100 -10.602  0.00  0.00    +0.000 HD
ENDROOT
BRANCH   3  12
ATOM     11  O   UNL     1     -17.151  39.539 -13.568  0.00  0.00    +0.000 OA
ATOM     12  C   UNL     1     -17.706  40.150 -12.637  0.00  0.00    +0.000 C 
ATOM     13  C   UNL     1     -18.754  39.421 -11.808  0.00  0.00    +0.000 C 
ENDBRANCH   3  12
TORSDOF 1
ENDMDL
