MODEL 1
REMARK VINA RESULT:    -5.177      0.000      0.000
REMARK INTER + INTRA:          -5.743
REMARK INTER:                  -5.480
REMARK INTRA:                  -0.263
REMARK UNBOUND:                -0.263
REMARK  Name = 64127747
REMARK  2 active torsions:
REMARK  status: ('A' for Active; 'I' for Inactive)
REMARK    1  A    between atoms: C_4  and  C_8
REMARK    2  A    between atoms: C_5  and  C_10
REMARK                            x       y       z     vdW  Elec       q    Type
REMARK                         _______ _______ _______ _____ _____    ______ ____
ROOT
ATOM      1  N   UNL     1     -19.234  39.753 -10.205  0.00  0.00    +0.000 NA
ATOM      2  N   UNL     1     -19.673  39.324 -12.493  0.00  0.00    +0.000 N 
ATOM      3  C   UNL     1     -18.094  42.216 -10.876  0.00  0.00    +0.000 A 
ATOM      4  C   UNL     1     -18.600  41.386 -11.870  0.00  0.00    +0.000 A 
ATOM      5  C   UNL     1     -19.154  40.176 -11.486  0.00  0.00    +0.000 A 
ATOM      6  C   UNL     1     -18.158  41.815  -9.545  0.00  0.00    +0.000 A 
ATOM      7  C   UNL     1     -17.479  43.536 -11.202  0.00  0.00    +0.000 C 
ATOM      8  C   UNL     1     -18.732  40.586  -9.265  0.00  0.00    +0.000 A 
ATOM      9  H   UNL     1     -20.082  39.740 -13.319  0.00  0.00    +0.000 HD
ATOM     10  H   UNL     1     -20.061  38.442 -12.177  0.00  0.00    +0.000 HD
ENDROOT
BRANCH   4  12
ATOM     11  O   UNL     1     -19.542  41.952 -13.965  0.00  0.00    +0.000 OA
ATOM     12  C   UNL     1     -18.537  41.790 -13.271  0.00  0.00    +0.000 C 
ENDBRANCH   4  12
TORSDOF 1
ENDMDL
MODEL 2
REMARK VINA RESULT:    -5.069      1.903      2.918
REMARK INTER + INTRA:          -5.629
REMARK INTER:                  -5.386
REMARK INTRA:                  -0.243
REMARK UNBOUND:                -0.263
REMARK  Name = 64127747
REMARK  2 active torsions:
REMARK  status: ('A' for Active; 'I' for Inactive)
REMARK    1  A    between atoms: C_4  and  C_8
REMARK    2  A    between atoms: C_5  and  C_10
REMARK                            x       y       z     vdW  Elec       q    Type
REMARK                         _______ _______ _______ _____ _____    ______ ____
ROOT
ATOM      1  N   UNL     1     -18.973  41.102 -13.485  0.00  0.00    +0.000 NA
ATOM      2  N   UNL     1     -19.924  39.205 -12.434  0.00  0.00    +0.000 N 
ATOM      3  C   UNL     1     -18.193  42.104 -10.995  0.00  0.00    +0.000 A 
ATOM      4  C   UNL     1     -18.868  40.892 -11.080  0.00  0.00    +0.000 A 
ATOM      5  C   UNL     1     -19.234  40.439 -12.337  0.00  0.00    +0.000 A 
ATOM      6  C   UNL     1     -17.906  42.816 -12.155  0.00  0.00    +0.000 A 
ATOM      7  C   UNL     1     -17.763  42.664  -9.680  0.00  0.00    +0.000 C 
ATOM      8  C   UNL     1     -18.314  42.277 -13.364  0.00  0.00    +0.000 A 
ATOM      9  H   UNL     1     -19.717  38.478 -11.760  0.00  0.00    +0.000 HD
ATOM     10  H   UNL     1     -20.185  38.909 -13.368  0.00  0.00    +0.000 HD
ENDROOT
BRANCH   4  12
ATOM     11  O   UNL     1     -20.307  40.103  -9.375  0.00  0.00    +0.000 OA
ATOM     12  C   UNL     1     -19.180  40.134  -9.873  0.00  0.00    +0.000 C 
ENDBRANCH   4  12
TORSDOF 1
ENDMDL
MODEL 3
REMARK VINA RESULT:    -4.748      2.321      3.295
REMARK INTER + INTRA:          -5.288
REMARK INTER:                  -5.200
REMARK INTRA:                  -0.088
REMARK UNBOUND:                -0.263
REMARK  Name = 64127747
REMARK  2 active torsions:
REMARK  status: ('A' for Active; 'I' for Inactive)
REMARK    1  A    between atoms: C_4  and  C_8
REMARK    2  A    between atoms: C_5  and  C_10
REMARK                            x       y       z     vdW  Elec       q    Type
REMARK                         _______ _______ _______ _____ _____    ______ ____
ROOT
ATOM      1  N   UNL     1     -18.199  40.870 -11.470  0.00  0.00    +0.000 NA
ATOM      2  N   UNL     1     -19.693  39.038 -11.311  0.00  0.00    +0.000 N 
ATOM      3  C   UNL     1     -18.857  41.647  -8.867  0.00  0.00    +0.000 A 
ATOM      4  C   UNL     1     -19.451  40.524  -9.432  0.00  0.00    +0.000 A 
ATOM      5  C   UNL     1     -19.092  40.181 -10.726  0.00  0.00    +0.000 A 
ATOM      6  C   UNL     1     -17.933  42.381  -9.603  0.00  0.00    +0.000 A 
ATOM      7  C   UNL     1     -19.188  42.086  -7.479  0.00  0.00    +0.000 C 
ATOM      8  C   UNL     1     -17.641  41.955 -10.888  0.00  0.00    +0.000 A 
ATOM      9  H   UNL     1     -19.940  38.260 -10.713  0.00  0.00    +0.000 HD
ATOM     10  H   UNL     1     -19.414  38.823 -12.261  0.00  0.00    +0.000 HD
ENDROOT
BRANCH   4  12
ATOM     11  O   UNL     1     -21.624  40.025  -8.641  0.00  0.00    +0.000 OA
ATOM     12  C   UNL     1     -20.425  39.744  -8.676  0.00  0.00    +0.000 C 
ENDBRANCH   4  12
TORSDOF 1
ENDMDL
MODEL 4
REMARK VINA RESULT:    -4.577      2.279      2.936
REMARK INTER + INTRA:          -5.107
REMARK INTER:                  -4.846
REMARK INTRA:                  -0.261
REMARK UNBOUND:                -0.263
REMARK  Name = 64127747
REMARK  2 active torsions:
REMARK  status: ('A' for Active; 'I' for Inactive)
REMARK    1  A    between atoms: C_4  and  C_8
REMARK    2  A    between atoms: C_5  and  C_10
REMARK                            x       y       z     vdW  Elec       q    Type
REMARK                         _______ _______ _______ _____ _____    ______ ____
ROOT
ATOM      1  N   UNL     1     -17.735  39.460 -11.238  0.00  0.00    +0.000 NA
ATOM      2  N   UNL     1     -15.560  40.397 -11.192  0.00  0.00    +0.000 N 
ATOM      3  C   UNL     1     -18.676  41.686 -12.643  0.00  0.00    +0.000 A 
ATOM      4  C   UNL     1     -17.339  41.608 -12.271  0.00  0.00    +0.000 A 
ATOM      5  C   UNL     1     -16.922  40.485 -11.576  0.00  0.00    +0.000 A 
ATOM      6  C   UNL     1     -19.544  40.650 -12.313  0.00  0.00    +0.000 A 
ATOM      7  C   UNL     1     -19.208  42.861 -13.393  0.00  0.00    +0.000 C 
ATOM      8  C   UNL     1     -19.029  39.569 -11.616  0.00  0.00    +0.000 A 
ATOM      9  H   UNL     1     -14.859  40.816 -11.789  0.00  0.00    +0.000 HD
ATOM     10  H   UNL     1     -15.293  39.566 -10.676  0.00  0.00    +0.000 HD
ENDROOT
BRANCH   4  12
ATOM     11  O   UNL     1     -15.794  43.324 -11.754  0.00  0.00    +0.000 OA
ATOM     12  C   UNL     1     -16.416  42.687 -12.606  0.00  0.00    +0.000 C 
ENDBRANCH   4  12
TORSDOF 1
ENDMDL
MODEL 5
REMARK VINA RESULT:    -4.574      1.999      2.827
REMARK INTER + INTRA:          -5.105
REMARK INTER:                  -4.865
REMARK INTRA:                  -0.240
REMARK UNBOUND:                -0.263
REMARK  Name = 64127747
REMARK  2 active torsions:
REMARK  status: ('A' for Active; 'I' for Inactive)
REMARK    1  A    between atoms: C_4  and  C_8
REMARK    2  A    between atoms: C_5  and  C_10
REMARK                            x       y       z     vdW  Elec       q    Type
REMARK                         _______ _______ _______ _____ _____    ______ ____
ROOT
ATOM      1  N   UNL     1     -18.083  43.441 -12.470  0.00  0.00    +0.000 NA
ATOM      2  N   UNL     1     -19.294  41.991 -13.898  0.00  0.00    +0.000 N 
ATOM      3  C   UNL     1     -18.276  41.577 -10.396  0.00  0.00    +0.000 A 
ATOM      4  C   UNL     1     -18.842  41.304 -11.637  0.00  0.00    +0.000 A 
ATOM      5  C   UNL     1     -18.719  42.260 -12.631  0.00  0.00    +0.000 A 
ATOM      6  C   UNL     1     -17.612  42.782 -10.193  0.00  0.00    +0.000 A 
ATOM      7  C   UNL     1     -18.362  40.601  -9.270  0.00  0.00    +0.000 C 
ATOM      8  C   UNL     1     -17.544  43.673 -11.252  0.00  0.00    +0.000 A 
ATOM      9  H   UNL     1     -19.323  41.033 -14.225  0.00  0.00    +0.000 HD
ATOM     10  H   UNL     1     -19.194  42.717 -14.599  0.00  0.00    +0.000 HD
ENDROOT
BRANCH   4  12
ATOM     11  O   UNL     1     -19.308  39.314 -12.829  0.00  0.00    +0.000 OA
ATOM     12  C   UNL     1     -19.545  40.046 -11.866  0.00  0.00    +0.000 C 
ENDBRANCH   4  12
TORSDOF 1
ENDMDL
