MODEL 1
REMARK VINA RESULT:    -6.272      0.000      0.000
REMARK INTER + INTRA:          -6.667
REMARK INTER:                  -6.638
REMARK INTRA:                  -0.028
REMARK UNBOUND:                -0.028
REMARK  Name = 644257
REMARK  1 active torsions:
REMARK  status: ('A' for Active; 'I' for Inactive)
REMARK    1  A    between atoms: C_4  and  C_8
REMARK                            x       y       z     vdW  Elec       q    Type
REMARK                         _______ _______ _______ _____ _____    ______ ____
ROOT
ATOM      1  N   UNL     1     -18.682  41.838  -7.916  0.00  0.00    +0.000 NA
ATOM      2  C   UNL     1     -21.063  41.663  -7.537  0.00  0.00    +0.000 A 
ATOM      3  C   UNL     1     -21.130  40.583  -8.410  0.00  0.00    +0.000 A 
ATOM      4  C   UNL     1     -19.825  42.250  -7.325  0.00  0.00    +0.000 A 
ATOM      5  C   UNL     1     -19.974  40.130  -9.036  0.00  0.00    +0.000 A 
ATOM      6  C   UNL     1     -18.786  40.786  -8.759  0.00  0.00    +0.000 A 
ENDROOT
BRANCH   2   9
ATOM      7  O   UNL     1     -23.253  41.439  -6.701  0.00  0.00    +0.000 OA
ATOM      8  N   UNL     1     -22.234  43.471  -6.400  0.00  0.00    +0.000 N 
ATOM      9  C   UNL     1     -22.252  42.160  -6.868  0.00  0.00    +0.000 C 
ATOM     10  H   UNL     1     -21.461  44.119  -6.491  0.00  0.00    +0.000 HD
ATOM     11  H   UNL     1     -23.050  43.842  -5.923  0.00  0.00    +0.000 HD
ENDBRANCH   2   9
TORSDOF 1
ENDMDL
MODEL 2
REMARK VINA RESULT:    -5.681      2.344      3.935
REMARK INTER + INTRA:          -6.041
REMARK INTER:                  -6.019
REMARK INTRA:                  -0.022
REMARK UNBOUND:                -0.028
REMARK  Name = 644257
REMARK  1 active torsions:
REMARK  status: ('A' for Active; 'I' for Inactive)
REMARK    1  A    between atoms: C_4  and  C_8
REMARK                            x       y       z     vdW  Elec       q    Type
REMARK                         _______ _______ _______ _____ _____    ______ ____
ROOT
ATOM      1  N   UNL     1     -22.337  40.745  -7.925  0.00  0.00    +0.000 NA
ATOM      2  C   UNL     1     -20.063  41.558  -7.813  0.00  0.00    +0.000 A 
ATOM      3  C   UNL     1     -20.370  42.281  -6.667  0.00  0.00    +0.000 A 
ATOM      4  C   UNL     1     -21.073  40.811  -8.399  0.00  0.00    +0.000 A 
ATOM      5  C   UNL     1     -21.660  42.236  -6.148  0.00  0.00    +0.000 A 
ATOM      6  C   UNL     1     -22.598  41.461  -6.808  0.00  0.00    +0.000 A 
ENDROOT
BRANCH   2   9
ATOM      7  O   UNL     1     -18.137  42.657  -8.607  0.00  0.00    +0.000 OA
ATOM      8  N   UNL     1     -18.110  40.365  -8.648  0.00  0.00    +0.000 N 
ATOM      9  C   UNL     1     -18.726  41.584  -8.380  0.00  0.00    +0.000 C 
ATOM     10  H   UNL     1     -18.517  39.451  -8.489  0.00  0.00    +0.000 HD
ATOM     11  H   UNL     1     -17.173  40.354  -9.038  0.00  0.00    +0.000 HD
ENDBRANCH   2   9
TORSDOF 1
ENDMDL
MODEL 3
REMARK VINA RESULT:    -5.303      3.023      4.157
REMARK INTER + INTRA:          -5.641
REMARK INTER:                  -5.623
REMARK INTRA:                  -0.018
REMARK UNBOUND:                -0.028
REMARK  Name = 644257
REMARK  1 active torsions:
REMARK  status: ('A' for Active; 'I' for Inactive)
REMARK    1  A    between atoms: C_4  and  C_8
REMARK                            x       y       z     vdW  Elec       q    Type
REMARK                         _______ _______ _______ _____ _____    ______ ____
ROOT
ATOM      1  N   UNL     1     -18.519  42.232  -8.297  0.00  0.00    +0.000 NA
ATOM      2  C   UNL     1     -19.370  40.653  -9.917  0.00  0.00    +0.000 A 
ATOM      3  C   UNL     1     -20.454  40.379  -9.091  0.00  0.00    +0.000 A 
ATOM      4  C   UNL     1     -18.439  41.580  -9.478  0.00  0.00    +0.000 A 
ATOM      5  C   UNL     1     -20.572  41.031  -7.868  0.00  0.00    +0.000 A 
ATOM      6  C   UNL     1     -19.587  41.940  -7.521  0.00  0.00    +0.000 A 
ENDROOT
BRANCH   2   9
ATOM      7  O   UNL     1     -18.476  38.999 -11.335  0.00  0.00    +0.000 OA
ATOM      8  N   UNL     1     -19.946  40.484 -12.278  0.00  0.00    +0.000 N 
ATOM      9  C   UNL     1     -19.219  39.989 -11.199  0.00  0.00    +0.000 C 
ATOM     10  H   UNL     1     -20.573  41.280 -12.250  0.00  0.00    +0.000 HD
ATOM     11  H   UNL     1     -19.864  40.035 -13.185  0.00  0.00    +0.000 HD
ENDBRANCH   2   9
TORSDOF 1
ENDMDL
MODEL 4
REMARK VINA RESULT:    -4.753      3.478      4.756
REMARK INTER + INTRA:          -5.059
REMARK INTER:                  -5.028
REMARK INTRA:                  -0.031
REMARK UNBOUND:                -0.028
REMARK  Name = 644257
REMARK  1 active torsions:
REMARK  status: ('A' for Active; 'I' for Inactive)
REMARK    1  A    between atoms: C_4  and  C_8
REMARK                            x       y       z     vdW  Elec       q    Type
REMARK                         _______ _______ _______ _____ _____    ______ ____
ROOT
ATOM      1  N   UNL     1     -18.679  39.769 -13.084  0.00  0.00    +0.000 NA
ATOM      2  C   UNL     1     -18.507  40.174 -10.707  0.00  0.00    +0.000 A 
ATOM      3  C   UNL     1     -17.120  40.154 -10.797  0.00  0.00    +0.000 A 
ATOM      4  C   UNL     1     -19.235  39.979 -11.871  0.00  0.00    +0.000 A 
ATOM      5  C   UNL     1     -16.511  39.941 -12.029  0.00  0.00    +0.000 A 
ATOM      6  C   UNL     1     -17.327  39.755 -13.132  0.00  0.00    +0.000 A 
ENDROOT
BRANCH   2   9
ATOM      7  O   UNL     1     -20.414  40.436  -9.350  0.00  0.00    +0.000 OA
ATOM      8  N   UNL     1     -18.377  40.541  -8.302  0.00  0.00    +0.000 N 
ATOM      9  C   UNL     1     -19.172  40.394  -9.436  0.00  0.00    +0.000 C 
ATOM     10  H   UNL     1     -17.364  40.515  -8.286  0.00  0.00    +0.000 HD
ATOM     11  H   UNL     1     -18.817  40.689  -7.399  0.00  0.00    +0.000 HD
ENDBRANCH   2   9
TORSDOF 1
ENDMDL
MODEL 5
REMARK VINA RESULT:    -4.583      3.542      4.806
REMARK INTER + INTRA:          -4.879
REMARK INTER:                  -4.853
REMARK INTRA:                  -0.026
REMARK UNBOUND:                -0.028
REMARK  Name = 644257
REMARK  1 active torsions:
REMARK  status: ('A' for Active; 'I' for Inactive)
REMARK    1  A    between atoms: C_4  and  C_8
REMARK                            x       y       z     vdW  Elec       q    Type
REMARK                         _______ _______ _______ _____ _____    ______ ____
ROOT
ATOM      1  N   UNL     1     -19.650  40.402  -8.638  0.00  0.00    +0.000 NA
ATOM      2  C   UNL     1     -19.183  40.832 -10.970  0.00  0.00    +0.000 A 
ATOM      3  C   UNL     1     -18.329  41.869 -10.615  0.00  0.00    +0.000 A 
ATOM      4  C   UNL     1     -19.814  40.135  -9.952  0.00  0.00    +0.000 A 
ATOM      5  C   UNL     1     -18.133  42.173  -9.273  0.00  0.00    +0.000 A 
ATOM      6  C   UNL     1     -18.811  41.417  -8.331  0.00  0.00    +0.000 A 
ENDROOT
BRANCH   2   9
ATOM      7  O   UNL     1     -19.549  39.308 -12.728  0.00  0.00    +0.000 OA
ATOM      8  N   UNL     1     -19.480  41.531 -13.285  0.00  0.00    +0.000 N 
ATOM      9  C   UNL     1     -19.409  40.490 -12.363  0.00  0.00    +0.000 C 
ATOM     10  H   UNL     1     -19.381  42.516 -13.070  0.00  0.00    +0.000 HD
ATOM     11  H   UNL     1     -19.643  41.321 -14.265  0.00  0.00    +0.000 HD
ENDBRANCH   2   9
TORSDOF 1
ENDMDL
