MODEL 1
REMARK VINA RESULT:    -5.915      0.000      0.000
REMARK INTER + INTRA:          -7.988
REMARK INTER:                  -7.298
REMARK INTRA:                  -0.690
REMARK UNBOUND:                -0.690
REMARK  Name = 651580
REMARK  5 active torsions:
REMARK  status: ('A' for Active; 'I' for Inactive)
REMARK    1  A    between atoms: N_2  and  C_5
REMARK    2  A    between atoms: N_2  and  C_7
REMARK    3  A    between atoms: C_5  and  C_6
REMARK    4  A    between atoms: C_6  and  C_9
REMARK    5  A    between atoms: C_8  and  C_12
REMARK                            x       y       z     vdW  Elec       q    Type
REMARK                         _______ _______ _______ _____ _____    ______ ____
ROOT
ATOM      1  N   UNL     1     -18.468  42.227  -8.276  0.00  0.00    +0.000 NA
ATOM      2  C   UNL     1     -18.356  41.561  -9.463  0.00  0.00    +0.000 A 
ATOM      3  C   UNL     1     -19.344  40.682  -9.916  0.00  0.00    +0.000 A 
ATOM      4  C   UNL     1     -20.476  40.480  -9.133  0.00  0.00    +0.000 A 
ATOM      5  C   UNL     1     -20.604  41.150  -7.921  0.00  0.00    +0.000 A 
ATOM      6  C   UNL     1     -19.581  42.005  -7.541  0.00  0.00    +0.000 A 
ENDROOT
BRANCH   3   9
ATOM      7  O   UNL     1     -18.383  39.069 -11.338  0.00  0.00    +0.000 OA
ATOM      8  N   UNL     1     -20.082  40.338 -12.212  0.00  0.00    +0.000 N 
ATOM      9  C   UNL     1     -19.220  39.976 -11.184  0.00  0.00    +0.000 C 
ATOM     10  H   UNL     1     -20.775  41.070 -12.102  0.00  0.00    +0.000 HD
ATOM     11  H   UNL     1     -20.042  39.874 -13.114  0.00  0.00    +0.000 HD
ENDBRANCH   3   9
BRANCH   2  12
ATOM     12  N   UNL     1     -17.224  41.770 -10.241  0.00  0.00    +0.000 N 
ATOM     13  H   UNL     1     -16.456  41.119 -10.105  0.00  0.00    +0.000 HD
BRANCH  12  14
ATOM     14  C   UNL     1     -16.901  43.021 -10.871  0.00  0.00    +0.000 C 
BRANCH  14  15
ATOM     15  C   UNL     1     -17.879  43.381 -11.981  0.00  0.00    +0.000 C 
ATOM     16  C   UNL     1     -17.556  42.691 -13.298  0.00  0.00    +0.000 C 
ENDBRANCH  14  15
ENDBRANCH  12  14
ENDBRANCH   2  12
TORSDOF 4
ENDMDL
MODEL 2
REMARK VINA RESULT:    -5.130      1.945      4.613
REMARK INTER + INTRA:          -7.019
REMARK INTER:                  -6.612
REMARK INTRA:                  -0.407
REMARK UNBOUND:                -0.690
REMARK  Name = 651580
REMARK  5 active torsions:
REMARK  status: ('A' for Active; 'I' for Inactive)
REMARK    1  A    between atoms: N_2  and  C_5
REMARK    2  A    between atoms: N_2  and  C_7
REMARK    3  A    between atoms: C_5  and  C_6
REMARK    4  A    between atoms: C_6  and  C_9
REMARK    5  A    between atoms: C_8  and  C_12
REMARK                            x       y       z     vdW  Elec       q    Type
REMARK                         _______ _______ _______ _____ _____    ______ ____
ROOT
ATOM      1  N   UNL     1     -19.324  39.764 -10.754  0.00  0.00    +0.000 NA
ATOM      2  C   UNL     1     -18.630  40.904 -10.469  0.00  0.00    +0.000 A 
ATOM      3  C   UNL     1     -17.796  41.519 -11.408  0.00  0.00    +0.000 A 
ATOM      4  C   UNL     1     -17.670  40.950 -12.671  0.00  0.00    +0.000 A 
ATOM      5  C   UNL     1     -18.370  39.788 -12.976  0.00  0.00    +0.000 A 
ATOM      6  C   UNL     1     -19.176  39.239 -11.992  0.00  0.00    +0.000 A 
ENDROOT
BRANCH   3   9
ATOM      7  O   UNL     1     -17.644  43.821 -10.935  0.00  0.00    +0.000 OA
ATOM      8  N   UNL     1     -15.678  42.641 -10.973  0.00  0.00    +0.000 N 
ATOM      9  C   UNL     1     -17.059  42.737 -11.098  0.00  0.00    +0.000 C 
ATOM     10  H   UNL     1     -15.184  41.763 -11.096  0.00  0.00    +0.000 HD
ATOM     11  H   UNL     1     -15.116  43.457 -10.753  0.00  0.00    +0.000 HD
ENDBRANCH   3   9
BRANCH   2  12
ATOM     12  N   UNL     1     -18.763  41.468  -9.206  0.00  0.00    +0.000 N 
ATOM     13  H   UNL     1     -17.925  41.878  -8.804  0.00  0.00    +0.000 HD
BRANCH  12  14
ATOM     14  C   UNL     1     -19.823  41.148  -8.290  0.00  0.00    +0.000 C 
BRANCH  14  15
ATOM     15  C   UNL     1     -19.830  42.057  -7.069  0.00  0.00    +0.000 C 
ATOM     16  C   UNL     1     -21.131  41.980  -6.283  0.00  0.00    +0.000 C 
ENDBRANCH  14  15
ENDBRANCH  12  14
ENDBRANCH   2  12
TORSDOF 4
ENDMDL
MODEL 3
REMARK VINA RESULT:    -5.054      2.028      3.395
REMARK INTER + INTRA:          -6.925
REMARK INTER:                  -6.432
REMARK INTRA:                  -0.493
REMARK UNBOUND:                -0.690
REMARK  Name = 651580
REMARK  5 active torsions:
REMARK  status: ('A' for Active; 'I' for Inactive)
REMARK    1  A    between atoms: N_2  and  C_5
REMARK    2  A    between atoms: N_2  and  C_7
REMARK    3  A    between atoms: C_5  and  C_6
REMARK    4  A    between atoms: C_6  and  C_9
REMARK    5  A    between atoms: C_8  and  C_12
REMARK                            x       y       z     vdW  Elec       q    Type
REMARK                         _______ _______ _______ _____ _____    ______ ____
ROOT
ATOM      1  N   UNL     1     -17.149  40.567 -12.514  0.00  0.00    +0.000 NA
ATOM      2  C   UNL     1     -17.236  41.078 -11.251  0.00  0.00    +0.000 A 
ATOM      3  C   UNL     1     -18.293  40.760 -10.393  0.00  0.00    +0.000 A 
ATOM      4  C   UNL     1     -19.287  39.896 -10.842  0.00  0.00    +0.000 A 
ATOM      5  C   UNL     1     -19.212  39.368 -12.126  0.00  0.00    +0.000 A 
ATOM      6  C   UNL     1     -18.133  39.731 -12.915  0.00  0.00    +0.000 A 
ENDROOT
BRANCH   3   9
ATOM      7  O   UNL     1     -18.159  42.511  -8.824  0.00  0.00    +0.000 OA
ATOM      8  N   UNL     1     -18.738  40.444  -8.019  0.00  0.00    +0.000 N 
ATOM      9  C   UNL     1     -18.381  41.309  -9.046  0.00  0.00    +0.000 C 
ATOM     10  H   UNL     1     -18.929  39.461  -8.183  0.00  0.00    +0.000 HD
ATOM     11  H   UNL     1     -18.819  40.774  -7.063  0.00  0.00    +0.000 HD
ENDBRANCH   3   9
BRANCH   2  12
ATOM     12  N   UNL     1     -16.239  41.940 -10.809  0.00  0.00    +0.000 N 
ATOM     13  H   UNL     1     -15.943  41.831  -9.844  0.00  0.00    +0.000 HD
BRANCH  12  14
ATOM     14  C   UNL     1     -15.919  43.190 -11.442  0.00  0.00    +0.000 C 
BRANCH  14  15
ATOM     15  C   UNL     1     -17.136  43.845 -12.082  0.00  0.00    +0.000 C 
ATOM     16  C   UNL     1     -17.528  45.150 -11.404  0.00  0.00    +0.000 C 
ENDBRANCH  14  15
ENDBRANCH  12  14
ENDBRANCH   2  12
TORSDOF 4
ENDMDL
MODEL 4
REMARK VINA RESULT:    -4.664      2.971      3.923
REMARK INTER + INTRA:          -6.444
REMARK INTER:                  -5.817
REMARK INTRA:                  -0.627
REMARK UNBOUND:                -0.690
REMARK  Name = 651580
REMARK  5 active torsions:
REMARK  status: ('A' for Active; 'I' for Inactive)
REMARK    1  A    between atoms: N_2  and  C_5
REMARK    2  A    between atoms: N_2  and  C_7
REMARK    3  A    between atoms: C_5  and  C_6
REMARK    4  A    between atoms: C_6  and  C_9
REMARK    5  A    between atoms: C_8  and  C_12
REMARK                            x       y       z     vdW  Elec       q    Type
REMARK                         _______ _______ _______ _____ _____    ______ ____
ROOT
ATOM      1  N   UNL     1     -19.121  41.211 -13.151  0.00  0.00    +0.000 NA
ATOM      2  C   UNL     1     -17.897  41.694 -12.787  0.00  0.00    +0.000 A 
ATOM      3  C   UNL     1     -17.178  41.159 -11.713  0.00  0.00    +0.000 A 
ATOM      4  C   UNL     1     -17.727  40.101 -10.997  0.00  0.00    +0.000 A 
ATOM      5  C   UNL     1     -18.973  39.598 -11.355  0.00  0.00    +0.000 A 
ATOM      6  C   UNL     1     -19.623  40.183 -12.431  0.00  0.00    +0.000 A 
ENDROOT
BRANCH   3   9
ATOM      7  O   UNL     1     -15.694  42.891 -11.129  0.00  0.00    +0.000 OA
ATOM      8  N   UNL     1     -14.834  40.766 -11.176  0.00  0.00    +0.000 N 
ATOM      9  C   UNL     1     -15.872  41.678 -11.329  0.00  0.00    +0.000 C 
ATOM     10  H   UNL     1     -14.963  39.772 -11.329  0.00  0.00    +0.000 HD
ATOM     11  H   UNL     1     -13.906  41.074 -10.905  0.00  0.00    +0.000 HD
ENDBRANCH   3   9
BRANCH   2  12
ATOM     12  N   UNL     1     -17.354  42.750 -13.509  0.00  0.00    +0.000 N 
ATOM     13  H   UNL     1     -16.344  42.756 -13.609  0.00  0.00    +0.000 HD
BRANCH  12  14
ATOM     14  C   UNL     1     -18.030  43.997 -13.740  0.00  0.00    +0.000 C 
BRANCH  14  15
ATOM     15  C   UNL     1     -18.460  44.673 -12.444  0.00  0.00    +0.000 C 
ATOM     16  C   UNL     1     -17.474  45.735 -11.978  0.00  0.00    +0.000 C 
ENDBRANCH  14  15
ENDBRANCH  12  14
ENDBRANCH   2  12
TORSDOF 4
ENDMDL
MODEL 5
REMARK VINA RESULT:    -4.585      3.353      4.704
REMARK INTER + INTRA:          -6.346
REMARK INTER:                  -5.935
REMARK INTRA:                  -0.411
REMARK UNBOUND:                -0.690
REMARK  Name = 651580
REMARK  5 active torsions:
REMARK  status: ('A' for Active; 'I' for Inactive)
REMARK    1  A    between atoms: N_2  and  C_5
REMARK    2  A    between atoms: N_2  and  C_7
REMARK    3  A    between atoms: C_5  and  C_6
REMARK    4  A    between atoms: C_6  and  C_9
REMARK    5  A    between atoms: C_8  and  C_12
REMARK                            x       y       z     vdW  Elec       q    Type
REMARK                         _______ _______ _______ _____ _____    ______ ____
ROOT
ATOM      1  N   UNL     1     -18.521  44.587 -13.329  0.00  0.00    +0.000 NA
ATOM      2  C   UNL     1     -18.517  43.254 -13.622  0.00  0.00    +0.000 A 
ATOM      3  C   UNL     1     -18.029  42.299 -12.725  0.00  0.00    +0.000 A 
ATOM      4  C   UNL     1     -17.533  42.722 -11.496  0.00  0.00    +0.000 A 
ATOM      5  C   UNL     1     -17.530  44.077 -11.184  0.00  0.00    +0.000 A 
ATOM      6  C   UNL     1     -18.031  44.961 -12.126  0.00  0.00    +0.000 A 
ENDROOT
BRANCH   3   9
ATOM      7  O   UNL     1     -19.083  40.272 -13.295  0.00  0.00    +0.000 OA
ATOM      8  N   UNL     1     -16.801  40.224 -13.072  0.00  0.00    +0.000 N 
ATOM      9  C   UNL     1     -18.027  40.877 -13.043  0.00  0.00    +0.000 C 
ATOM     10  H   UNL     1     -15.929  40.704 -12.875  0.00  0.00    +0.000 HD
ATOM     11  H   UNL     1     -16.742  39.235 -13.293  0.00  0.00    +0.000 HD
ENDBRANCH   3   9
BRANCH   2  12
ATOM     12  N   UNL     1     -19.015  42.839 -14.851  0.00  0.00    +0.000 N 
ATOM     13  H   UNL     1     -18.551  42.045 -15.282  0.00  0.00    +0.000 HD
BRANCH  12  14
ATOM     14  C   UNL     1     -19.808  43.667 -15.718  0.00  0.00    +0.000 C 
BRANCH  14  15
ATOM     15  C   UNL     1     -20.013  43.041 -17.091  0.00  0.00    +0.000 C 
ATOM     16  C   UNL     1     -21.480  42.795 -17.414  0.00  0.00    +0.000 C 
ENDBRANCH  14  15
ENDBRANCH  12  14
ENDBRANCH   2  12
TORSDOF 4
ENDMDL
