MODEL 1
REMARK VINA RESULT:    -8.165      0.000      0.000
REMARK INTER + INTRA:          -9.336
REMARK INTER:                  -9.120
REMARK INTRA:                  -0.216
REMARK UNBOUND:                -0.216
REMARK  Name = 65529981
REMARK  2 active torsions:
REMARK  status: ('A' for Active; 'I' for Inactive)
REMARK    1  A    between atoms: C_8  and  C_13
REMARK    2  A    between atoms: C_14  and  C_15
REMARK                            x       y       z     vdW  Elec       q    Type
REMARK                         _______ _______ _______ _____ _____    ______ ____
ROOT
ATOM      1  O   UNL     1     -19.550  40.446 -11.896  0.00  0.00    +0.000 OA
ATOM      2  N   UNL     1     -19.244  40.832  -9.610  0.00  0.00    +0.000 N 
ATOM      3  C   UNL     1     -20.609  41.357  -7.110  0.00  0.00    +0.000 C 
ATOM      4  C   UNL     1     -19.440  42.230  -7.594  0.00  0.00    +0.000 C 
ATOM      5  C   UNL     1     -21.326  40.712  -8.307  0.00  0.00    +0.000 C 
ATOM      6  C   UNL     1     -18.500  41.437  -8.499  0.00  0.00    +0.000 C 
ATOM      7  C   UNL     1     -20.344  39.958  -9.202  0.00  0.00    +0.000 C 
ATOM      8  C   UNL     1     -18.953  40.989 -10.967  0.00  0.00    +0.000 C 
ENDROOT
BRANCH   8  11
ATOM      9  N   UNL     1     -15.474  42.223 -11.629  0.00  0.00    +0.000 NA
ATOM     10  N   UNL     1     -14.675  44.340 -12.375  0.00  0.00    +0.000 N 
ATOM     11  C   UNL     1     -17.850  41.883 -11.340  0.00  0.00    +0.000 A 
ATOM     12  C   UNL     1     -18.093  43.192 -11.745  0.00  0.00    +0.000 A 
ATOM     13  C   UNL     1     -16.534  41.451 -11.299  0.00  0.00    +0.000 A 
ATOM     14  C   UNL     1     -17.028  44.015 -12.092  0.00  0.00    +0.000 A 
ATOM     15  C   UNL     1     -15.750  43.488 -12.017  0.00  0.00    +0.000 A 
ATOM     16  H   UNL     1     -14.849  45.081 -13.042  0.00  0.00    +0.000 HD
ATOM     17  H   UNL     1     -13.743  43.948 -12.324  0.00  0.00    +0.000 HD
ENDBRANCH   8  11
BRANCH   3  21
ATOM     18  F   UNL     1     -21.744  43.395  -6.806  0.00  0.00    +0.000 F 
ATOM     19  F   UNL     1     -22.777  41.563  -6.220  0.00  0.00    +0.000 F 
ATOM     20  F   UNL     1     -21.115  42.309  -5.019  0.00  0.00    +0.000 F 
ATOM     21  C   UNL     1     -21.585  42.176  -6.269  0.00  0.00    +0.000 C 
ENDBRANCH   3  21
TORSDOF 2
ENDMDL
MODEL 2
REMARK VINA RESULT:    -7.588      0.698      1.144
REMARK INTER + INTRA:          -8.691
REMARK INTER:                  -8.433
REMARK INTRA:                  -0.258
REMARK UNBOUND:                -0.216
REMARK  Name = 65529981
REMARK  2 active torsions:
REMARK  status: ('A' for Active; 'I' for Inactive)
REMARK    1  A    between atoms: C_8  and  C_13
REMARK    2  A    between atoms: C_14  and  C_15
REMARK                            x       y       z     vdW  Elec       q    Type
REMARK                         _______ _______ _______ _____ _____    ______ ____
ROOT
ATOM      1  O   UNL     1     -19.744  40.348 -12.356  0.00  0.00    +0.000 OA
ATOM      2  N   UNL     1     -19.232  40.713 -10.104  0.00  0.00    +0.000 N 
ATOM      3  C   UNL     1     -20.364  41.078  -7.463  0.00  0.00    +0.000 C 
ATOM      4  C   UNL     1     -19.324  42.052  -8.040  0.00  0.00    +0.000 C 
ATOM      5  C   UNL     1     -21.150  40.399  -8.596  0.00  0.00    +0.000 C 
ATOM      6  C   UNL     1     -18.425  41.355  -9.058  0.00  0.00    +0.000 C 
ATOM      7  C   UNL     1     -20.211  39.745  -9.608  0.00  0.00    +0.000 C 
ATOM      8  C   UNL     1     -19.098  40.919 -11.478  0.00  0.00    +0.000 C 
ENDROOT
BRANCH   8  11
ATOM      9  N   UNL     1     -15.904  42.373 -12.800  0.00  0.00    +0.000 NA
ATOM     10  N   UNL     1     -15.273  44.626 -13.252  0.00  0.00    +0.000 N 
ATOM     11  C   UNL     1     -18.114  41.907 -11.938  0.00  0.00    +0.000 A 
ATOM     12  C   UNL     1     -18.416  43.264 -11.958  0.00  0.00    +0.000 A 
ATOM     13  C   UNL     1     -16.855  41.516 -12.366  0.00  0.00    +0.000 A 
ATOM     14  C   UNL     1     -17.463  44.176 -12.399  0.00  0.00    +0.000 A 
ATOM     15  C   UNL     1     -16.234  43.684 -12.805  0.00  0.00    +0.000 A 
ATOM     16  H   UNL     1     -15.602  45.491 -13.663  0.00  0.00    +0.000 HD
ATOM     17  H   UNL     1     -14.379  44.260 -13.554  0.00  0.00    +0.000 HD
ENDBRANCH   8  11
BRANCH   3  21
ATOM     18  F   UNL     1     -22.373  41.026  -6.239  0.00  0.00    +0.000 F 
ATOM     19  F   UNL     1     -20.674  42.073  -5.353  0.00  0.00    +0.000 F 
ATOM     20  F   UNL     1     -21.730  42.949  -7.051  0.00  0.00    +0.000 F 
ATOM     21  C   UNL     1     -21.307  41.798  -6.503  0.00  0.00    +0.000 C 
ENDBRANCH   3  21
TORSDOF 2
ENDMDL
MODEL 3
REMARK VINA RESULT:    -6.717      2.388      3.389
REMARK INTER + INTRA:          -7.718
REMARK INTER:                  -7.468
REMARK INTRA:                  -0.250
REMARK UNBOUND:                -0.216
REMARK  Name = 65529981
REMARK  2 active torsions:
REMARK  status: ('A' for Active; 'I' for Inactive)
REMARK    1  A    between atoms: C_8  and  C_13
REMARK    2  A    between atoms: C_14  and  C_15
REMARK                            x       y       z     vdW  Elec       q    Type
REMARK                         _______ _______ _______ _____ _____    ______ ____
ROOT
ATOM      1  O   UNL     1     -18.475  43.482 -13.839  0.00  0.00    +0.000 OA
ATOM      2  N   UNL     1     -17.936  42.402 -11.837  0.00  0.00    +0.000 N 
ATOM      3  C   UNL     1     -18.981  40.744  -9.704  0.00  0.00    +0.000 C 
ATOM      4  C   UNL     1     -18.209  42.041  -9.417  0.00  0.00    +0.000 C 
ATOM      5  C   UNL     1     -19.660  40.818 -11.081  0.00  0.00    +0.000 C 
ATOM      6  C   UNL     1     -17.234  42.362 -10.548  0.00  0.00    +0.000 C 
ATOM      7  C   UNL     1     -18.656  41.174 -12.176  0.00  0.00    +0.000 C 
ATOM      8  C   UNL     1     -17.922  43.466 -12.739  0.00  0.00    +0.000 C 
ENDROOT
BRANCH   8  11
ATOM      9  N   UNL     1     -15.126  45.926 -12.303  0.00  0.00    +0.000 NA
ATOM     10  N   UNL     1     -15.084  48.098 -11.323  0.00  0.00    +0.000 N 
ATOM     11  C   UNL     1     -17.201  44.688 -12.360  0.00  0.00    +0.000 A 
ATOM     12  C   UNL     1     -17.853  45.737 -11.721  0.00  0.00    +0.000 A 
ATOM     13  C   UNL     1     -15.848  44.831 -12.626  0.00  0.00    +0.000 A 
ATOM     14  C   UNL     1     -17.143  46.880 -11.374  0.00  0.00    +0.000 A 
ATOM     15  C   UNL     1     -15.794  46.925 -11.683  0.00  0.00    +0.000 A 
ATOM     16  H   UNL     1     -15.592  48.972 -11.271  0.00  0.00    +0.000 HD
ATOM     17  H   UNL     1     -14.099  48.128 -11.557  0.00  0.00    +0.000 HD
ENDBRANCH   8  11
BRANCH   3  21
ATOM     18  F   UNL     1     -19.383  40.193  -7.452  0.00  0.00    +0.000 F 
ATOM     19  F   UNL     1     -20.792  41.543  -8.431  0.00  0.00    +0.000 F 
ATOM     20  F   UNL     1     -20.776  39.423  -8.947  0.00  0.00    +0.000 F 
ATOM     21  C   UNL     1     -20.008  40.470  -8.607  0.00  0.00    +0.000 C 
ENDBRANCH   3  21
TORSDOF 2
ENDMDL
MODEL 4
REMARK VINA RESULT:    -6.475      3.849      6.541
REMARK INTER + INTRA:          -7.448
REMARK INTER:                  -7.264
REMARK INTRA:                  -0.184
REMARK UNBOUND:                -0.216
REMARK  Name = 65529981
REMARK  2 active torsions:
REMARK  status: ('A' for Active; 'I' for Inactive)
REMARK    1  A    between atoms: C_8  and  C_13
REMARK    2  A    between atoms: C_14  and  C_15
REMARK                            x       y       z     vdW  Elec       q    Type
REMARK                         _______ _______ _______ _____ _____    ______ ____
ROOT
ATOM      1  O   UNL     1     -15.446  41.211 -11.263  0.00  0.00    +0.000 OA
ATOM      2  N   UNL     1     -16.652  43.072 -12.005  0.00  0.00    +0.000 N 
ATOM      3  C   UNL     1     -16.575  45.950 -12.325  0.00  0.00    +0.000 C 
ATOM      4  C   UNL     1     -17.751  45.243 -11.631  0.00  0.00    +0.000 C 
ATOM      5  C   UNL     1     -15.293  45.114 -12.190  0.00  0.00    +0.000 C 
ATOM      6  C   UNL     1     -17.912  43.814 -12.143  0.00  0.00    +0.000 C 
ATOM      7  C   UNL     1     -15.508  43.683 -12.682  0.00  0.00    +0.000 C 
ATOM      8  C   UNL     1     -16.493  41.854 -11.342  0.00  0.00    +0.000 C 
ENDROOT
BRANCH   8  11
ATOM      9  N   UNL     1     -19.367  39.568 -10.585  0.00  0.00    +0.000 NA
ATOM     10  N   UNL     1     -20.957  39.580  -8.811  0.00  0.00    +0.000 N 
ATOM     11  C   UNL     1     -17.659  41.277 -10.662  0.00  0.00    +0.000 A 
ATOM     12  C   UNL     1     -18.165  41.846  -9.498  0.00  0.00    +0.000 A 
ATOM     13  C   UNL     1     -18.291  40.149 -11.161  0.00  0.00    +0.000 A 
ATOM     14  C   UNL     1     -19.271  41.276  -8.877  0.00  0.00    +0.000 A 
ATOM     15  C   UNL     1     -19.831  40.149  -9.456  0.00  0.00    +0.000 A 
ATOM     16  H   UNL     1     -21.052  39.702  -7.810  0.00  0.00    +0.000 HD
ATOM     17  H   UNL     1     -21.359  38.753  -9.234  0.00  0.00    +0.000 HD
ENDBRANCH   8  11
BRANCH   3  21
ATOM     18  F   UNL     1     -17.449  47.719 -11.043  0.00  0.00    +0.000 F 
ATOM     19  F   UNL     1     -15.295  47.372 -10.956  0.00  0.00    +0.000 F 
ATOM     20  F   UNL     1     -16.190  48.232 -12.752  0.00  0.00    +0.000 F 
ATOM     21  C   UNL     1     -16.372  47.352 -11.755  0.00  0.00    +0.000 C 
ENDBRANCH   3  21
TORSDOF 2
ENDMDL
MODEL 5
REMARK VINA RESULT:    -6.045      4.024      6.341
REMARK INTER + INTRA:          -6.967
REMARK INTER:                  -6.703
REMARK INTRA:                  -0.264
REMARK UNBOUND:                -0.216
REMARK  Name = 65529981
REMARK  2 active torsions:
REMARK  status: ('A' for Active; 'I' for Inactive)
REMARK    1  A    between atoms: C_8  and  C_13
REMARK    2  A    between atoms: C_14  and  C_15
REMARK                            x       y       z     vdW  Elec       q    Type
REMARK                         _______ _______ _______ _____ _____    ______ ____
ROOT
ATOM      1  O   UNL     1     -14.833  42.591 -11.313  0.00  0.00    +0.000 OA
ATOM      2  N   UNL     1     -16.330  44.091 -12.301  0.00  0.00    +0.000 N 
ATOM      3  C   UNL     1     -17.317  46.813 -12.238  0.00  0.00    +0.000 C 
ATOM      4  C   UNL     1     -18.268  45.606 -12.214  0.00  0.00    +0.000 C 
ATOM      5  C   UNL     1     -15.951  46.431 -11.646  0.00  0.00    +0.000 C 
ATOM      6  C   UNL     1     -17.637  44.395 -12.897  0.00  0.00    +0.000 C 
ATOM      7  C   UNL     1     -15.373  45.197 -12.335  0.00  0.00    +0.000 C 
ATOM      8  C   UNL     1     -15.943  42.858 -11.773  0.00  0.00    +0.000 C 
ENDROOT
BRANCH   8  11
ATOM      9  N   UNL     1     -17.963  39.887 -12.847  0.00  0.00    +0.000 NA
ATOM     10  N   UNL     1     -19.704  38.691 -11.745  0.00  0.00    +0.000 N 
ATOM     11  C   UNL     1     -16.933  41.775 -11.742  0.00  0.00    +0.000 A 
ATOM     12  C   UNL     1     -17.764  41.592 -10.641  0.00  0.00    +0.000 A 
ATOM     13  C   UNL     1     -17.072  40.903 -12.811  0.00  0.00    +0.000 A 
ATOM     14  C   UNL     1     -18.692  40.558 -10.643  0.00  0.00    +0.000 A 
ATOM     15  C   UNL     1     -18.752  39.741 -11.759  0.00  0.00    +0.000 A 
ATOM     16  H   UNL     1     -19.978  38.301 -10.852  0.00  0.00    +0.000 HD
ATOM     17  H   UNL     1     -19.740  38.093 -12.561  0.00  0.00    +0.000 HD
ENDBRANCH   8  11
BRANCH   3  21
ATOM     18  F   UNL     1     -16.970  48.636 -10.792  0.00  0.00    +0.000 F 
ATOM     19  F   UNL     1     -18.481  48.855 -12.353  0.00  0.00    +0.000 F 
ATOM     20  F   UNL     1     -18.867  47.566 -10.635  0.00  0.00    +0.000 F 
ATOM     21  C   UNL     1     -17.923  47.996 -11.487  0.00  0.00    +0.000 C 
ENDBRANCH   3  21
TORSDOF 2
ENDMDL
