MODEL 1
REMARK VINA RESULT:    -6.584      0.000      0.000
REMARK INTER + INTRA:          -7.704
REMARK INTER:                  -7.354
REMARK INTRA:                  -0.350
REMARK UNBOUND:                -0.350
REMARK  Name = 65531133
REMARK  2 active torsions:
REMARK  status: ('A' for Active; 'I' for Inactive)
REMARK    1  A    between atoms: C_8  and  C_13
REMARK    2  A    between atoms: C_14  and  C_15
REMARK                            x       y       z     vdW  Elec       q    Type
REMARK                         _______ _______ _______ _____ _____    ______ ____
ROOT
ATOM      1  O   UNL     1     -16.990  41.558 -13.546  0.00  0.00    +0.000 OA
ATOM      2  N   UNL     1     -17.677  41.155 -11.347  0.00  0.00    +0.000 N 
ATOM      3  C   UNL     1     -19.357  41.285  -9.545  0.00  0.00    +0.000 C 
ATOM      4  C   UNL     1     -19.641  39.785  -9.735  0.00  0.00    +0.000 C 
ATOM      5  C   UNL     1     -17.920  41.614  -9.973  0.00  0.00    +0.000 C 
ATOM      6  C   UNL     1     -19.322  39.339 -11.163  0.00  0.00    +0.000 C 
ATOM      7  C   UNL     1     -17.899  39.725 -11.561  0.00  0.00    +0.000 C 
ATOM      8  C   UNL     1     -17.229  41.950 -12.404  0.00  0.00    +0.000 C 
ENDROOT
BRANCH   8  11
ATOM      9  N   UNL     1     -15.508  45.215 -11.736  0.00  0.00    +0.000 NA
ATOM     10  N   UNL     1     -16.374  47.416 -11.451  0.00  0.00    +0.000 N 
ATOM     11  C   UNL     1     -17.029  43.383 -12.156  0.00  0.00    +0.000 A 
ATOM     12  C   UNL     1     -18.108  44.259 -12.103  0.00  0.00    +0.000 A 
ATOM     13  C   UNL     1     -15.760  43.907 -11.968  0.00  0.00    +0.000 A 
ATOM     14  C   UNL     1     -17.889  45.610 -11.867  0.00  0.00    +0.000 A 
ATOM     15  C   UNL     1     -16.582  46.035 -11.692  0.00  0.00    +0.000 A 
ATOM     16  H   UNL     1     -17.045  48.076 -11.824  0.00  0.00    +0.000 HD
ATOM     17  H   UNL     1     -15.417  47.722 -11.329  0.00  0.00    +0.000 HD
ENDBRANCH   8  11
BRANCH   3  21
ATOM     18  F   UNL     1     -18.881  42.797  -7.807  0.00  0.00    +0.000 F 
ATOM     19  F   UNL     1     -20.902  41.976  -7.909  0.00  0.00    +0.000 F 
ATOM     20  F   UNL     1     -19.240  40.712  -7.266  0.00  0.00    +0.000 F 
ATOM     21  C   UNL     1     -19.601  41.703  -8.097  0.00  0.00    +0.000 C 
ENDBRANCH   3  21
TORSDOF 2
ENDMDL
MODEL 2
REMARK VINA RESULT:    -5.713      4.228      5.368
REMARK INTER + INTRA:          -6.731
REMARK INTER:                  -7.365
REMARK INTRA:                   0.634
REMARK UNBOUND:                -0.350
REMARK  Name = 65531133
REMARK  2 active torsions:
REMARK  status: ('A' for Active; 'I' for Inactive)
REMARK    1  A    between atoms: C_8  and  C_13
REMARK    2  A    between atoms: C_14  and  C_15
REMARK                            x       y       z     vdW  Elec       q    Type
REMARK                         _______ _______ _______ _____ _____    ______ ____
ROOT
ATOM      1  O   UNL     1     -18.199  45.957 -13.643  0.00  0.00    +0.000 OA
ATOM      2  N   UNL     1     -18.188  43.799 -12.741  0.00  0.00    +0.000 N 
ATOM      3  C   UNL     1     -17.303  41.498 -12.644  0.00  0.00    +0.000 C 
ATOM      4  C   UNL     1     -16.557  41.866 -11.350  0.00  0.00    +0.000 C 
ATOM      5  C   UNL     1     -18.550  42.378 -12.808  0.00  0.00    +0.000 C 
ATOM      6  C   UNL     1     -16.249  43.363 -11.297  0.00  0.00    +0.000 C 
ATOM      7  C   UNL     1     -17.509  44.198 -11.509  0.00  0.00    +0.000 C 
ATOM      8  C   UNL     1     -18.471  44.759 -13.716  0.00  0.00    +0.000 C 
ENDROOT
BRANCH   8  11
ATOM      9  N   UNL     1     -20.523  42.689 -16.077  0.00  0.00    +0.000 NA
ATOM     10  N   UNL     1     -21.066  43.005 -18.375  0.00  0.00    +0.000 N 
ATOM     11  C   UNL     1     -19.142  44.320 -14.946  0.00  0.00    +0.000 A 
ATOM     12  C   UNL     1     -19.054  45.067 -16.116  0.00  0.00    +0.000 A 
ATOM     13  C   UNL     1     -19.882  43.149 -14.979  0.00  0.00    +0.000 A 
ATOM     14  C   UNL     1     -19.699  44.626 -17.265  0.00  0.00    +0.000 A 
ATOM     15  C   UNL     1     -20.414  43.441 -17.194  0.00  0.00    +0.000 A 
ATOM     16  H   UNL     1     -21.361  43.702 -19.048  0.00  0.00    +0.000 HD
ATOM     17  H   UNL     1     -21.593  42.142 -18.316  0.00  0.00    +0.000 HD
ENDBRANCH   8  11
BRANCH   3  21
ATOM     18  F   UNL     1     -18.971  39.873 -12.979  0.00  0.00    +0.000 F 
ATOM     19  F   UNL     1     -16.925  39.356 -13.542  0.00  0.00    +0.000 F 
ATOM     20  F   UNL     1     -17.478  39.488 -11.433  0.00  0.00    +0.000 F 
ATOM     21  C   UNL     1     -17.678  40.018 -12.650  0.00  0.00    +0.000 C 
ENDBRANCH   3  21
TORSDOF 2
ENDMDL
MODEL 3
REMARK VINA RESULT:    -5.645      5.265      7.284
REMARK INTER + INTRA:          -6.655
REMARK INTER:                  -6.607
REMARK INTRA:                  -0.048
REMARK UNBOUND:                -0.350
REMARK  Name = 65531133
REMARK  2 active torsions:
REMARK  status: ('A' for Active; 'I' for Inactive)
REMARK    1  A    between atoms: C_8  and  C_13
REMARK    2  A    between atoms: C_14  and  C_15
REMARK                            x       y       z     vdW  Elec       q    Type
REMARK                         _______ _______ _______ _____ _____    ______ ____
ROOT
ATOM      1  O   UNL     1     -17.458  45.160 -13.308  0.00  0.00    +0.000 OA
ATOM      2  N   UNL     1     -18.631  44.703 -15.279  0.00  0.00    +0.000 N 
ATOM      3  C   UNL     1     -20.738  44.330 -16.508  0.00  0.00    +0.000 C 
ATOM      4  C   UNL     1     -20.610  45.742 -17.105  0.00  0.00    +0.000 C 
ATOM      5  C   UNL     1     -19.351  43.772 -16.157  0.00  0.00    +0.000 C 
ATOM      6  C   UNL     1     -19.806  46.661 -16.184  0.00  0.00    +0.000 C 
ATOM      7  C   UNL     1     -18.455  46.047 -15.827  0.00  0.00    +0.000 C 
ATOM      8  C   UNL     1     -18.092  44.391 -14.028  0.00  0.00    +0.000 C 
ENDROOT
BRANCH   8  11
ATOM      9  N   UNL     1     -19.836  41.297 -12.821  0.00  0.00    +0.000 NA
ATOM     10  N   UNL     1     -18.979  39.221 -12.026  0.00  0.00    +0.000 N 
ATOM     11  C   UNL     1     -18.300  43.035 -13.503  0.00  0.00    +0.000 A 
ATOM     12  C   UNL     1     -17.222  42.213 -13.194  0.00  0.00    +0.000 A 
ATOM     13  C   UNL     1     -19.576  42.534 -13.300  0.00  0.00    +0.000 A 
ATOM     14  C   UNL     1     -17.449  40.934 -12.699  0.00  0.00    +0.000 A 
ATOM     15  C   UNL     1     -18.763  40.527 -12.532  0.00  0.00    +0.000 A 
ATOM     16  H   UNL     1     -18.278  38.513 -12.207  0.00  0.00    +0.000 HD
ATOM     17  H   UNL     1     -19.941  38.926 -11.911  0.00  0.00    +0.000 HD
ENDBRANCH   8  11
BRANCH   3  21
ATOM     18  F   UNL     1     -21.599  43.987 -18.670  0.00  0.00    +0.000 F 
ATOM     19  F   UNL     1     -20.782  42.256 -17.618  0.00  0.00    +0.000 F 
ATOM     20  F   UNL     1     -22.691  43.114 -16.993  0.00  0.00    +0.000 F 
ATOM     21  C   UNL     1     -21.470  43.399 -17.470  0.00  0.00    +0.000 C 
ENDBRANCH   3  21
TORSDOF 2
ENDMDL
MODEL 4
REMARK VINA RESULT:    -5.589     14.425     15.533
REMARK INTER + INTRA:          -6.592
REMARK INTER:                  -6.276
REMARK INTRA:                  -0.316
REMARK UNBOUND:                -0.350
REMARK  Name = 65531133
REMARK  2 active torsions:
REMARK  status: ('A' for Active; 'I' for Inactive)
REMARK    1  A    between atoms: C_8  and  C_13
REMARK    2  A    between atoms: C_14  and  C_15
REMARK                            x       y       z     vdW  Elec       q    Type
REMARK                         _______ _______ _______ _____ _____    ______ ____
ROOT
ATOM      1  O   UNL     1     -29.712  45.510 -17.102  0.00  0.00    +0.000 OA
ATOM      2  N   UNL     1     -31.513  44.950 -15.719  0.00  0.00    +0.000 N 
ATOM      3  C   UNL     1     -32.550  43.544 -13.977  0.00  0.00    +0.000 C 
ATOM      4  C   UNL     1     -32.339  44.685 -12.966  0.00  0.00    +0.000 C 
ATOM      5  C   UNL     1     -32.673  44.109 -15.399  0.00  0.00    +0.000 C 
ATOM      6  C   UNL     1     -31.157  45.567 -13.368  0.00  0.00    +0.000 C 
ATOM      7  C   UNL     1     -31.300  46.070 -14.802  0.00  0.00    +0.000 C 
ATOM      8  C   UNL     1     -30.662  44.783 -16.814  0.00  0.00    +0.000 C 
ENDROOT
BRANCH   8  11
ATOM      9  N   UNL     1     -31.685  42.810 -19.835  0.00  0.00    +0.000 NA
ATOM     10  N   UNL     1     -31.597  40.472 -20.287  0.00  0.00    +0.000 N 
ATOM     11  C   UNL     1     -30.898  43.641 -17.706  0.00  0.00    +0.000 A 
ATOM     12  C   UNL     1     -30.580  42.346 -17.310  0.00  0.00    +0.000 A 
ATOM     13  C   UNL     1     -31.443  43.817 -18.967  0.00  0.00    +0.000 A 
ATOM     14  C   UNL     1     -30.815  41.283 -18.175  0.00  0.00    +0.000 A 
ATOM     15  C   UNL     1     -31.364  41.565 -19.416  0.00  0.00    +0.000 A 
ATOM     16  H   UNL     1     -31.008  39.653 -20.200  0.00  0.00    +0.000 HD
ATOM     17  H   UNL     1     -31.993  40.684 -21.195  0.00  0.00    +0.000 HD
ENDBRANCH   8  11
BRANCH   3  21
ATOM     18  F   UNL     1     -34.148  41.955 -14.654  0.00  0.00    +0.000 F 
ATOM     19  F   UNL     1     -33.508  41.923 -12.566  0.00  0.00    +0.000 F 
ATOM     20  F   UNL     1     -34.799  43.530 -13.288  0.00  0.00    +0.000 F 
ATOM     21  C   UNL     1     -33.781  42.718 -13.612  0.00  0.00    +0.000 C 
ENDBRANCH   3  21
TORSDOF 2
ENDMDL
MODEL 5
REMARK VINA RESULT:    -5.529      3.271      5.819
REMARK INTER + INTRA:          -6.525
REMARK INTER:                  -6.533
REMARK INTRA:                   0.008
REMARK UNBOUND:                -0.350
REMARK  Name = 65531133
REMARK  2 active torsions:
REMARK  status: ('A' for Active; 'I' for Inactive)
REMARK    1  A    between atoms: C_8  and  C_13
REMARK    2  A    between atoms: C_14  and  C_15
REMARK                            x       y       z     vdW  Elec       q    Type
REMARK                         _______ _______ _______ _____ _____    ______ ____
ROOT
ATOM      1  O   UNL     1     -19.193  41.961 -14.660  0.00  0.00    +0.000 OA
ATOM      2  N   UNL     1     -18.975  44.146 -13.855  0.00  0.00    +0.000 N 
ATOM      3  C   UNL     1     -17.599  46.032 -13.057  0.00  0.00    +0.000 C 
ATOM      4  C   UNL     1     -17.809  46.727 -14.413  0.00  0.00    +0.000 C 
ATOM      5  C   UNL     1     -18.774  45.093 -12.751  0.00  0.00    +0.000 C 
ATOM      6  C   UNL     1     -18.070  45.707 -15.522  0.00  0.00    +0.000 C 
ATOM      7  C   UNL     1     -19.216  44.768 -15.157  0.00  0.00    +0.000 C 
ATOM      8  C   UNL     1     -18.989  42.754 -13.742  0.00  0.00    +0.000 C 
ENDROOT
BRANCH   8  11
ATOM      9  N   UNL     1     -19.395  40.627 -10.679  0.00  0.00    +0.000 NA
ATOM     10  N   UNL     1     -18.073  40.447  -8.705  0.00  0.00    +0.000 N 
ATOM     11  C   UNL     1     -18.729  42.164 -12.422  0.00  0.00    +0.000 A 
ATOM     12  C   UNL     1     -17.624  42.547 -11.671  0.00  0.00    +0.000 A 
ATOM     13  C   UNL     1     -19.577  41.208 -11.886  0.00  0.00    +0.000 A 
ATOM     14  C   UNL     1     -17.403  41.972 -10.425  0.00  0.00    +0.000 A 
ATOM     15  C   UNL     1     -18.310  41.025  -9.978  0.00  0.00    +0.000 A 
ATOM     16  H   UNL     1     -17.117  40.388  -8.375  0.00  0.00    +0.000 HD
ATOM     17  H   UNL     1     -18.735  39.751  -8.386  0.00  0.00    +0.000 HD
ENDBRANCH   8  11
BRANCH   3  21
ATOM     18  F   UNL     1     -16.160  47.032 -11.487  0.00  0.00    +0.000 F 
ATOM     19  F   UNL     1     -17.689  48.292 -12.406  0.00  0.00    +0.000 F 
ATOM     20  F   UNL     1     -18.257  46.787 -10.929  0.00  0.00    +0.000 F 
ATOM     21  C   UNL     1     -17.422  47.061 -11.943  0.00  0.00    +0.000 C 
ENDBRANCH   3  21
TORSDOF 2
ENDMDL
