MODEL 1
REMARK VINA RESULT:    -6.354      0.000      0.000
REMARK INTER + INTRA:          -8.121
REMARK INTER:                  -7.839
REMARK INTRA:                  -0.281
REMARK UNBOUND:                -0.281
REMARK  Name = 65532866
REMARK  6 active torsions:
REMARK  status: ('A' for Active; 'I' for Inactive)
REMARK    1  A    between atoms: N_5  and  C_8
REMARK    2  A    between atoms: N_5  and  C_12
REMARK    3  A    between atoms: N_7  and  C_18
REMARK    4  A    between atoms: C_8  and  C_9
REMARK    5  A    between atoms: C_9  and  C_11
REMARK    6  A    between atoms: C_10  and  C_13
REMARK                            x       y       z     vdW  Elec       q    Type
REMARK                         _______ _______ _______ _____ _____    ______ ____
ROOT
ATOM      1  O   UNL     1     -19.332  39.918 -11.109  0.00  0.00    +0.000 OA
ATOM      2  N   UNL     1     -19.095  41.183  -9.131  0.00  0.00    +0.000 N 
ATOM      3  C   UNL     1     -18.862  40.872 -10.490  0.00  0.00    +0.000 C 
ATOM      4  C   UNL     1     -18.482  42.351  -8.490  0.00  0.00    +0.000 C 
ENDROOT
BRANCH   3   7
ATOM      5  N   UNL     1     -15.713  42.334 -11.915  0.00  0.00    +0.000 NA
ATOM      6  N   UNL     1     -15.359  44.208 -13.345  0.00  0.00    +0.000 N 
ATOM      7  C   UNL     1     -17.963  41.759 -11.246  0.00  0.00    +0.000 A 
ATOM      8  C   UNL     1     -18.464  42.826 -11.984  0.00  0.00    +0.000 A 
ATOM      9  C   UNL     1     -16.593  41.558 -11.244  0.00  0.00    +0.000 A 
ATOM     10  C   UNL     1     -17.590  43.647 -12.689  0.00  0.00    +0.000 A 
ATOM     11  C   UNL     1     -16.236  43.362 -12.623  0.00  0.00    +0.000 A 
ATOM     12  C   UNL     1     -15.819  45.314 -14.118  0.00  0.00    +0.000 C 
ATOM     13  H   UNL     1     -14.370  43.995 -13.294  0.00  0.00    +0.000 HD
ENDBRANCH   3   7
BRANCH   2  14
ATOM     14  C   UNL     1     -19.947  40.371  -8.306  0.00  0.00    +0.000 C 
BRANCH  14  15
ATOM     15  C   UNL     1     -21.384  40.878  -8.273  0.00  0.00    +0.000 C 
BRANCH  15  19
ATOM     16  F   UNL     1     -22.002  42.916  -7.236  0.00  0.00    +0.000 F 
ATOM     17  F   UNL     1     -22.823  41.069  -6.418  0.00  0.00    +0.000 F 
ATOM     18  F   UNL     1     -20.725  41.560  -6.096  0.00  0.00    +0.000 F 
ATOM     19  C   UNL     1     -21.729  41.616  -6.994  0.00  0.00    +0.000 C 
ENDBRANCH  15  19
ENDBRANCH  14  15
ENDBRANCH   2  14
TORSDOF 4
ENDMDL
MODEL 2
REMARK VINA RESULT:    -6.154      1.895      2.492
REMARK INTER + INTRA:          -7.875
REMARK INTER:                  -7.609
REMARK INTRA:                  -0.266
REMARK UNBOUND:                -0.281
REMARK  Name = 65532866
REMARK  6 active torsions:
REMARK  status: ('A' for Active; 'I' for Inactive)
REMARK    1  A    between atoms: N_5  and  C_8
REMARK    2  A    between atoms: N_5  and  C_12
REMARK    3  A    between atoms: N_7  and  C_18
REMARK    4  A    between atoms: C_8  and  C_9
REMARK    5  A    between atoms: C_9  and  C_11
REMARK    6  A    between atoms: C_10  and  C_13
REMARK                            x       y       z     vdW  Elec       q    Type
REMARK                         _______ _______ _______ _____ _____    ______ ____
ROOT
ATOM      1  O   UNL     1     -17.777  42.955  -9.713  0.00  0.00    +0.000 OA
ATOM      2  N   UNL     1     -17.769  41.035 -11.085  0.00  0.00    +0.000 N 
ATOM      3  C   UNL     1     -17.560  42.401 -10.790  0.00  0.00    +0.000 C 
ATOM      4  C   UNL     1     -17.474  40.477 -12.409  0.00  0.00    +0.000 C 
ENDROOT
BRANCH   3   7
ATOM      5  N   UNL     1     -15.141  44.125 -13.085  0.00  0.00    +0.000 NA
ATOM      6  N   UNL     1     -15.495  45.645 -14.885  0.00  0.00    +0.000 N 
ATOM      7  C   UNL     1     -17.042  43.258 -11.870  0.00  0.00    +0.000 A 
ATOM      8  C   UNL     1     -17.903  43.992 -12.677  0.00  0.00    +0.000 A 
ATOM      9  C   UNL     1     -15.681  43.358 -12.112  0.00  0.00    +0.000 A 
ATOM     10  C   UNL     1     -17.384  44.793 -13.689  0.00  0.00    +0.000 A 
ATOM     11  C   UNL     1     -16.008  44.824 -13.851  0.00  0.00    +0.000 A 
ATOM     12  C   UNL     1     -16.334  46.418 -15.742  0.00  0.00    +0.000 C 
ATOM     13  H   UNL     1     -14.490  45.664 -15.000  0.00  0.00    +0.000 HD
ENDBRANCH   3   7
BRANCH   2  14
ATOM     14  C   UNL     1     -18.284  40.121 -10.103  0.00  0.00    +0.000 C 
BRANCH  14  15
ATOM     15  C   UNL     1     -19.807  40.092 -10.073  0.00  0.00    +0.000 C 
BRANCH  15  19
ATOM     16  F   UNL     1     -20.721  41.623  -8.513  0.00  0.00    +0.000 F 
ATOM     17  F   UNL     1     -21.500  39.587  -8.515  0.00  0.00    +0.000 F 
ATOM     18  F   UNL     1     -19.512  39.987  -7.719  0.00  0.00    +0.000 F 
ATOM     19  C   UNL     1     -20.384  40.328  -8.690  0.00  0.00    +0.000 C 
ENDBRANCH  15  19
ENDBRANCH  14  15
ENDBRANCH   2  14
TORSDOF 4
ENDMDL
MODEL 3
REMARK VINA RESULT:    -5.842      1.999      2.850
REMARK INTER + INTRA:          -7.490
REMARK INTER:                  -7.208
REMARK INTRA:                  -0.282
REMARK UNBOUND:                -0.281
REMARK  Name = 65532866
REMARK  6 active torsions:
REMARK  status: ('A' for Active; 'I' for Inactive)
REMARK    1  A    between atoms: N_5  and  C_8
REMARK    2  A    between atoms: N_5  and  C_12
REMARK    3  A    between atoms: N_7  and  C_18
REMARK    4  A    between atoms: C_8  and  C_9
REMARK    5  A    between atoms: C_9  and  C_11
REMARK    6  A    between atoms: C_10  and  C_13
REMARK                            x       y       z     vdW  Elec       q    Type
REMARK                         _______ _______ _______ _____ _____    ______ ____
ROOT
ATOM      1  O   UNL     1     -17.725  40.623 -13.075  0.00  0.00    +0.000 OA
ATOM      2  N   UNL     1     -17.891  41.536 -10.905  0.00  0.00    +0.000 N 
ATOM      3  C   UNL     1     -17.698  41.582 -12.305  0.00  0.00    +0.000 C 
ATOM      4  C   UNL     1     -17.840  42.746 -10.078  0.00  0.00    +0.000 C 
ENDROOT
BRANCH   3   7
ATOM      5  N   UNL     1     -18.280  44.901 -13.958  0.00  0.00    +0.000 NA
ATOM      6  N   UNL     1     -16.760  46.609 -14.631  0.00  0.00    +0.000 N 
ATOM      7  C   UNL     1     -17.428  42.897 -12.911  0.00  0.00    +0.000 A 
ATOM      8  C   UNL     1     -16.130  43.383 -13.017  0.00  0.00    +0.000 A 
ATOM      9  C   UNL     1     -18.459  43.687 -13.392  0.00  0.00    +0.000 A 
ATOM     10  C   UNL     1     -15.906  44.629 -13.594  0.00  0.00    +0.000 A 
ATOM     11  C   UNL     1     -17.005  45.342 -14.045  0.00  0.00    +0.000 A 
ATOM     12  C   UNL     1     -15.450  47.155 -14.765  0.00  0.00    +0.000 C 
ATOM     13  H   UNL     1     -17.566  47.126 -14.959  0.00  0.00    +0.000 HD
ENDBRANCH   3   7
BRANCH   2  14
ATOM     14  C   UNL     1     -18.148  40.300 -10.220  0.00  0.00    +0.000 C 
BRANCH  14  15
ATOM     15  C   UNL     1     -19.627  39.933 -10.212  0.00  0.00    +0.000 C 
BRANCH  15  19
ATOM     16  F   UNL     1     -19.424  39.889  -7.852  0.00  0.00    +0.000 F 
ATOM     17  F   UNL     1     -20.716  41.409  -8.734  0.00  0.00    +0.000 F 
ATOM     18  F   UNL     1     -21.356  39.327  -8.701  0.00  0.00    +0.000 F 
ATOM     19  C   UNL     1     -20.287  40.133  -8.861  0.00  0.00    +0.000 C 
ENDBRANCH  15  19
ENDBRANCH  14  15
ENDBRANCH   2  14
TORSDOF 4
ENDMDL
MODEL 4
REMARK VINA RESULT:    -5.493      3.082      4.140
REMARK INTER + INTRA:          -7.058
REMARK INTER:                  -6.614
REMARK INTRA:                  -0.445
REMARK UNBOUND:                -0.281
REMARK  Name = 65532866
REMARK  6 active torsions:
REMARK  status: ('A' for Active; 'I' for Inactive)
REMARK    1  A    between atoms: N_5  and  C_8
REMARK    2  A    between atoms: N_5  and  C_12
REMARK    3  A    between atoms: N_7  and  C_18
REMARK    4  A    between atoms: C_8  and  C_9
REMARK    5  A    between atoms: C_9  and  C_11
REMARK    6  A    between atoms: C_10  and  C_13
REMARK                            x       y       z     vdW  Elec       q    Type
REMARK                         _______ _______ _______ _____ _____    ______ ____
ROOT
ATOM      1  O   UNL     1     -15.869  41.971 -11.554  0.00  0.00    +0.000 OA
ATOM      2  N   UNL     1     -17.715  41.636 -12.986  0.00  0.00    +0.000 N 
ATOM      3  C   UNL     1     -16.752  42.404 -12.293  0.00  0.00    +0.000 C 
ATOM      4  C   UNL     1     -18.726  42.258 -13.846  0.00  0.00    +0.000 C 
ENDROOT
BRANCH   3   7
ATOM      5  N   UNL     1     -16.041  45.846 -13.613  0.00  0.00    +0.000 NA
ATOM      6  N   UNL     1     -16.894  47.978 -12.978  0.00  0.00    +0.000 N 
ATOM      7  C   UNL     1     -16.806  43.867 -12.454  0.00  0.00    +0.000 A 
ATOM      8  C   UNL     1     -17.629  44.646 -11.649  0.00  0.00    +0.000 A 
ATOM      9  C   UNL     1     -16.038  44.509 -13.412  0.00  0.00    +0.000 A 
ATOM     10  C   UNL     1     -17.659  46.025 -11.826  0.00  0.00    +0.000 A 
ATOM     11  C   UNL     1     -16.853  46.572 -12.812  0.00  0.00    +0.000 A 
ATOM     12  C   UNL     1     -17.720  48.824 -12.180  0.00  0.00    +0.000 C 
ATOM     13  H   UNL     1     -16.305  48.372 -13.701  0.00  0.00    +0.000 HD
ENDBRANCH   3   7
BRANCH   2  14
ATOM     14  C   UNL     1     -17.752  40.203 -12.883  0.00  0.00    +0.000 C 
BRANCH  14  15
ATOM     15  C   UNL     1     -18.998  39.702 -12.161  0.00  0.00    +0.000 C 
BRANCH  15  19
ATOM     16  F   UNL     1     -19.488  41.380 -10.563  0.00  0.00    +0.000 F 
ATOM     17  F   UNL     1     -19.898  39.308 -10.020  0.00  0.00    +0.000 F 
ATOM     18  F   UNL     1     -17.841  40.019 -10.112  0.00  0.00    +0.000 F 
ATOM     19  C   UNL     1     -19.050  40.110 -10.702  0.00  0.00    +0.000 C 
ENDBRANCH  15  19
ENDBRANCH  14  15
ENDBRANCH   2  14
TORSDOF 4
ENDMDL
MODEL 5
REMARK VINA RESULT:    -5.262      2.601      3.390
REMARK INTER + INTRA:          -6.774
REMARK INTER:                  -6.934
REMARK INTRA:                   0.160
REMARK UNBOUND:                -0.281
REMARK  Name = 65532866
REMARK  6 active torsions:
REMARK  status: ('A' for Active; 'I' for Inactive)
REMARK    1  A    between atoms: N_5  and  C_8
REMARK    2  A    between atoms: N_5  and  C_12
REMARK    3  A    between atoms: N_7  and  C_18
REMARK    4  A    between atoms: C_8  and  C_9
REMARK    5  A    between atoms: C_9  and  C_11
REMARK    6  A    between atoms: C_10  and  C_13
REMARK                            x       y       z     vdW  Elec       q    Type
REMARK                         _______ _______ _______ _____ _____    ______ ____
ROOT
ATOM      1  O   UNL     1     -19.963  41.062 -12.185  0.00  0.00    +0.000 OA
ATOM      2  N   UNL     1     -17.772  41.483 -11.417  0.00  0.00    +0.000 N 
ATOM      3  C   UNL     1     -18.924  41.720 -12.201  0.00  0.00    +0.000 C 
ATOM      4  C   UNL     1     -16.583  42.335 -11.515  0.00  0.00    +0.000 C 
ENDROOT
BRANCH   3   7
ATOM      5  N   UNL     1     -18.407  45.191 -13.533  0.00  0.00    +0.000 NA
ATOM      6  N   UNL     1     -18.750  46.106 -15.706  0.00  0.00    +0.000 N 
ATOM      7  C   UNL     1     -18.887  42.856 -13.138  0.00  0.00    +0.000 A 
ATOM      8  C   UNL     1     -19.274  42.702 -14.464  0.00  0.00    +0.000 A 
ATOM      9  C   UNL     1     -18.465  44.109 -12.725  0.00  0.00    +0.000 A 
ATOM     10  C   UNL     1     -19.228  43.793 -15.326  0.00  0.00    +0.000 A 
ATOM     11  C   UNL     1     -18.791  45.005 -14.816  0.00  0.00    +0.000 A 
ATOM     12  C   UNL     1     -19.135  46.005 -17.075  0.00  0.00    +0.000 C 
ATOM     13  H   UNL     1     -18.429  46.990 -15.329  0.00  0.00    +0.000 HD
ENDBRANCH   3   7
BRANCH   2  14
ATOM     14  C   UNL     1     -17.707  40.392 -10.484  0.00  0.00    +0.000 C 
BRANCH  14  15
ATOM     15  C   UNL     1     -18.083  40.813  -9.068  0.00  0.00    +0.000 C 
BRANCH  15  19
ATOM     16  F   UNL     1     -19.592  40.038  -7.414  0.00  0.00    +0.000 F 
ATOM     17  F   UNL     1     -20.314  41.532  -8.830  0.00  0.00    +0.000 F 
ATOM     18  F   UNL     1     -20.002  39.478  -9.485  0.00  0.00    +0.000 F 
ATOM     19  C   UNL     1     -19.509  40.454  -8.696  0.00  0.00    +0.000 C 
ENDBRANCH  15  19
ENDBRANCH  14  15
ENDBRANCH   2  14
TORSDOF 4
ENDMDL
