MODEL 1
REMARK VINA RESULT:    -6.894      0.000      0.000
REMARK INTER + INTRA:          -8.684
REMARK INTER:                  -8.707
REMARK INTRA:                   0.024
REMARK UNBOUND:                 0.024
REMARK  Name = 65531901
REMARK  6 active torsions:
REMARK  status: ('A' for Active; 'I' for Inactive)
REMARK    1  A    between atoms: N_5  and  C_8
REMARK    2  A    between atoms: N_5  and  C_12
REMARK    3  A    between atoms: N_7  and  C_14
REMARK    4  A    between atoms: C_8  and  C_9
REMARK    5  A    between atoms: C_9  and  C_11
REMARK    6  A    between atoms: C_10  and  C_13
REMARK                            x       y       z     vdW  Elec       q    Type
REMARK                         _______ _______ _______ _____ _____    ______ ____
ROOT
ATOM      1  O   UNL     1     -19.958  39.343  -9.473  0.00  0.00    +0.000 OA
ATOM      2  N   UNL     1     -18.991  41.415  -8.893  0.00  0.00    +0.000 N 
ATOM      3  C   UNL     1     -19.179  40.269  -9.697  0.00  0.00    +0.000 C 
ATOM      4  C   UNL     1     -18.030  42.463  -9.254  0.00  0.00    +0.000 C 
ENDROOT
BRANCH   3   6
ATOM      5  N   UNL     1     -18.166  40.194 -13.326  0.00  0.00    +0.000 NA
ATOM      6  C   UNL     1     -18.363  40.151 -10.915  0.00  0.00    +0.000 A 
ATOM      7  C   UNL     1     -18.891  40.300 -12.189  0.00  0.00    +0.000 A 
ATOM      8  C   UNL     1     -17.004  39.878 -10.802  0.00  0.00    +0.000 A 
ATOM      9  C   UNL     1     -16.226  39.762 -11.949  0.00  0.00    +0.000 A 
ATOM     10  C   UNL     1     -16.850  39.927 -13.175  0.00  0.00    +0.000 A 
BRANCH   7  11
ATOM     11  N   UNL     1     -20.275  40.576 -12.312  0.00  0.00    +0.000 N 
ATOM     12  H   UNL     1     -20.581  41.541 -12.278  0.00  0.00    +0.000 HD
ATOM     13  H   UNL     1     -20.910  39.869 -11.962  0.00  0.00    +0.000 HD
ENDBRANCH   7  11
ENDBRANCH   3   6
BRANCH   2  14
ATOM     14  C   UNL     1     -19.732  41.616  -7.678  0.00  0.00    +0.000 C 
BRANCH  14  15
ATOM     15  C   UNL     1     -21.240  41.568  -7.900  0.00  0.00    +0.000 C 
BRANCH  15  19
ATOM     16  F   UNL     1     -23.070  41.087  -6.465  0.00  0.00    +0.000 F 
ATOM     17  F   UNL     1     -21.265  41.917  -5.558  0.00  0.00    +0.000 F 
ATOM     18  F   UNL     1     -22.551  43.178  -6.785  0.00  0.00    +0.000 F 
ATOM     19  C   UNL     1     -22.038  41.933  -6.663  0.00  0.00    +0.000 C 
ENDBRANCH  15  19
ENDBRANCH  14  15
ENDBRANCH   2  14
TORSDOF 5
ENDMDL
MODEL 2
REMARK VINA RESULT:    -6.679      1.767      2.535
REMARK INTER + INTRA:          -8.412
REMARK INTER:                  -8.178
REMARK INTRA:                  -0.234
REMARK UNBOUND:                 0.024
REMARK  Name = 65531901
REMARK  6 active torsions:
REMARK  status: ('A' for Active; 'I' for Inactive)
REMARK    1  A    between atoms: N_5  and  C_8
REMARK    2  A    between atoms: N_5  and  C_12
REMARK    3  A    between atoms: N_7  and  C_14
REMARK    4  A    between atoms: C_8  and  C_9
REMARK    5  A    between atoms: C_9  and  C_11
REMARK    6  A    between atoms: C_10  and  C_13
REMARK                            x       y       z     vdW  Elec       q    Type
REMARK                         _______ _______ _______ _____ _____    ______ ____
ROOT
ATOM      1  O   UNL     1     -17.797  42.745  -9.003  0.00  0.00    +0.000 OA
ATOM      2  N   UNL     1     -19.264  40.902  -8.872  0.00  0.00    +0.000 N 
ATOM      3  C   UNL     1     -18.426  41.829  -9.531  0.00  0.00    +0.000 C 
ATOM      4  C   UNL     1     -19.971  39.844  -9.603  0.00  0.00    +0.000 C 
ENDROOT
BRANCH   3   6
ATOM      5  N   UNL     1     -17.035  41.001 -12.934  0.00  0.00    +0.000 NA
ATOM      6  C   UNL     1     -18.292  41.705 -10.991  0.00  0.00    +0.000 A 
ATOM      7  C   UNL     1     -17.187  41.125 -11.597  0.00  0.00    +0.000 A 
ATOM      8  C   UNL     1     -19.304  42.188 -11.812  0.00  0.00    +0.000 A 
ATOM      9  C   UNL     1     -19.184  42.078 -13.193  0.00  0.00    +0.000 A 
ATOM     10  C   UNL     1     -18.040  41.483 -13.700  0.00  0.00    +0.000 A 
BRANCH   7  11
ATOM     11  N   UNL     1     -16.149  40.633 -10.766  0.00  0.00    +0.000 N 
ATOM     12  H   UNL     1     -15.250  40.430 -11.185  0.00  0.00    +0.000 HD
ATOM     13  H   UNL     1     -16.434  40.075  -9.970  0.00  0.00    +0.000 HD
ENDBRANCH   7  11
ENDBRANCH   3   6
BRANCH   2  14
ATOM     14  C   UNL     1     -19.469  40.947  -7.451  0.00  0.00    +0.000 C 
BRANCH  14  15
ATOM     15  C   UNL     1     -20.148  42.235  -6.999  0.00  0.00    +0.000 C 
BRANCH  15  19
ATOM     16  F   UNL     1     -22.275  43.285  -6.894  0.00  0.00    +0.000 F 
ATOM     17  F   UNL     1     -22.176  41.288  -7.772  0.00  0.00    +0.000 F 
ATOM     18  F   UNL     1     -21.933  41.550  -5.622  0.00  0.00    +0.000 F 
ATOM     19  C   UNL     1     -21.648  42.093  -6.827  0.00  0.00    +0.000 C 
ENDBRANCH  15  19
ENDBRANCH  14  15
ENDBRANCH   2  14
TORSDOF 5
ENDMDL
MODEL 3
REMARK VINA RESULT:    -6.227      3.366      4.109
REMARK INTER + INTRA:          -7.842
REMARK INTER:                  -7.363
REMARK INTRA:                  -0.479
REMARK UNBOUND:                 0.024
REMARK  Name = 65531901
REMARK  6 active torsions:
REMARK  status: ('A' for Active; 'I' for Inactive)
REMARK    1  A    between atoms: N_5  and  C_8
REMARK    2  A    between atoms: N_5  and  C_12
REMARK    3  A    between atoms: N_7  and  C_14
REMARK    4  A    between atoms: C_8  and  C_9
REMARK    5  A    between atoms: C_9  and  C_11
REMARK    6  A    between atoms: C_10  and  C_13
REMARK                            x       y       z     vdW  Elec       q    Type
REMARK                         _______ _______ _______ _____ _____    ______ ____
ROOT
ATOM      1  O   UNL     1     -17.765  42.835  -9.577  0.00  0.00    +0.000 OA
ATOM      2  N   UNL     1     -17.811  40.999 -11.059  0.00  0.00    +0.000 N 
ATOM      3  C   UNL     1     -17.533  42.331 -10.675  0.00  0.00    +0.000 C 
ATOM      4  C   UNL     1     -17.492  40.499 -12.400  0.00  0.00    +0.000 C 
ENDROOT
BRANCH   3   6
ATOM      5  N   UNL     1     -14.952  44.193 -12.692  0.00  0.00    +0.000 NA
ATOM      6  C   UNL     1     -16.917  43.212 -11.679  0.00  0.00    +0.000 A 
ATOM      7  C   UNL     1     -15.546  43.388 -11.782  0.00  0.00    +0.000 A 
ATOM      8  C   UNL     1     -17.730  43.908 -12.566  0.00  0.00    +0.000 A 
ATOM      9  C   UNL     1     -17.156  44.746 -13.516  0.00  0.00    +0.000 A 
ATOM     10  C   UNL     1     -15.775  44.854 -13.536  0.00  0.00    +0.000 A 
BRANCH   7  11
ATOM     11  N   UNL     1     -14.710  42.683 -10.880  0.00  0.00    +0.000 N 
ATOM     12  H   UNL     1     -14.656  43.003  -9.920  0.00  0.00    +0.000 HD
ATOM     13  H   UNL     1     -13.888  42.242 -11.276  0.00  0.00    +0.000 HD
ENDBRANCH   7  11
ENDBRANCH   3   6
BRANCH   2  14
ATOM     14  C   UNL     1     -18.422  40.065 -10.154  0.00  0.00    +0.000 C 
BRANCH  14  15
ATOM     15  C   UNL     1     -19.938  40.221 -10.089  0.00  0.00    +0.000 C 
BRANCH  15  19
ATOM     16  F   UNL     1     -20.769  41.656  -8.390  0.00  0.00    +0.000 F 
ATOM     17  F   UNL     1     -21.570  39.626  -8.480  0.00  0.00    +0.000 F 
ATOM     18  F   UNL     1     -19.534  39.968  -7.781  0.00  0.00    +0.000 F 
ATOM     19  C   UNL     1     -20.464  40.374  -8.675  0.00  0.00    +0.000 C 
ENDBRANCH  15  19
ENDBRANCH  14  15
ENDBRANCH   2  14
TORSDOF 5
ENDMDL
MODEL 4
REMARK VINA RESULT:    -5.945      3.593      4.468
REMARK INTER + INTRA:          -7.486
REMARK INTER:                  -7.162
REMARK INTRA:                  -0.324
REMARK UNBOUND:                 0.024
REMARK  Name = 65531901
REMARK  6 active torsions:
REMARK  status: ('A' for Active; 'I' for Inactive)
REMARK    1  A    between atoms: N_5  and  C_8
REMARK    2  A    between atoms: N_5  and  C_12
REMARK    3  A    between atoms: N_7  and  C_14
REMARK    4  A    between atoms: C_8  and  C_9
REMARK    5  A    between atoms: C_9  and  C_11
REMARK    6  A    between atoms: C_10  and  C_13
REMARK                            x       y       z     vdW  Elec       q    Type
REMARK                         _______ _______ _______ _____ _____    ______ ____
ROOT
ATOM      1  O   UNL     1     -18.671  42.691 -13.285  0.00  0.00    +0.000 OA
ATOM      2  N   UNL     1     -18.411  42.199 -10.992  0.00  0.00    +0.000 N 
ATOM      3  C   UNL     1     -18.197  42.938 -12.177  0.00  0.00    +0.000 C 
ATOM      4  C   UNL     1     -17.794  42.583  -9.718  0.00  0.00    +0.000 C 
ENDROOT
BRANCH   3   6
ATOM      5  N   UNL     1     -15.126  45.118 -12.314  0.00  0.00    +0.000 NA
ATOM      6  C   UNL     1     -17.315  44.113 -12.094  0.00  0.00    +0.000 A 
ATOM      7  C   UNL     1     -15.961  44.056 -12.384  0.00  0.00    +0.000 A 
ATOM      8  C   UNL     1     -17.847  45.338 -11.709  0.00  0.00    +0.000 A 
ATOM      9  C   UNL     1     -17.020  46.453 -11.625  0.00  0.00    +0.000 A 
ATOM     10  C   UNL     1     -15.679  46.292 -11.935  0.00  0.00    +0.000 A 
BRANCH   7  11
ATOM     11  N   UNL     1     -15.411  42.810 -12.776  0.00  0.00    +0.000 N 
ATOM     12  H   UNL     1     -15.741  42.383 -13.633  0.00  0.00    +0.000 HD
ATOM     13  H   UNL     1     -15.109  42.195 -12.030  0.00  0.00    +0.000 HD
ENDBRANCH   7  11
ENDBRANCH   3   6
BRANCH   2  14
ATOM     14  C   UNL     1     -19.246  41.029 -10.973  0.00  0.00    +0.000 C 
BRANCH  14  15
ATOM     15  C   UNL     1     -18.971  40.135  -9.769  0.00  0.00    +0.000 C 
BRANCH  15  19
ATOM     16  F   UNL     1     -20.961  39.213  -8.861  0.00  0.00    +0.000 F 
ATOM     17  F   UNL     1     -19.538  40.112  -7.470  0.00  0.00    +0.000 F 
ATOM     18  F   UNL     1     -20.720  41.376  -8.794  0.00  0.00    +0.000 F 
ATOM     19  C   UNL     1     -20.056  40.201  -8.713  0.00  0.00    +0.000 C 
ENDBRANCH  15  19
ENDBRANCH  14  15
ENDBRANCH   2  14
TORSDOF 5
ENDMDL
MODEL 5
REMARK VINA RESULT:    -5.839      4.536      5.843
REMARK INTER + INTRA:          -7.351
REMARK INTER:                  -6.866
REMARK INTRA:                  -0.485
REMARK UNBOUND:                 0.024
REMARK  Name = 65531901
REMARK  6 active torsions:
REMARK  status: ('A' for Active; 'I' for Inactive)
REMARK    1  A    between atoms: N_5  and  C_8
REMARK    2  A    between atoms: N_5  and  C_12
REMARK    3  A    between atoms: N_7  and  C_14
REMARK    4  A    between atoms: C_8  and  C_9
REMARK    5  A    between atoms: C_9  and  C_11
REMARK    6  A    between atoms: C_10  and  C_13
REMARK                            x       y       z     vdW  Elec       q    Type
REMARK                         _______ _______ _______ _____ _____    ______ ____
ROOT
ATOM      1  O   UNL     1     -16.481  42.374 -11.130  0.00  0.00    +0.000 OA
ATOM      2  N   UNL     1     -17.989  42.573 -12.933  0.00  0.00    +0.000 N 
ATOM      3  C   UNL     1     -17.068  43.050 -11.973  0.00  0.00    +0.000 C 
ATOM      4  C   UNL     1     -18.635  43.471 -13.896  0.00  0.00    +0.000 C 
ENDROOT
BRANCH   3   6
ATOM      5  N   UNL     1     -15.337  46.355 -12.502  0.00  0.00    +0.000 NA
ATOM      6  C   UNL     1     -16.784  44.494 -11.962  0.00  0.00    +0.000 A 
ATOM      7  C   UNL     1     -15.627  45.034 -12.500  0.00  0.00    +0.000 A 
ATOM      8  C   UNL     1     -17.703  45.365 -11.388  0.00  0.00    +0.000 A 
ATOM      9  C   UNL     1     -17.441  46.730 -11.371  0.00  0.00    +0.000 A 
ATOM     10  C   UNL     1     -16.255  47.171 -11.935  0.00  0.00    +0.000 A 
BRANCH   7  11
ATOM     11  N   UNL     1     -14.684  44.152 -13.085  0.00  0.00    +0.000 N 
ATOM     12  H   UNL     1     -14.923  43.695 -13.956  0.00  0.00    +0.000 HD
ATOM     13  H   UNL     1     -14.072  43.657 -12.447  0.00  0.00    +0.000 HD
ENDBRANCH   7  11
ENDBRANCH   3   6
BRANCH   2  14
ATOM     14  C   UNL     1     -18.340  41.182 -13.016  0.00  0.00    +0.000 C 
BRANCH  14  15
ATOM     15  C   UNL     1     -19.510  40.820 -12.107  0.00  0.00    +0.000 C 
BRANCH  15  19
ATOM     16  F   UNL     1     -17.886  39.625 -10.853  0.00  0.00    +0.000 F 
ATOM     17  F   UNL     1     -19.891  39.799 -10.004  0.00  0.00    +0.000 F 
ATOM     18  F   UNL     1     -19.538  38.497 -11.716  0.00  0.00    +0.000 F 
ATOM     19  C   UNL     1     -19.199  39.680 -11.157  0.00  0.00    +0.000 C 
ENDBRANCH  15  19
ENDBRANCH  14  15
ENDBRANCH   2  14
TORSDOF 5
ENDMDL
