MODEL 1
REMARK VINA RESULT:    -6.073      0.000      0.000
REMARK INTER + INTRA:          -7.498
REMARK INTER:                  -6.961
REMARK INTRA:                  -0.537
REMARK UNBOUND:                -0.537
REMARK  Name = 65532876
REMARK  3 active torsions:
REMARK  status: ('A' for Active; 'I' for Inactive)
REMARK    1  A    between atoms: N_7  and  C_16
REMARK    2  A    between atoms: C_8  and  C_13
REMARK    3  A    between atoms: C_14  and  C_15
REMARK                            x       y       z     vdW  Elec       q    Type
REMARK                         _______ _______ _______ _____ _____    ______ ____
ROOT
ATOM      1  O   UNL     1     -17.101  40.809 -13.803  0.00  0.00    +0.000 OA
ATOM      2  N   UNL     1     -18.456  41.133 -11.925  0.00  0.00    +0.000 N 
ATOM      3  C   UNL     1     -18.901  40.869  -9.513  0.00  0.00    +0.000 C 
ATOM      4  C   UNL     1     -19.909  39.757  -9.845  0.00  0.00    +0.000 C 
ATOM      5  C   UNL     1     -18.783  41.851 -10.686  0.00  0.00    +0.000 C 
ATOM      6  C   UNL     1     -19.562  39.074 -11.170  0.00  0.00    +0.000 C 
ATOM      7  C   UNL     1     -19.413  40.092 -12.298  0.00  0.00    +0.000 C 
ATOM      8  C   UNL     1     -17.359  41.390 -12.751  0.00  0.00    +0.000 C 
ENDROOT
BRANCH   8  10
ATOM      9  N   UNL     1     -14.420  43.111 -11.144  0.00  0.00    +0.000 NA
ATOM     10  C   UNL     1     -16.411  42.433 -12.337  0.00  0.00    +0.000 A 
ATOM     11  C   UNL     1     -15.307  42.170 -11.543  0.00  0.00    +0.000 A 
ATOM     12  C   UNL     1     -16.619  43.745 -12.749  0.00  0.00    +0.000 A 
ATOM     13  C   UNL     1     -15.729  44.740 -12.360  0.00  0.00    +0.000 A 
ATOM     14  C   UNL     1     -14.656  44.374 -11.564  0.00  0.00    +0.000 A 
BRANCH  11  15
ATOM     15  N   UNL     1     -15.090  40.836 -11.115  0.00  0.00    +0.000 N 
ATOM     16  H   UNL     1     -14.959  40.119 -11.816  0.00  0.00    +0.000 HD
ATOM     17  H   UNL     1     -15.523  40.567 -10.241  0.00  0.00    +0.000 HD
ENDBRANCH  11  15
ENDBRANCH   8  10
BRANCH   3  21
ATOM     18  F   UNL     1     -18.993  40.851  -7.162  0.00  0.00    +0.000 F 
ATOM     19  F   UNL     1     -18.647  42.768  -8.147  0.00  0.00    +0.000 F 
ATOM     20  F   UNL     1     -20.621  41.838  -8.232  0.00  0.00    +0.000 F 
ATOM     21  C   UNL     1     -19.299  41.599  -8.233  0.00  0.00    +0.000 C 
ENDBRANCH   3  21
TORSDOF 3
ENDMDL
MODEL 2
REMARK VINA RESULT:    -6.015      4.133      5.863
REMARK INTER + INTRA:          -7.431
REMARK INTER:                  -7.012
REMARK INTRA:                  -0.420
REMARK UNBOUND:                -0.537
REMARK  Name = 65532876
REMARK  3 active torsions:
REMARK  status: ('A' for Active; 'I' for Inactive)
REMARK    1  A    between atoms: N_7  and  C_16
REMARK    2  A    between atoms: C_8  and  C_13
REMARK    3  A    between atoms: C_14  and  C_15
REMARK                            x       y       z     vdW  Elec       q    Type
REMARK                         _______ _______ _______ _____ _____    ______ ____
ROOT
ATOM      1  O   UNL     1     -16.194  44.218 -11.678  0.00  0.00    +0.000 OA
ATOM      2  N   UNL     1     -18.053  44.378 -13.088  0.00  0.00    +0.000 N 
ATOM      3  C   UNL     1     -19.157  43.980 -15.258  0.00  0.00    +0.000 C 
ATOM      4  C   UNL     1     -18.979  45.469 -15.594  0.00  0.00    +0.000 C 
ATOM      5  C   UNL     1     -19.227  43.780 -13.738  0.00  0.00    +0.000 C 
ATOM      6  C   UNL     1     -17.780  46.064 -14.853  0.00  0.00    +0.000 C 
ATOM      7  C   UNL     1     -17.870  45.805 -13.351  0.00  0.00    +0.000 C 
ATOM      8  C   UNL     1     -17.160  43.711 -12.246  0.00  0.00    +0.000 C 
ENDROOT
BRANCH   8  10
ATOM      9  N   UNL     1     -17.846  40.432 -10.527  0.00  0.00    +0.000 NA
ATOM     10  C   UNL     1     -17.366  42.275 -12.017  0.00  0.00    +0.000 A 
ATOM     11  C   UNL     1     -17.654  41.748 -10.768  0.00  0.00    +0.000 A 
ATOM     12  C   UNL     1     -17.269  41.393 -13.088  0.00  0.00    +0.000 A 
ATOM     13  C   UNL     1     -17.460  40.032 -12.880  0.00  0.00    +0.000 A 
ATOM     14  C   UNL     1     -17.742  39.606 -11.593  0.00  0.00    +0.000 A 
BRANCH  11  15
ATOM     15  N   UNL     1     -17.752  42.640  -9.670  0.00  0.00    +0.000 N 
ATOM     16  H   UNL     1     -18.651  42.760  -9.222  0.00  0.00    +0.000 HD
ATOM     17  H   UNL     1     -17.118  43.430  -9.673  0.00  0.00    +0.000 HD
ENDBRANCH  11  15
ENDBRANCH   8  10
BRANCH   3  21
ATOM     18  F   UNL     1     -20.053  42.482 -16.836  0.00  0.00    +0.000 F 
ATOM     19  F   UNL     1     -21.211  42.856 -15.024  0.00  0.00    +0.000 F 
ATOM     20  F   UNL     1     -21.069  44.396 -16.565  0.00  0.00    +0.000 F 
ATOM     21  C   UNL     1     -20.402  43.415 -15.937  0.00  0.00    +0.000 C 
ENDBRANCH   3  21
TORSDOF 3
ENDMDL
MODEL 3
REMARK VINA RESULT:    -5.800      3.148      5.698
REMARK INTER + INTRA:          -7.185
REMARK INTER:                  -6.637
REMARK INTRA:                  -0.548
REMARK UNBOUND:                -0.537
REMARK  Name = 65532876
REMARK  3 active torsions:
REMARK  status: ('A' for Active; 'I' for Inactive)
REMARK    1  A    between atoms: N_7  and  C_16
REMARK    2  A    between atoms: C_8  and  C_13
REMARK    3  A    between atoms: C_14  and  C_15
REMARK                            x       y       z     vdW  Elec       q    Type
REMARK                         _______ _______ _______ _____ _____    ______ ____
ROOT
ATOM      1  O   UNL     1     -18.532  44.505 -12.426  0.00  0.00    +0.000 OA
ATOM      2  N   UNL     1     -16.298  43.817 -12.363  0.00  0.00    +0.000 N 
ATOM      3  C   UNL     1     -14.214  43.362 -11.124  0.00  0.00    +0.000 C 
ATOM      4  C   UNL     1     -13.625  44.668 -11.683  0.00  0.00    +0.000 C 
ATOM      5  C   UNL     1     -15.274  42.802 -12.081  0.00  0.00    +0.000 C 
ATOM      6  C   UNL     1     -14.728  45.674 -12.015  0.00  0.00    +0.000 C 
ATOM      7  C   UNL     1     -15.782  45.061 -12.934  0.00  0.00    +0.000 C 
ATOM      8  C   UNL     1     -17.672  43.667 -12.163  0.00  0.00    +0.000 C 
ENDROOT
BRANCH   8  10
ATOM      9  N   UNL     1     -19.303  40.294 -11.786  0.00  0.00    +0.000 NA
ATOM     10  C   UNL     1     -18.152  42.410 -11.574  0.00  0.00    +0.000 A 
ATOM     11  C   UNL     1     -18.847  41.457 -12.302  0.00  0.00    +0.000 A 
ATOM     12  C   UNL     1     -17.908  42.151 -10.230  0.00  0.00    +0.000 A 
ATOM     13  C   UNL     1     -18.361  40.964  -9.663  0.00  0.00    +0.000 A 
ATOM     14  C   UNL     1     -19.047  40.078 -10.476  0.00  0.00    +0.000 A 
BRANCH  11  15
ATOM     15  N   UNL     1     -19.102  41.716 -13.673  0.00  0.00    +0.000 N 
ATOM     16  H   UNL     1     -18.494  41.299 -14.365  0.00  0.00    +0.000 HD
ATOM     17  H   UNL     1     -19.523  42.610 -13.892  0.00  0.00    +0.000 HD
ENDBRANCH  11  15
ENDBRANCH   8  10
BRANCH   3  21
ATOM     18  F   UNL     1     -13.631  41.097 -10.871  0.00  0.00    +0.000 F 
ATOM     19  F   UNL     1     -12.180  42.413 -11.833  0.00  0.00    +0.000 F 
ATOM     20  F   UNL     1     -12.532  42.564  -9.684  0.00  0.00    +0.000 F 
ATOM     21  C   UNL     1     -13.113  42.334 -10.872  0.00  0.00    +0.000 C 
ENDBRANCH   3  21
TORSDOF 3
ENDMDL
MODEL 4
REMARK VINA RESULT:    -5.776      4.124      5.327
REMARK INTER + INTRA:          -7.157
REMARK INTER:                  -6.727
REMARK INTRA:                  -0.430
REMARK UNBOUND:                -0.537
REMARK  Name = 65532876
REMARK  3 active torsions:
REMARK  status: ('A' for Active; 'I' for Inactive)
REMARK    1  A    between atoms: N_7  and  C_16
REMARK    2  A    between atoms: C_8  and  C_13
REMARK    3  A    between atoms: C_14  and  C_15
REMARK                            x       y       z     vdW  Elec       q    Type
REMARK                         _______ _______ _______ _____ _____    ______ ____
ROOT
ATOM      1  O   UNL     1     -18.680  45.865 -13.174  0.00  0.00    +0.000 OA
ATOM      2  N   UNL     1     -17.830  43.723 -12.776  0.00  0.00    +0.000 N 
ATOM      3  C   UNL     1     -18.135  41.371 -12.099  0.00  0.00    +0.000 C 
ATOM      4  C   UNL     1     -17.487  41.701 -10.745  0.00  0.00    +0.000 C 
ATOM      5  C   UNL     1     -17.623  42.327 -13.185  0.00  0.00    +0.000 C 
ATOM      6  C   UNL     1     -17.677  43.176 -10.387  0.00  0.00    +0.000 C 
ATOM      7  C   UNL     1     -17.194  44.089 -11.511  0.00  0.00    +0.000 C 
ATOM      8  C   UNL     1     -18.532  44.689 -13.501  0.00  0.00    +0.000 C 
ENDROOT
BRANCH   8  10
ATOM      9  N   UNL     1     -19.369  44.443 -17.164  0.00  0.00    +0.000 NA
ATOM     10  C   UNL     1     -19.170  44.281 -14.760  0.00  0.00    +0.000 A 
ATOM     11  C   UNL     1     -18.798  44.797 -15.991  0.00  0.00    +0.000 A 
ATOM     12  C   UNL     1     -20.193  43.340 -14.731  0.00  0.00    +0.000 A 
ATOM     13  C   UNL     1     -20.805  42.950 -15.917  0.00  0.00    +0.000 A 
ATOM     14  C   UNL     1     -20.361  43.526 -17.096  0.00  0.00    +0.000 A 
BRANCH  11  15
ATOM     15  N   UNL     1     -17.758  45.760 -16.028  0.00  0.00    +0.000 N 
ATOM     16  H   UNL     1     -17.792  46.483 -16.734  0.00  0.00    +0.000 HD
ATOM     17  H   UNL     1     -16.846  45.451 -15.714  0.00  0.00    +0.000 HD
ENDBRANCH  11  15
ENDBRANCH   8  10
BRANCH   3  21
ATOM     18  F   UNL     1     -17.344  39.252 -11.450  0.00  0.00    +0.000 F 
ATOM     19  F   UNL     1     -19.017  39.322 -12.850  0.00  0.00    +0.000 F 
ATOM     20  F   UNL     1     -17.011  39.867 -13.518  0.00  0.00    +0.000 F 
ATOM     21  C   UNL     1     -17.871  39.918 -12.488  0.00  0.00    +0.000 C 
ENDBRANCH   3  21
TORSDOF 3
ENDMDL
MODEL 5
REMARK VINA RESULT:    -5.706      2.684      5.303
REMARK INTER + INTRA:          -7.077
REMARK INTER:                  -7.019
REMARK INTRA:                  -0.058
REMARK UNBOUND:                -0.537
REMARK  Name = 65532876
REMARK  3 active torsions:
REMARK  status: ('A' for Active; 'I' for Inactive)
REMARK    1  A    between atoms: N_7  and  C_16
REMARK    2  A    between atoms: C_8  and  C_13
REMARK    3  A    between atoms: C_14  and  C_15
REMARK                            x       y       z     vdW  Elec       q    Type
REMARK                         _______ _______ _______ _____ _____    ______ ____
ROOT
ATOM      1  O   UNL     1     -17.240  39.769 -10.381  0.00  0.00    +0.000 OA
ATOM      2  N   UNL     1     -16.987  42.059 -10.777  0.00  0.00    +0.000 N 
ATOM      3  C   UNL     1     -17.709  44.155 -11.861  0.00  0.00    +0.000 C 
ATOM      4  C   UNL     1     -16.536  44.022 -12.845  0.00  0.00    +0.000 C 
ATOM      5  C   UNL     1     -17.377  43.455 -10.536  0.00  0.00    +0.000 C 
ATOM      6  C   UNL     1     -16.127  42.558 -13.023  0.00  0.00    +0.000 C 
ATOM      7  C   UNL     1     -15.848  41.891 -11.679  0.00  0.00    +0.000 C 
ATOM      8  C   UNL     1     -17.585  40.935 -10.202  0.00  0.00    +0.000 C 
ENDROOT
BRANCH   8  10
ATOM      9  N   UNL     1     -21.005  40.626  -8.658  0.00  0.00    +0.000 NA
ATOM     10  C   UNL     1     -18.736  41.142  -9.313  0.00  0.00    +0.000 A 
ATOM     11  C   UNL     1     -19.929  40.453  -9.459  0.00  0.00    +0.000 A 
ATOM     12  C   UNL     1     -18.640  42.067  -8.279  0.00  0.00    +0.000 A 
ATOM     13  C   UNL     1     -19.725  42.272  -7.434  0.00  0.00    +0.000 A 
ATOM     14  C   UNL     1     -20.874  41.534  -7.665  0.00  0.00    +0.000 A 
BRANCH  11  15
ATOM     15  N   UNL     1     -20.036  39.511 -10.513  0.00  0.00    +0.000 N 
ATOM     16  H   UNL     1     -20.383  38.585 -10.301  0.00  0.00    +0.000 HD
ATOM     17  H   UNL     1     -19.368  39.603 -11.269  0.00  0.00    +0.000 HD
ENDBRANCH  11  15
ENDBRANCH   8  10
BRANCH   3  21
ATOM     18  F   UNL     1     -19.231  45.916 -12.206  0.00  0.00    +0.000 F 
ATOM     19  F   UNL     1     -18.150  45.869 -10.310  0.00  0.00    +0.000 F 
ATOM     20  F   UNL     1     -17.104  46.411 -12.148  0.00  0.00    +0.000 F 
ATOM     21  C   UNL     1     -18.057  45.622 -11.626  0.00  0.00    +0.000 C 
ENDBRANCH   3  21
TORSDOF 3
ENDMDL
