MODEL 1
REMARK VINA RESULT:    -6.022      0.000      0.000
REMARK INTER + INTRA:          -6.022
REMARK INTER:                  -6.022
REMARK INTRA:                   0.000
REMARK UNBOUND:                 0.000
REMARK  Name = 66745696
REMARK  0 active torsions:
REMARK  status: ('A' for Active; 'I' for Inactive)
REMARK                            x       y       z     vdW  Elec       q    Type
REMARK                         _______ _______ _______ _____ _____    ______ ____
ROOT
ATOM      1  O   UNL     1     -19.560  38.541 -11.660  0.00  0.00    +0.000 OA
ATOM      2  N   UNL     1     -17.081  41.682 -10.649  0.00  0.00    +0.000 NA
ATOM      3  N   UNL     1     -18.332  42.078  -8.738  0.00  0.00    +0.000 NA
ATOM      4  C   UNL     1     -19.036  40.266 -10.150  0.00  0.00    +0.000 A 
ATOM      5  C   UNL     1     -17.650  39.858 -12.229  0.00  0.00    +0.000 C 
ATOM      6  C   UNL     1     -18.818  39.472 -11.369  0.00  0.00    +0.000 C 
ATOM      7  C   UNL     1     -18.174  41.317  -9.848  0.00  0.00    +0.000 A 
ATOM      8  C   UNL     1     -20.095  39.983  -9.288  0.00  0.00    +0.000 A 
ATOM      9  C   UNL     1     -16.843  41.017 -11.733  0.00  0.00    +0.000 C 
ATOM     10  C   UNL     1     -20.267  40.756  -8.147  0.00  0.00    +0.000 A 
ATOM     11  C   UNL     1     -19.368  41.781  -7.920  0.00  0.00    +0.000 A 
ENDROOT
TORSDOF 0
ENDMDL
MODEL 2
REMARK VINA RESULT:    -5.536      2.247      4.183
REMARK INTER + INTRA:          -5.536
REMARK INTER:                  -5.536
REMARK INTRA:                   0.000
REMARK UNBOUND:                 0.000
REMARK  Name = 66745696
REMARK  0 active torsions:
REMARK  status: ('A' for Active; 'I' for Inactive)
REMARK                            x       y       z     vdW  Elec       q    Type
REMARK                         _______ _______ _______ _____ _____    ______ ____
ROOT
ATOM      1  O   UNL     1     -17.784  42.924  -9.008  0.00  0.00    +0.000 OA
ATOM      2  N   UNL     1     -19.887  39.485  -9.895  0.00  0.00    +0.000 NA
ATOM      3  N   UNL     1     -18.915  39.412 -11.999  0.00  0.00    +0.000 NA
ATOM      4  C   UNL     1     -18.277  41.228 -10.562  0.00  0.00    +0.000 A 
ATOM      5  C   UNL     1     -19.355  41.280  -8.272  0.00  0.00    +0.000 C 
ATOM      6  C   UNL     1     -18.413  41.903  -9.261  0.00  0.00    +0.000 C 
ATOM      7  C   UNL     1     -19.005  40.070 -10.818  0.00  0.00    +0.000 A 
ATOM      8  C   UNL     1     -17.426  41.731 -11.546  0.00  0.00    +0.000 A 
ATOM      9  C   UNL     1     -20.045  40.037  -8.736  0.00  0.00    +0.000 C 
ATOM     10  C   UNL     1     -17.325  41.066 -12.760  0.00  0.00    +0.000 A 
ATOM     11  C   UNL     1     -18.083  39.922 -12.935  0.00  0.00    +0.000 A 
ENDROOT
TORSDOF 0
ENDMDL
MODEL 3
REMARK VINA RESULT:    -5.485      2.131      2.574
REMARK INTER + INTRA:          -5.485
REMARK INTER:                  -5.485
REMARK INTRA:                   0.000
REMARK UNBOUND:                 0.000
REMARK  Name = 66745696
REMARK  0 active torsions:
REMARK  status: ('A' for Active; 'I' for Inactive)
REMARK                            x       y       z     vdW  Elec       q    Type
REMARK                         _______ _______ _______ _____ _____    ______ ____
ROOT
ATOM      1  O   UNL     1     -16.810  42.708 -11.257  0.00  0.00    +0.000 OA
ATOM      2  N   UNL     1     -19.162  39.333 -11.590  0.00  0.00    +0.000 NA
ATOM      3  N   UNL     1     -19.939  39.640  -9.427  0.00  0.00    +0.000 NA
ATOM      4  C   UNL     1     -18.359  41.246 -10.260  0.00  0.00    +0.000 A 
ATOM      5  C   UNL     1     -17.529  40.885 -12.623  0.00  0.00    +0.000 C 
ATOM      6  C   UNL     1     -17.504  41.704 -11.367  0.00  0.00    +0.000 C 
ATOM      7  C   UNL     1     -19.136  40.102 -10.416  0.00  0.00    +0.000 A 
ATOM      8  C   UNL     1     -18.404  41.942  -9.052  0.00  0.00    +0.000 A 
ATOM      9  C   UNL     1     -18.429  39.690 -12.594  0.00  0.00    +0.000 C 
ATOM     10  C   UNL     1     -19.223  41.478  -8.031  0.00  0.00    +0.000 A 
ATOM     11  C   UNL     1     -19.963  40.334  -8.267  0.00  0.00    +0.000 A 
ENDROOT
TORSDOF 0
ENDMDL
MODEL 4
REMARK VINA RESULT:    -5.337      1.208      3.357
REMARK INTER + INTRA:          -5.337
REMARK INTER:                  -5.337
REMARK INTRA:                   0.000
REMARK UNBOUND:                 0.000
REMARK  Name = 66745696
REMARK  0 active torsions:
REMARK  status: ('A' for Active; 'I' for Inactive)
REMARK                            x       y       z     vdW  Elec       q    Type
REMARK                         _______ _______ _______ _____ _____    ______ ____
ROOT
ATOM      1  O   UNL     1     -19.316  38.975 -11.261  0.00  0.00    +0.000 OA
ATOM      2  N   UNL     1     -18.200  42.297  -9.081  0.00  0.00    +0.000 NA
ATOM      3  N   UNL     1     -17.095  43.160 -10.928  0.00  0.00    +0.000 NA
ATOM      4  C   UNL     1     -18.187  41.037 -11.199  0.00  0.00    +0.000 A 
ATOM      5  C   UNL     1     -19.384  40.122  -9.166  0.00  0.00    +0.000 C 
ATOM      6  C   UNL     1     -18.990  39.957 -10.604  0.00  0.00    +0.000 C 
ATOM      7  C   UNL     1     -17.833  42.140 -10.427  0.00  0.00    +0.000 A 
ATOM      8  C   UNL     1     -17.773  40.975 -12.529  0.00  0.00    +0.000 A 
ATOM      9  C   UNL     1     -18.906  41.377  -8.508  0.00  0.00    +0.000 C 
ATOM     10  C   UNL     1     -17.016  42.014 -13.055  0.00  0.00    +0.000 A 
ATOM     11  C   UNL     1     -16.707  43.073 -12.221  0.00  0.00    +0.000 A 
ENDROOT
TORSDOF 0
ENDMDL
MODEL 5
REMARK VINA RESULT:    -5.185      3.213      4.044
REMARK INTER + INTRA:          -5.185
REMARK INTER:                  -5.185
REMARK INTRA:                   0.000
REMARK UNBOUND:                 0.000
REMARK  Name = 66745696
REMARK  0 active torsions:
REMARK  status: ('A' for Active; 'I' for Inactive)
REMARK                            x       y       z     vdW  Elec       q    Type
REMARK                         _______ _______ _______ _____ _____    ______ ____
ROOT
ATOM      1  O   UNL     1     -17.351  44.092 -11.265  0.00  0.00    +0.000 OA
ATOM      2  N   UNL     1     -19.501  41.917 -14.036  0.00  0.00    +0.000 NA
ATOM      3  N   UNL     1     -19.442  40.059 -12.651  0.00  0.00    +0.000 NA
ATOM      4  C   UNL     1     -18.355  42.049 -11.858  0.00  0.00    +0.000 A 
ATOM      5  C   UNL     1     -18.437  44.061 -13.393  0.00  0.00    +0.000 C 
ATOM      6  C   UNL     1     -17.990  43.455 -12.095  0.00  0.00    +0.000 C 
ATOM      7  C   UNL     1     -19.081  41.354 -12.821  0.00  0.00    +0.000 A 
ATOM      8  C   UNL     1     -17.985  41.399 -10.682  0.00  0.00    +0.000 A 
ATOM      9  C   UNL     1     -19.207  43.150 -14.296  0.00  0.00    +0.000 C 
ATOM     10  C   UNL     1     -18.349  40.072 -10.495  0.00  0.00    +0.000 A 
ATOM     11  C   UNL     1     -19.070  39.453 -11.500  0.00  0.00    +0.000 A 
ENDROOT
TORSDOF 0
ENDMDL
