MODEL 1
REMARK VINA RESULT:    -6.069      0.000      0.000
REMARK INTER + INTRA:          -6.870
REMARK INTER:                  -6.601
REMARK INTRA:                  -0.269
REMARK UNBOUND:                -0.269
REMARK  Name = 66878280
REMARK  3 active torsions:
REMARK  status: ('A' for Active; 'I' for Inactive)
REMARK    1  A    between atoms: N_3  and  C_8
REMARK    2  A    between atoms: C_5  and  C_11
REMARK    3  A    between atoms: C_6  and  C_10
REMARK                            x       y       z     vdW  Elec       q    Type
REMARK                         _______ _______ _______ _____ _____    ______ ____
ROOT
ATOM      1  N   UNL     1     -18.464  42.227  -8.224  0.00  0.00    +0.000 NA
ATOM      2  C   UNL     1     -19.381  40.733  -9.890  0.00  0.00    +0.000 A 
ATOM      3  C   UNL     1     -20.704  41.351  -7.978  0.00  0.00    +0.000 A 
ATOM      4  C   UNL     1     -20.568  40.648  -9.170  0.00  0.00    +0.000 A 
ATOM      5  C   UNL     1     -18.368  41.529  -9.379  0.00  0.00    +0.000 A 
ATOM      6  C   UNL     1     -19.633  42.120  -7.553  0.00  0.00    +0.000 A 
ATOM      7  C   UNL     1     -21.960  41.281  -7.186  0.00  0.00    +0.000 C 
ENDROOT
BRANCH   2  10
ATOM      8  O   UNL     1     -18.532  38.981 -11.214  0.00  0.00    +0.000 OA
ATOM      9  N   UNL     1     -19.968  40.447 -12.237  0.00  0.00    +0.000 N 
ATOM     10  C   UNL     1     -19.248  39.992 -11.136  0.00  0.00    +0.000 C 
ATOM     11  H   UNL     1     -20.565  41.267 -12.191  0.00  0.00    +0.000 HD
ATOM     12  H   UNL     1     -19.918  39.966 -13.128  0.00  0.00    +0.000 HD
ENDBRANCH   2  10
BRANCH   5  13
ATOM     13  N   UNL     1     -17.156  41.621 -10.107  0.00  0.00    +0.000 N 
ATOM     14  H   UNL     1     -16.436  40.928  -9.939  0.00  0.00    +0.000 HD
ATOM     15  H   UNL     1     -16.858  42.552 -10.373  0.00  0.00    +0.000 HD
ENDBRANCH   5  13
TORSDOF 2
ENDMDL
MODEL 2
REMARK VINA RESULT:    -5.821      1.866      2.907
REMARK INTER + INTRA:          -6.601
REMARK INTER:                  -6.336
REMARK INTRA:                  -0.265
REMARK UNBOUND:                -0.269
REMARK  Name = 66878280
REMARK  3 active torsions:
REMARK  status: ('A' for Active; 'I' for Inactive)
REMARK    1  A    between atoms: N_3  and  C_8
REMARK    2  A    between atoms: C_5  and  C_11
REMARK    3  A    between atoms: C_6  and  C_10
REMARK                            x       y       z     vdW  Elec       q    Type
REMARK                         _______ _______ _______ _____ _____    ______ ____
ROOT
ATOM      1  N   UNL     1     -21.859  40.377  -8.314  0.00  0.00    +0.000 NA
ATOM      2  C   UNL     1     -19.629  41.310  -8.325  0.00  0.00    +0.000 A 
ATOM      3  C   UNL     1     -21.202  41.990  -6.637  0.00  0.00    +0.000 A 
ATOM      4  C   UNL     1     -19.935  42.074  -7.204  0.00  0.00    +0.000 A 
ATOM      5  C   UNL     1     -20.617  40.485  -8.837  0.00  0.00    +0.000 A 
ATOM      6  C   UNL     1     -22.119  41.135  -7.224  0.00  0.00    +0.000 A 
ATOM      7  C   UNL     1     -21.560  42.794  -5.439  0.00  0.00    +0.000 C 
ENDROOT
BRANCH   2  10
ATOM      8  O   UNL     1     -17.616  40.391  -9.132  0.00  0.00    +0.000 OA
ATOM      9  N   UNL     1     -17.825  42.673  -9.235  0.00  0.00    +0.000 N 
ATOM     10  C   UNL     1     -18.299  41.405  -8.912  0.00  0.00    +0.000 C 
ATOM     11  H   UNL     1     -18.372  43.512  -9.069  0.00  0.00    +0.000 HD
ATOM     12  H   UNL     1     -16.908  42.796  -9.651  0.00  0.00    +0.000 HD
ENDBRANCH   2  10
BRANCH   5  13
ATOM     13  N   UNL     1     -20.312  39.703  -9.979  0.00  0.00    +0.000 N 
ATOM     14  H   UNL     1     -20.905  39.787 -10.796  0.00  0.00    +0.000 HD
ATOM     15  H   UNL     1     -19.872  38.807  -9.809  0.00  0.00    +0.000 HD
ENDBRANCH   5  13
TORSDOF 2
ENDMDL
MODEL 3
REMARK VINA RESULT:    -5.480      1.698      2.654
REMARK INTER + INTRA:          -6.230
REMARK INTER:                  -6.002
REMARK INTRA:                  -0.228
REMARK UNBOUND:                -0.269
REMARK  Name = 66878280
REMARK  3 active torsions:
REMARK  status: ('A' for Active; 'I' for Inactive)
REMARK    1  A    between atoms: N_3  and  C_8
REMARK    2  A    between atoms: C_5  and  C_11
REMARK    3  A    between atoms: C_6  and  C_10
REMARK                            x       y       z     vdW  Elec       q    Type
REMARK                         _______ _______ _______ _____ _____    ______ ____
ROOT
ATOM      1  N   UNL     1     -20.307  39.683  -9.832  0.00  0.00    +0.000 NA
ATOM      2  C   UNL     1     -18.145  40.735 -10.081  0.00  0.00    +0.000 A 
ATOM      3  C   UNL     1     -19.549  41.313  -8.216  0.00  0.00    +0.000 A 
ATOM      4  C   UNL     1     -18.361  41.470  -8.921  0.00  0.00    +0.000 A 
ATOM      5  C   UNL     1     -19.140  39.862 -10.491  0.00  0.00    +0.000 A 
ATOM      6  C   UNL     1     -20.481  40.414  -8.709  0.00  0.00    +0.000 A 
ATOM      7  C   UNL     1     -19.811  42.084  -6.972  0.00  0.00    +0.000 C 
ENDROOT
BRANCH   2  10
ATOM      8  O   UNL     1     -16.283  39.934 -11.281  0.00  0.00    +0.000 OA
ATOM      9  N   UNL     1     -16.424  42.204 -10.984  0.00  0.00    +0.000 N 
ATOM     10  C   UNL     1     -16.897  40.907 -10.812  0.00  0.00    +0.000 C 
ATOM     11  H   UNL     1     -16.916  43.012 -10.615  0.00  0.00    +0.000 HD
ATOM     12  H   UNL     1     -15.563  42.383 -11.491  0.00  0.00    +0.000 HD
ENDBRANCH   2  10
BRANCH   5  13
ATOM     13  N   UNL     1     -18.926  39.110 -11.672  0.00  0.00    +0.000 N 
ATOM     14  H   UNL     1     -19.487  38.280 -11.827  0.00  0.00    +0.000 HD
ATOM     15  H   UNL     1     -17.986  39.116 -12.049  0.00  0.00    +0.000 HD
ENDBRANCH   5  13
TORSDOF 2
ENDMDL
MODEL 4
REMARK VINA RESULT:    -5.411      2.260      4.389
REMARK INTER + INTRA:          -6.155
REMARK INTER:                  -5.900
REMARK INTRA:                  -0.255
REMARK UNBOUND:                -0.269
REMARK  Name = 66878280
REMARK  3 active torsions:
REMARK  status: ('A' for Active; 'I' for Inactive)
REMARK    1  A    between atoms: N_3  and  C_8
REMARK    2  A    between atoms: C_5  and  C_11
REMARK    3  A    between atoms: C_6  and  C_10
REMARK                            x       y       z     vdW  Elec       q    Type
REMARK                         _______ _______ _______ _____ _____    ______ ____
ROOT
ATOM      1  N   UNL     1     -18.697  40.692 -13.190  0.00  0.00    +0.000 NA
ATOM      2  C   UNL     1     -18.785  40.960 -10.788  0.00  0.00    +0.000 A 
ATOM      3  C   UNL     1     -17.815  42.689 -12.150  0.00  0.00    +0.000 A 
ATOM      4  C   UNL     1     -18.168  42.202 -10.897  0.00  0.00    +0.000 A 
ATOM      5  C   UNL     1     -19.026  40.251 -11.954  0.00  0.00    +0.000 A 
ATOM      6  C   UNL     1     -18.099  41.903 -13.255  0.00  0.00    +0.000 A 
ATOM      7  C   UNL     1     -17.154  44.013 -12.300  0.00  0.00    +0.000 C 
ENDROOT
BRANCH   2  10
ATOM      8  O   UNL     1     -20.285  40.004  -9.244  0.00  0.00    +0.000 OA
ATOM      9  N   UNL     1     -18.178  40.488  -8.476  0.00  0.00    +0.000 N 
ATOM     10  C   UNL     1     -19.151  40.458  -9.471  0.00  0.00    +0.000 C 
ATOM     11  H   UNL     1     -17.245  40.848  -8.645  0.00  0.00    +0.000 HD
ATOM     12  H   UNL     1     -18.377  40.145  -7.542  0.00  0.00    +0.000 HD
ENDBRANCH   2  10
BRANCH   5  13
ATOM     13  N   UNL     1     -19.654  38.985 -11.851  0.00  0.00    +0.000 N 
ATOM     14  H   UNL     1     -19.926  38.508 -12.703  0.00  0.00    +0.000 HD
ATOM     15  H   UNL     1     -20.219  38.826 -11.025  0.00  0.00    +0.000 HD
ENDBRANCH   5  13
TORSDOF 2
ENDMDL
MODEL 5
REMARK VINA RESULT:    -5.146      1.910      2.170
REMARK INTER + INTRA:          -5.867
REMARK INTER:                  -5.622
REMARK INTRA:                  -0.245
REMARK UNBOUND:                -0.269
REMARK  Name = 66878280
REMARK  3 active torsions:
REMARK  status: ('A' for Active; 'I' for Inactive)
REMARK    1  A    between atoms: N_3  and  C_8
REMARK    2  A    between atoms: C_5  and  C_11
REMARK    3  A    between atoms: C_6  and  C_10
REMARK                            x       y       z     vdW  Elec       q    Type
REMARK                         _______ _______ _______ _____ _____    ______ ____
ROOT
ATOM      1  N   UNL     1     -18.100  42.379  -9.025  0.00  0.00    +0.000 NA
ATOM      2  C   UNL     1     -17.922  40.882 -10.915  0.00  0.00    +0.000 A 
ATOM      3  C   UNL     1     -19.628  40.520  -9.258  0.00  0.00    +0.000 A 
ATOM      4  C   UNL     1     -19.000  40.143 -10.439  0.00  0.00    +0.000 A 
ATOM      5  C   UNL     1     -17.514  41.982 -10.177  0.00  0.00    +0.000 A 
ATOM      6  C   UNL     1     -19.144  41.636  -8.594  0.00  0.00    +0.000 A 
ATOM      7  C   UNL     1     -20.783  39.751  -8.723  0.00  0.00    +0.000 C 
ENDROOT
BRANCH   2  10
ATOM      8  O   UNL     1     -17.507  41.059 -13.226  0.00  0.00    +0.000 OA
ATOM      9  N   UNL     1     -16.360  39.429 -12.091  0.00  0.00    +0.000 N 
ATOM     10  C   UNL     1     -17.272  40.478 -12.153  0.00  0.00    +0.000 C 
ATOM     11  H   UNL     1     -16.149  38.948 -11.222  0.00  0.00    +0.000 HD
ATOM     12  H   UNL     1     -15.873  39.110 -12.922  0.00  0.00    +0.000 HD
ENDBRANCH   2  10
BRANCH   5  13
ATOM     13  N   UNL     1     -16.417  42.740 -10.655  0.00  0.00    +0.000 N 
ATOM     14  H   UNL     1     -15.645  42.252 -11.094  0.00  0.00    +0.000 HD
ATOM     15  H   UNL     1     -16.207  43.596 -10.157  0.00  0.00    +0.000 HD
ENDBRANCH   5  13
TORSDOF 2
ENDMDL
