MODEL 1
REMARK VINA RESULT:    -7.564      0.000      0.000
REMARK INTER + INTRA:          -9.284
REMARK INTER:                  -9.111
REMARK INTRA:                  -0.173
REMARK UNBOUND:                -0.173
REMARK  Name = 66887686
REMARK  4 active torsions:
REMARK  status: ('A' for Active; 'I' for Inactive)
REMARK    1  A    between atoms: N_3  and  C_12
REMARK    2  A    between atoms: C_6  and  C_7
REMARK    3  A    between atoms: C_6  and  C_8
REMARK    4  A    between atoms: C_8  and  C_12
REMARK                            x       y       z     vdW  Elec       q    Type
REMARK                         _______ _______ _______ _____ _____    ______ ____
ROOT
ATOM      1  O   UNL     1     -19.544  38.786 -11.449  0.00  0.00    +0.000 OA
ATOM      2  N   UNL     1     -19.690  39.891  -9.456  0.00  0.00    +0.000 N 
ATOM      3  N   UNL     1     -16.964  41.755 -12.996  0.00  0.00    +0.000 NA
ATOM      4  N   UNL     1     -18.086  39.739 -13.407  0.00  0.00    +0.000 N 
ATOM      5  C   UNL     1     -19.369  40.944  -8.624  0.00  0.00    +0.000 A 
ATOM      6  C   UNL     1     -18.002  41.885 -10.392  0.00  0.00    +0.000 A 
ATOM      7  C   UNL     1     -18.557  41.928  -9.039  0.00  0.00    +0.000 A 
ATOM      8  C   UNL     1     -18.325  40.819 -11.238  0.00  0.00    +0.000 A 
ATOM      9  C   UNL     1     -19.224  39.745 -10.755  0.00  0.00    +0.000 A 
ATOM     10  C   UNL     1     -17.787  40.796 -12.517  0.00  0.00    +0.000 A 
ATOM     11  C   UNL     1     -17.155  42.886 -10.862  0.00  0.00    +0.000 A 
ATOM     12  C   UNL     1     -16.669  42.774 -12.157  0.00  0.00    +0.000 A 
ATOM     13  H   UNL     1     -20.307  39.172  -9.089  0.00  0.00    +0.000 HD
ATOM     14  H   UNL     1     -18.262  38.820 -13.023  0.00  0.00    +0.000 HD
ATOM     15  H   UNL     1     -17.666  39.789 -14.327  0.00  0.00    +0.000 HD
ENDROOT
BRANCH   5  16
ATOM     16  C   UNL     1     -19.978  40.914  -7.257  0.00  0.00    +0.000 C 
BRANCH  16  17
ATOM     17  C   UNL     1     -20.709  42.218  -6.949  0.00  0.00    +0.000 C 
BRANCH  17  18
ATOM     18  C   UNL     1     -22.214  41.982  -6.825  0.00  0.00    +0.000 C 
BRANCH  18  19
ATOM     19  N   UNL     1     -22.803  42.943  -5.900  0.00  0.00    +0.000 NA
ATOM     20  H   UNL     1     -22.181  43.082  -5.105  0.00  0.00    +0.000 HD
ATOM     21  H   UNL     1     -23.669  42.562  -5.522  0.00  0.00    +0.000 HD
ENDBRANCH  18  19
ENDBRANCH  17  18
ENDBRANCH  16  17
ENDBRANCH   5  16
TORSDOF 4
ENDMDL
MODEL 2
REMARK VINA RESULT:    -6.551      2.112      5.626
REMARK INTER + INTRA:          -8.064
REMARK INTER:                  -7.851
REMARK INTRA:                  -0.213
REMARK UNBOUND:                -0.173
REMARK  Name = 66887686
REMARK  4 active torsions:
REMARK  status: ('A' for Active; 'I' for Inactive)
REMARK    1  A    between atoms: N_3  and  C_12
REMARK    2  A    between atoms: C_6  and  C_7
REMARK    3  A    between atoms: C_6  and  C_8
REMARK    4  A    between atoms: C_8  and  C_12
REMARK                            x       y       z     vdW  Elec       q    Type
REMARK                         _______ _______ _______ _____ _____    ______ ____
ROOT
ATOM      1  O   UNL     1     -18.003  39.828 -13.504  0.00  0.00    +0.000 OA
ATOM      2  N   UNL     1     -16.764  41.709 -13.127  0.00  0.00    +0.000 N 
ATOM      3  N   UNL     1     -19.602  40.006  -9.594  0.00  0.00    +0.000 NA
ATOM      4  N   UNL     1     -19.561  38.854 -11.635  0.00  0.00    +0.000 N 
ATOM      5  C   UNL     1     -16.344  42.747 -12.320  0.00  0.00    +0.000 A 
ATOM      6  C   UNL     1     -17.763  41.900 -10.545  0.00  0.00    +0.000 A 
ATOM      7  C   UNL     1     -16.804  42.875 -11.066  0.00  0.00    +0.000 A 
ATOM      8  C   UNL     1     -18.190  40.847 -11.361  0.00  0.00    +0.000 A 
ATOM      9  C   UNL     1     -17.668  40.729 -12.742  0.00  0.00    +0.000 A 
ATOM     10  C   UNL     1     -19.101  39.935 -10.848  0.00  0.00    +0.000 A 
ATOM     11  C   UNL     1     -18.265  41.996  -9.249  0.00  0.00    +0.000 A 
ATOM     12  C   UNL     1     -19.172  41.034  -8.829  0.00  0.00    +0.000 A 
ATOM     13  H   UNL     1     -16.385  41.662 -14.069  0.00  0.00    +0.000 HD
ATOM     14  H   UNL     1     -19.631  38.981 -12.636  0.00  0.00    +0.000 HD
ATOM     15  H   UNL     1     -20.219  38.222 -11.196  0.00  0.00    +0.000 HD
ENDROOT
BRANCH   5  16
ATOM     16  C   UNL     1     -15.362  43.700 -12.928  0.00  0.00    +0.000 C 
BRANCH  16  17
ATOM     17  C   UNL     1     -14.694  44.561 -11.859  0.00  0.00    +0.000 C 
BRANCH  17  18
ATOM     18  C   UNL     1     -13.348  43.967 -11.445  0.00  0.00    +0.000 C 
BRANCH  18  19
ATOM     19  N   UNL     1     -12.835  43.093 -12.495  0.00  0.00    +0.000 NA
ATOM     20  H   UNL     1     -13.168  43.414 -13.403  0.00  0.00    +0.000 HD
ATOM     21  H   UNL     1     -13.212  42.155 -12.367  0.00  0.00    +0.000 HD
ENDBRANCH  18  19
ENDBRANCH  17  18
ENDBRANCH  16  17
ENDBRANCH   5  16
TORSDOF 4
ENDMDL
MODEL 3
REMARK VINA RESULT:    -6.420      2.134      4.968
REMARK INTER + INTRA:          -7.906
REMARK INTER:                  -7.632
REMARK INTRA:                  -0.274
REMARK UNBOUND:                -0.173
REMARK  Name = 66887686
REMARK  4 active torsions:
REMARK  status: ('A' for Active; 'I' for Inactive)
REMARK    1  A    between atoms: N_3  and  C_12
REMARK    2  A    between atoms: C_6  and  C_7
REMARK    3  A    between atoms: C_6  and  C_8
REMARK    4  A    between atoms: C_8  and  C_12
REMARK                            x       y       z     vdW  Elec       q    Type
REMARK                         _______ _______ _______ _____ _____    ______ ____
ROOT
ATOM      1  O   UNL     1     -18.434  40.059 -13.551  0.00  0.00    +0.000 OA
ATOM      2  N   UNL     1     -17.370  42.045 -13.181  0.00  0.00    +0.000 N 
ATOM      3  N   UNL     1     -19.503  39.783  -9.470  0.00  0.00    +0.000 NA
ATOM      4  N   UNL     1     -19.610  38.783 -11.586  0.00  0.00    +0.000 N 
ATOM      5  C   UNL     1     -16.963  43.070 -12.351  0.00  0.00    +0.000 A 
ATOM      6  C   UNL     1     -18.028  41.943 -10.487  0.00  0.00    +0.000 A 
ATOM      7  C   UNL     1     -17.260  43.057 -11.042  0.00  0.00    +0.000 A 
ATOM      8  C   UNL     1     -18.442  40.903 -11.325  0.00  0.00    +0.000 A 
ATOM      9  C   UNL     1     -18.101  40.941 -12.766  0.00  0.00    +0.000 A 
ATOM     10  C   UNL     1     -19.170  39.856 -10.778  0.00  0.00    +0.000 A 
ATOM     11  C   UNL     1     -18.358  41.891  -9.134  0.00  0.00    +0.000 A 
ATOM     12  C   UNL     1     -19.089  40.801  -8.683  0.00  0.00    +0.000 A 
ATOM     13  H   UNL     1     -17.119  42.107 -14.164  0.00  0.00    +0.000 HD
ATOM     14  H   UNL     1     -19.828  38.967 -12.557  0.00  0.00    +0.000 HD
ATOM     15  H   UNL     1     -20.130  38.048 -11.122  0.00  0.00    +0.000 HD
ENDROOT
BRANCH   5  16
ATOM     16  C   UNL     1     -16.182  44.172 -12.997  0.00  0.00    +0.000 C 
BRANCH  16  17
ATOM     17  C   UNL     1     -16.551  45.530 -12.407  0.00  0.00    +0.000 C 
BRANCH  17  18
ATOM     18  C   UNL     1     -17.673  46.186 -13.211  0.00  0.00    +0.000 C 
BRANCH  18  19
ATOM     19  N   UNL     1     -18.948  46.033 -12.519  0.00  0.00    +0.000 NA
ATOM     20  H   UNL     1     -19.698  46.416 -13.093  0.00  0.00    +0.000 HD
ATOM     21  H   UNL     1     -18.936  46.581 -11.661  0.00  0.00    +0.000 HD
ENDBRANCH  18  19
ENDBRANCH  17  18
ENDBRANCH  16  17
ENDBRANCH   5  16
TORSDOF 4
ENDMDL
MODEL 4
REMARK VINA RESULT:    -6.353      3.840      6.335
REMARK INTER + INTRA:          -7.826
REMARK INTER:                  -7.594
REMARK INTRA:                  -0.232
REMARK UNBOUND:                -0.173
REMARK  Name = 66887686
REMARK  4 active torsions:
REMARK  status: ('A' for Active; 'I' for Inactive)
REMARK    1  A    between atoms: N_3  and  C_12
REMARK    2  A    between atoms: C_6  and  C_7
REMARK    3  A    between atoms: C_6  and  C_8
REMARK    4  A    between atoms: C_8  and  C_12
REMARK                            x       y       z     vdW  Elec       q    Type
REMARK                         _______ _______ _______ _____ _____    ______ ____
ROOT
ATOM      1  O   UNL     1     -15.523  43.202 -12.755  0.00  0.00    +0.000 OA
ATOM      2  N   UNL     1     -17.432  43.703 -13.904  0.00  0.00    +0.000 N 
ATOM      3  N   UNL     1     -17.405  39.890 -10.921  0.00  0.00    +0.000 NA
ATOM      4  N   UNL     1     -15.441  41.152 -11.124  0.00  0.00    +0.000 N 
ATOM      5  C   UNL     1     -18.749  43.461 -14.239  0.00  0.00    +0.000 A 
ATOM      6  C   UNL     1     -18.744  41.550 -12.746  0.00  0.00    +0.000 A 
ATOM      7  C   UNL     1     -19.418  42.430 -13.700  0.00  0.00    +0.000 A 
ATOM      8  C   UNL     1     -17.409  41.793 -12.405  0.00  0.00    +0.000 A 
ATOM      9  C   UNL     1     -16.693  42.938 -13.014  0.00  0.00    +0.000 A 
ATOM     10  C   UNL     1     -16.788  40.945 -11.499  0.00  0.00    +0.000 A 
ATOM     11  C   UNL     1     -19.403  40.469 -12.164  0.00  0.00    +0.000 A 
ATOM     12  C   UNL     1     -18.695  39.680 -11.268  0.00  0.00    +0.000 A 
ATOM     13  H   UNL     1     -16.972  44.497 -14.344  0.00  0.00    +0.000 HD
ATOM     14  H   UNL     1     -14.808  41.559 -11.801  0.00  0.00    +0.000 HD
ATOM     15  H   UNL     1     -15.052  40.501 -10.453  0.00  0.00    +0.000 HD
ENDROOT
BRANCH   5  16
ATOM     16  C   UNL     1     -19.365  44.408 -15.221  0.00  0.00    +0.000 C 
BRANCH  16  17
ATOM     17  C   UNL     1     -20.471  43.728 -16.023  0.00  0.00    +0.000 C 
BRANCH  17  18
ATOM     18  C   UNL     1     -19.917  43.128 -17.315  0.00  0.00    +0.000 C 
BRANCH  18  19
ATOM     19  N   UNL     1     -20.692  41.955 -17.702  0.00  0.00    +0.000 NA
ATOM     20  H   UNL     1     -20.978  41.442 -16.870  0.00  0.00    +0.000 HD
ATOM     21  H   UNL     1     -20.102  41.322 -18.240  0.00  0.00    +0.000 HD
ENDBRANCH  18  19
ENDBRANCH  17  18
ENDBRANCH  16  17
ENDBRANCH   5  16
TORSDOF 4
ENDMDL
MODEL 5
REMARK VINA RESULT:    -6.111      2.646      3.424
REMARK INTER + INTRA:          -7.535
REMARK INTER:                  -7.299
REMARK INTRA:                  -0.236
REMARK UNBOUND:                -0.173
REMARK  Name = 66887686
REMARK  4 active torsions:
REMARK  status: ('A' for Active; 'I' for Inactive)
REMARK    1  A    between atoms: N_3  and  C_12
REMARK    2  A    between atoms: C_6  and  C_7
REMARK    3  A    between atoms: C_6  and  C_8
REMARK    4  A    between atoms: C_8  and  C_12
REMARK                            x       y       z     vdW  Elec       q    Type
REMARK                         _______ _______ _______ _____ _____    ______ ____
ROOT
ATOM      1  O   UNL     1     -20.086  42.270 -14.197  0.00  0.00    +0.000 OA
ATOM      2  N   UNL     1     -19.332  41.454 -12.202  0.00  0.00    +0.000 N 
ATOM      3  N   UNL     1     -17.671  45.715 -13.789  0.00  0.00    +0.000 NA
ATOM      4  N   UNL     1     -19.227  44.570 -15.114  0.00  0.00    +0.000 N 
ATOM      5  C   UNL     1     -18.554  41.548 -11.066  0.00  0.00    +0.000 A 
ATOM      6  C   UNL     1     -17.718  43.684 -11.854  0.00  0.00    +0.000 A 
ATOM      7  C   UNL     1     -17.760  42.610 -10.861  0.00  0.00    +0.000 A 
ATOM      8  C   UNL     1     -18.505  43.591 -13.006  0.00  0.00    +0.000 A 
ATOM      9  C   UNL     1     -19.373  42.408 -13.209  0.00  0.00    +0.000 A 
ATOM     10  C   UNL     1     -18.449  44.619 -13.935  0.00  0.00    +0.000 A 
ATOM     11  C   UNL     1     -16.907  44.803 -11.678  0.00  0.00    +0.000 A 
ATOM     12  C   UNL     1     -16.921  45.778 -12.665  0.00  0.00    +0.000 A 
ATOM     13  H   UNL     1     -19.913  40.626 -12.308  0.00  0.00    +0.000 HD
ATOM     14  H   UNL     1     -19.433  43.665 -15.519  0.00  0.00    +0.000 HD
ATOM     15  H   UNL     1     -19.144  45.357 -15.746  0.00  0.00    +0.000 HD
ENDROOT
BRANCH   5  16
ATOM     16  C   UNL     1     -18.655  40.409 -10.100  0.00  0.00    +0.000 C 
BRANCH  16  17
ATOM     17  C   UNL     1     -18.389  40.871  -8.671  0.00  0.00    +0.000 C 
BRANCH  17  18
ATOM     18  C   UNL     1     -19.686  41.311  -7.990  0.00  0.00    +0.000 C 
BRANCH  18  19
ATOM     19  N   UNL     1     -19.425  42.405  -7.062  0.00  0.00    +0.000 NA
ATOM     20  H   UNL     1     -19.198  42.028  -6.142  0.00  0.00    +0.000 HD
ATOM     21  H   UNL     1     -20.273  42.957  -6.943  0.00  0.00    +0.000 HD
ENDBRANCH  18  19
ENDBRANCH  17  18
ENDBRANCH  16  17
ENDBRANCH   5  16
TORSDOF 4
ENDMDL
