MODEL 1
REMARK VINA RESULT:    -6.347      0.000      0.000
REMARK INTER + INTRA:          -7.371
REMARK INTER:                  -7.274
REMARK INTRA:                  -0.097
REMARK UNBOUND:                -0.097
REMARK  Name = 67218192
REMARK  3 active torsions:
REMARK  status: ('A' for Active; 'I' for Inactive)
REMARK    1  A    between atoms: N_2  and  C_7
REMARK    2  A    between atoms: N_4  and  C_7
REMARK    3  A    between atoms: C_5  and  C_6
REMARK                            x       y       z     vdW  Elec       q    Type
REMARK                         _______ _______ _______ _____ _____    ______ ____
ROOT
ATOM      1  O   UNL     1     -18.294  40.689  -8.466  0.00  0.00    +0.000 OA
ATOM      2  N   UNL     1     -19.939  40.211 -10.027  0.00  0.00    +0.000 N 
ATOM      3  C   UNL     1     -19.499  40.674  -8.779  0.00  0.00    +0.000 C 
ATOM      4  H   UNL     1     -20.921  40.266 -10.275  0.00  0.00    +0.000 HD
ENDROOT
BRANCH   3   6
ATOM      5  N   UNL     1     -22.841  41.277  -7.223  0.00  0.00    +0.000 NA
ATOM      6  C   UNL     1     -20.511  41.159  -7.858  0.00  0.00    +0.000 A 
ATOM      7  C   UNL     1     -20.165  41.942  -6.762  0.00  0.00    +0.000 A 
ATOM      8  C   UNL     1     -21.851  40.859  -8.043  0.00  0.00    +0.000 A 
ATOM      9  C   UNL     1     -21.155  42.391  -5.895  0.00  0.00    +0.000 A 
ATOM     10  C   UNL     1     -22.467  42.035  -6.169  0.00  0.00    +0.000 A 
ENDBRANCH   3   6
BRANCH   2  11
ATOM     11  C   UNL     1     -19.043  39.718 -11.048  0.00  0.00    +0.000 C 
BRANCH  11  12
ATOM     12  N   UNL     1     -19.631  38.539 -11.655  0.00  0.00    +0.000 NA
ATOM     13  H   UNL     1     -19.202  37.705 -11.256  0.00  0.00    +0.000 HD
ATOM     14  H   UNL     1     -19.412  38.525 -12.650  0.00  0.00    +0.000 HD
ENDBRANCH  11  12
ENDBRANCH   2  11
TORSDOF 3
ENDMDL
MODEL 2
REMARK VINA RESULT:    -6.245      2.254      2.954
REMARK INTER + INTRA:          -7.255
REMARK INTER:                  -6.940
REMARK INTRA:                  -0.314
REMARK UNBOUND:                -0.097
REMARK  Name = 67218192
REMARK  3 active torsions:
REMARK  status: ('A' for Active; 'I' for Inactive)
REMARK    1  A    between atoms: N_2  and  C_7
REMARK    2  A    between atoms: N_4  and  C_7
REMARK    3  A    between atoms: C_5  and  C_6
REMARK                            x       y       z     vdW  Elec       q    Type
REMARK                         _______ _______ _______ _____ _____    ______ ____
ROOT
ATOM      1  O   UNL     1     -18.925  39.137 -11.176  0.00  0.00    +0.000 OA
ATOM      2  N   UNL     1     -17.037  40.353 -10.604  0.00  0.00    +0.000 N 
ATOM      3  C   UNL     1     -18.380  39.985 -10.445  0.00  0.00    +0.000 C 
ATOM      4  H   UNL     1     -16.605  41.002  -9.956  0.00  0.00    +0.000 HD
ENDROOT
BRANCH   3   6
ATOM      5  N   UNL     1     -19.183  42.270  -7.601  0.00  0.00    +0.000 NA
ATOM      6  C   UNL     1     -19.119  40.624  -9.372  0.00  0.00    +0.000 A 
ATOM      7  C   UNL     1     -20.422  40.239  -9.072  0.00  0.00    +0.000 A 
ATOM      8  C   UNL     1     -18.550  41.634  -8.613  0.00  0.00    +0.000 A 
ATOM      9  C   UNL     1     -21.106  40.870  -8.039  0.00  0.00    +0.000 A 
ATOM     10  C   UNL     1     -20.447  41.869  -7.340  0.00  0.00    +0.000 A 
ENDBRANCH   3   6
BRANCH   2  11
ATOM     11  C   UNL     1     -16.176  39.785 -11.616  0.00  0.00    +0.000 C 
BRANCH  11  12
ATOM     12  N   UNL     1     -16.723  40.098 -12.923  0.00  0.00    +0.000 NA
ATOM     13  H   UNL     1     -17.585  39.572 -13.062  0.00  0.00    +0.000 HD
ATOM     14  H   UNL     1     -16.077  39.783 -13.645  0.00  0.00    +0.000 HD
ENDBRANCH  11  12
ENDBRANCH   2  11
TORSDOF 3
ENDMDL
MODEL 3
REMARK VINA RESULT:    -6.177      1.557      4.666
REMARK INTER + INTRA:          -7.177
REMARK INTER:                  -6.869
REMARK INTRA:                  -0.308
REMARK UNBOUND:                -0.097
REMARK  Name = 67218192
REMARK  3 active torsions:
REMARK  status: ('A' for Active; 'I' for Inactive)
REMARK    1  A    between atoms: N_2  and  C_7
REMARK    2  A    between atoms: N_4  and  C_7
REMARK    3  A    between atoms: C_5  and  C_6
REMARK                            x       y       z     vdW  Elec       q    Type
REMARK                         _______ _______ _______ _____ _____    ______ ____
ROOT
ATOM      1  O   UNL     1     -19.495  42.295  -6.713  0.00  0.00    +0.000 OA
ATOM      2  N   UNL     1     -21.534  41.634  -7.594  0.00  0.00    +0.000 N 
ATOM      3  C   UNL     1     -20.138  41.748  -7.628  0.00  0.00    +0.000 C 
ATOM      4  H   UNL     1     -22.024  41.130  -8.325  0.00  0.00    +0.000 HD
ENDROOT
BRANCH   3   6
ATOM      5  N   UNL     1     -19.351  39.468 -10.482  0.00  0.00    +0.000 NA
ATOM      6  C   UNL     1     -19.455  41.181  -8.777  0.00  0.00    +0.000 A 
ATOM      7  C   UNL     1     -18.294  41.761  -9.278  0.00  0.00    +0.000 A 
ATOM      8  C   UNL     1     -19.937  40.045  -9.409  0.00  0.00    +0.000 A 
ATOM      9  C   UNL     1     -17.662  41.197 -10.381  0.00  0.00    +0.000 A 
ATOM     10  C   UNL     1     -18.225  40.060 -10.940  0.00  0.00    +0.000 A 
ENDBRANCH   3   6
BRANCH   2  11
ATOM     11  C   UNL     1     -22.341  42.134  -6.505  0.00  0.00    +0.000 C 
BRANCH  11  12
ATOM     12  N   UNL     1     -22.172  43.572  -6.421  0.00  0.00    +0.000 NA
ATOM     13  H   UNL     1     -21.232  43.782  -6.089  0.00  0.00    +0.000 HD
ATOM     14  H   UNL     1     -22.812  43.949  -5.723  0.00  0.00    +0.000 HD
ENDBRANCH  11  12
ENDBRANCH   2  11
TORSDOF 3
ENDMDL
MODEL 4
REMARK VINA RESULT:    -5.933      2.160      2.377
REMARK INTER + INTRA:          -6.897
REMARK INTER:                  -6.804
REMARK INTRA:                  -0.093
REMARK UNBOUND:                -0.097
REMARK  Name = 67218192
REMARK  3 active torsions:
REMARK  status: ('A' for Active; 'I' for Inactive)
REMARK    1  A    between atoms: N_2  and  C_7
REMARK    2  A    between atoms: N_4  and  C_7
REMARK    3  A    between atoms: C_5  and  C_6
REMARK                            x       y       z     vdW  Elec       q    Type
REMARK                         _______ _______ _______ _____ _____    ______ ____
ROOT
ATOM      1  O   UNL     1     -19.308  39.260 -10.797  0.00  0.00    +0.000 OA
ATOM      2  N   UNL     1     -17.479  40.562 -10.225  0.00  0.00    +0.000 N 
ATOM      3  C   UNL     1     -18.803  40.132 -10.067  0.00  0.00    +0.000 C 
ATOM      4  H   UNL     1     -17.078  41.231  -9.578  0.00  0.00    +0.000 HD
ENDROOT
BRANCH   3   6
ATOM      5  N   UNL     1     -21.688  40.979  -7.849  0.00  0.00    +0.000 NA
ATOM      6  C   UNL     1     -19.571  40.736  -8.992  0.00  0.00    +0.000 A 
ATOM      7  C   UNL     1     -18.977  41.618  -8.096  0.00  0.00    +0.000 A 
ATOM      8  C   UNL     1     -20.917  40.452  -8.827  0.00  0.00    +0.000 A 
ATOM      9  C   UNL     1     -19.737  42.180  -7.076  0.00  0.00    +0.000 A 
ATOM     10  C   UNL     1     -21.076  41.832  -6.998  0.00  0.00    +0.000 A 
ENDBRANCH   3   6
BRANCH   2  11
ATOM     11  C   UNL     1     -16.593  40.036 -11.239  0.00  0.00    +0.000 C 
BRANCH  11  12
ATOM     12  N   UNL     1     -15.297  40.672 -11.101  0.00  0.00    +0.000 NA
ATOM     13  H   UNL     1     -15.270  41.511 -11.678  0.00  0.00    +0.000 HD
ATOM     14  H   UNL     1     -14.574  40.052 -11.466  0.00  0.00    +0.000 HD
ENDBRANCH  11  12
ENDBRANCH   2  11
TORSDOF 3
ENDMDL
MODEL 5
REMARK VINA RESULT:    -5.031      1.703      5.201
REMARK INTER + INTRA:          -5.863
REMARK INTER:                  -5.779
REMARK INTRA:                  -0.084
REMARK UNBOUND:                -0.097
REMARK  Name = 67218192
REMARK  3 active torsions:
REMARK  status: ('A' for Active; 'I' for Inactive)
REMARK    1  A    between atoms: N_2  and  C_7
REMARK    2  A    between atoms: N_4  and  C_7
REMARK    3  A    between atoms: C_5  and  C_6
REMARK                            x       y       z     vdW  Elec       q    Type
REMARK                         _______ _______ _______ _____ _____    ______ ____
ROOT
ATOM      1  O   UNL     1     -18.604  42.169  -8.327  0.00  0.00    +0.000 OA
ATOM      2  N   UNL     1     -20.529  40.941  -8.724  0.00  0.00    +0.000 N 
ATOM      3  C   UNL     1     -19.235  41.374  -9.047  0.00  0.00    +0.000 C 
ATOM      4  H   UNL     1     -20.994  40.247  -9.299  0.00  0.00    +0.000 HD
ENDROOT
BRANCH   3   6
ATOM      5  N   UNL     1     -16.683  40.016 -11.413  0.00  0.00    +0.000 NA
ATOM      6  C   UNL     1     -18.642  40.840 -10.260  0.00  0.00    +0.000 A 
ATOM      7  C   UNL     1     -19.409  40.638 -11.402  0.00  0.00    +0.000 A 
ATOM      8  C   UNL     1     -17.296  40.517 -10.317  0.00  0.00    +0.000 A 
ATOM      9  C   UNL     1     -18.815  40.124 -12.550  0.00  0.00    +0.000 A 
ATOM     10  C   UNL     1     -17.460  39.834 -12.504  0.00  0.00    +0.000 A 
ENDBRANCH   3   6
BRANCH   2  11
ATOM     11  C   UNL     1     -21.234  41.373  -7.539  0.00  0.00    +0.000 C 
BRANCH  11  12
ATOM     12  N   UNL     1     -22.628  40.993  -7.661  0.00  0.00    +0.000 NA
ATOM     13  H   UNL     1     -22.697  40.135  -8.207  0.00  0.00    +0.000 HD
ATOM     14  H   UNL     1     -23.130  41.707  -8.187  0.00  0.00    +0.000 HD
ENDBRANCH  11  12
ENDBRANCH   2  11
TORSDOF 3
ENDMDL
