MODEL 1
REMARK VINA RESULT:    -7.953      0.000      0.000
REMARK INTER + INTRA:          -8.483
REMARK INTER:                  -8.418
REMARK INTRA:                  -0.065
REMARK UNBOUND:                -0.065
REMARK  Name = 67324828
REMARK  1 active torsions:
REMARK  status: ('A' for Active; 'I' for Inactive)
REMARK    1  A    between atoms: C_10  and  C_13
REMARK                            x       y       z     vdW  Elec       q    Type
REMARK                         _______ _______ _______ _____ _____    ______ ____
ROOT
ATOM      1  N   UNL     1     -17.596  40.906  -9.451  0.00  0.00    +0.000 N 
ATOM      2  N   UNL     1     -18.843  41.986  -7.753  0.00  0.00    +0.000 NA
ATOM      3  N   UNL     1     -18.778  39.364 -11.073  0.00  0.00    +0.000 NA
ATOM      4  C   UNL     1     -19.950  40.502  -9.262  0.00  0.00    +0.000 A 
ATOM      5  C   UNL     1     -18.800  41.144  -8.813  0.00  0.00    +0.000 A 
ATOM      6  C   UNL     1     -21.172  40.715  -8.630  0.00  0.00    +0.000 A 
ATOM      7  C   UNL     1     -17.576  40.107 -10.660  0.00  0.00    +0.000 C 
ATOM      8  C   UNL     1     -21.221  41.579  -7.547  0.00  0.00    +0.000 A 
ATOM      9  C   UNL     1     -19.855  39.586 -10.401  0.00  0.00    +0.000 C 
ATOM     10  C   UNL     1     -20.041  42.184  -7.150  0.00  0.00    +0.000 A 
ATOM     11  H   UNL     1     -16.760  41.376  -9.129  0.00  0.00    +0.000 HD
ENDROOT
BRANCH   8  14
ATOM     12  O   UNL     1     -23.379  40.994  -6.807  0.00  0.00    +0.000 OA
ATOM     13  N   UNL     1     -22.610  43.070  -6.212  0.00  0.00    +0.000 N 
ATOM     14  C   UNL     1     -22.468  41.840  -6.851  0.00  0.00    +0.000 C 
ATOM     15  H   UNL     1     -21.918  43.808  -6.195  0.00  0.00    +0.000 HD
ATOM     16  H   UNL     1     -23.469  43.276  -5.711  0.00  0.00    +0.000 HD
ENDBRANCH   8  14
TORSDOF 1
ENDMDL
MODEL 2
REMARK VINA RESULT:    -7.396      2.265      4.729
REMARK INTER + INTRA:          -7.893
REMARK INTER:                  -7.825
REMARK INTRA:                  -0.068
REMARK UNBOUND:                -0.065
REMARK  Name = 67324828
REMARK  1 active torsions:
REMARK  status: ('A' for Active; 'I' for Inactive)
REMARK    1  A    between atoms: C_10  and  C_13
REMARK                            x       y       z     vdW  Elec       q    Type
REMARK                         _______ _______ _______ _____ _____    ______ ____
ROOT
ATOM      1  N   UNL     1     -20.603  42.657  -6.166  0.00  0.00    +0.000 N 
ATOM      2  N   UNL     1     -18.869  42.050  -7.659  0.00  0.00    +0.000 NA
ATOM      3  N   UNL     1     -22.916  41.680  -6.483  0.00  0.00    +0.000 NA
ATOM      4  C   UNL     1     -21.061  41.157  -7.978  0.00  0.00    +0.000 A 
ATOM      5  C   UNL     1     -20.163  41.950  -7.271  0.00  0.00    +0.000 A 
ATOM      6  C   UNL     1     -20.646  40.446  -9.100  0.00  0.00    +0.000 A 
ATOM      7  C   UNL     1     -21.953  42.449  -5.679  0.00  0.00    +0.000 C 
ATOM      8  C   UNL     1     -19.321  40.542  -9.498  0.00  0.00    +0.000 A 
ATOM      9  C   UNL     1     -22.455  41.092  -7.534  0.00  0.00    +0.000 C 
ATOM     10  C   UNL     1     -18.480  41.349  -8.752  0.00  0.00    +0.000 A 
ATOM     11  H   UNL     1     -19.950  43.230  -5.648  0.00  0.00    +0.000 HD
ENDROOT
BRANCH   8  14
ATOM     12  O   UNL     1     -17.633  39.852 -10.988  0.00  0.00    +0.000 OA
ATOM     13  N   UNL     1     -19.750  39.068 -11.390  0.00  0.00    +0.000 N 
ATOM     14  C   UNL     1     -18.833  39.820 -10.659  0.00  0.00    +0.000 C 
ATOM     15  H   UNL     1     -20.738  38.985 -11.187  0.00  0.00    +0.000 HD
ATOM     16  H   UNL     1     -19.433  38.546 -12.202  0.00  0.00    +0.000 HD
ENDBRANCH   8  14
TORSDOF 1
ENDMDL
MODEL 3
REMARK VINA RESULT:    -6.447      2.983      5.510
REMARK INTER + INTRA:          -6.889
REMARK INTER:                  -6.823
REMARK INTRA:                  -0.066
REMARK UNBOUND:                -0.065
REMARK  Name = 67324828
REMARK  1 active torsions:
REMARK  status: ('A' for Active; 'I' for Inactive)
REMARK    1  A    between atoms: C_10  and  C_13
REMARK                            x       y       z     vdW  Elec       q    Type
REMARK                         _______ _______ _______ _____ _____    ______ ____
ROOT
ATOM      1  N   UNL     1     -21.149  40.242  -8.692  0.00  0.00    +0.000 N 
ATOM      2  N   UNL     1     -19.932  39.359 -10.522  0.00  0.00    +0.000 NA
ATOM      3  N   UNL     1     -20.098  42.034  -7.248  0.00  0.00    +0.000 NA
ATOM      4  C   UNL     1     -18.928  41.025  -9.135  0.00  0.00    +0.000 A 
ATOM      5  C   UNL     1     -20.002  40.204  -9.465  0.00  0.00    +0.000 A 
ATOM      6  C   UNL     1     -17.759  40.998  -9.889  0.00  0.00    +0.000 A 
ATOM      7  C   UNL     1     -21.269  41.235  -7.643  0.00  0.00    +0.000 C 
ATOM      8  C   UNL     1     -17.684  40.137 -10.974  0.00  0.00    +0.000 A 
ATOM      9  C   UNL     1     -19.040  41.911  -7.974  0.00  0.00    +0.000 C 
ATOM     10  C   UNL     1     -18.787  39.346 -11.247  0.00  0.00    +0.000 A 
ATOM     11  H   UNL     1     -21.933  39.648  -8.934  0.00  0.00    +0.000 HD
ENDROOT
BRANCH   8  14
ATOM     12  O   UNL     1     -16.537  39.695 -12.983  0.00  0.00    +0.000 OA
ATOM     13  N   UNL     1     -15.281  40.455 -11.221  0.00  0.00    +0.000 N 
ATOM     14  C   UNL     1     -16.490  40.069 -11.797  0.00  0.00    +0.000 C 
ATOM     15  H   UNL     1     -15.158  40.774 -10.269  0.00  0.00    +0.000 HD
ATOM     16  H   UNL     1     -14.432  40.425 -11.777  0.00  0.00    +0.000 HD
ENDBRANCH   8  14
TORSDOF 1
ENDMDL
MODEL 4
REMARK VINA RESULT:    -5.812      3.802      5.755
REMARK INTER + INTRA:          -6.217
REMARK INTER:                  -6.158
REMARK INTRA:                  -0.059
REMARK UNBOUND:                -0.065
REMARK  Name = 67324828
REMARK  1 active torsions:
REMARK  status: ('A' for Active; 'I' for Inactive)
REMARK    1  A    between atoms: C_10  and  C_13
REMARK                            x       y       z     vdW  Elec       q    Type
REMARK                         _______ _______ _______ _____ _____    ______ ____
ROOT
ATOM      1  N   UNL     1     -20.056  39.855 -10.155  0.00  0.00    +0.000 N 
ATOM      2  N   UNL     1     -19.260  40.646 -12.240  0.00  0.00    +0.000 NA
ATOM      3  N   UNL     1     -19.255  40.953  -8.021  0.00  0.00    +0.000 NA
ATOM      4  C   UNL     1     -18.477  41.656 -10.222  0.00  0.00    +0.000 A 
ATOM      5  C   UNL     1     -19.266  40.724 -10.888  0.00  0.00    +0.000 A 
ATOM      6  C   UNL     1     -17.664  42.533 -10.935  0.00  0.00    +0.000 A 
ATOM      7  C   UNL     1     -20.159  40.025  -8.719  0.00  0.00    +0.000 C 
ATOM      8  C   UNL     1     -17.658  42.459 -12.320  0.00  0.00    +0.000 A 
ATOM      9  C   UNL     1     -18.501  41.694  -8.758  0.00  0.00    +0.000 C 
ATOM     10  C   UNL     1     -18.465  41.508 -12.920  0.00  0.00    +0.000 A 
ATOM     11  H   UNL     1     -20.635  39.180 -10.638  0.00  0.00    +0.000 HD
ENDROOT
BRANCH   8  14
ATOM     12  O   UNL     1     -15.594  43.378 -12.987  0.00  0.00    +0.000 OA
ATOM     13  N   UNL     1     -17.468  44.166 -14.048  0.00  0.00    +0.000 N 
ATOM     14  C   UNL     1     -16.832  43.350 -13.115  0.00  0.00    +0.000 C 
ATOM     15  H   UNL     1     -18.465  44.201 -14.217  0.00  0.00    +0.000 HD
ATOM     16  H   UNL     1     -16.913  44.793 -14.623  0.00  0.00    +0.000 HD
ENDBRANCH   8  14
TORSDOF 1
ENDMDL
MODEL 5
REMARK VINA RESULT:    -5.664      4.474      5.839
REMARK INTER + INTRA:          -6.061
REMARK INTER:                  -6.004
REMARK INTRA:                  -0.056
REMARK UNBOUND:                -0.065
REMARK  Name = 67324828
REMARK  1 active torsions:
REMARK  status: ('A' for Active; 'I' for Inactive)
REMARK    1  A    between atoms: C_10  and  C_13
REMARK                            x       y       z     vdW  Elec       q    Type
REMARK                         _______ _______ _______ _____ _____    ______ ____
ROOT
ATOM      1  N   UNL     1     -19.597  39.983 -12.767  0.00  0.00    +0.000 N 
ATOM      2  N   UNL     1     -19.696  42.132 -13.756  0.00  0.00    +0.000 NA
ATOM      3  N   UNL     1     -18.203  39.636 -10.683  0.00  0.00    +0.000 NA
ATOM      4  C   UNL     1     -18.353  41.794 -11.810  0.00  0.00    +0.000 A 
ATOM      5  C   UNL     1     -19.223  41.315 -12.784  0.00  0.00    +0.000 A 
ATOM      6  C   UNL     1     -17.952  43.126 -11.812  0.00  0.00    +0.000 A 
ATOM      7  C   UNL     1     -19.192  39.144 -11.656  0.00  0.00    +0.000 C 
ATOM      8  C   UNL     1     -18.438  43.967 -12.803  0.00  0.00    +0.000 A 
ATOM      9  C   UNL     1     -17.851  40.872 -10.789  0.00  0.00    +0.000 C 
ATOM     10  C   UNL     1     -19.298  43.427 -13.743  0.00  0.00    +0.000 A 
ATOM     11  H   UNL     1     -20.234  39.634 -13.472  0.00  0.00    +0.000 HD
ENDROOT
BRANCH   8  14
ATOM     12  O   UNL     1     -18.813  46.264 -12.440  0.00  0.00    +0.000 OA
ATOM     13  N   UNL     1     -16.797  45.679 -13.362  0.00  0.00    +0.000 N 
ATOM     14  C   UNL     1     -18.056  45.367 -12.853  0.00  0.00    +0.000 C 
ATOM     15  H   UNL     1     -16.121  45.012 -13.712  0.00  0.00    +0.000 HD
ATOM     16  H   UNL     1     -16.501  46.650 -13.401  0.00  0.00    +0.000 HD
ENDBRANCH   8  14
TORSDOF 1
ENDMDL
