MODEL 1
REMARK VINA RESULT:    -6.283      0.000      0.000
REMARK INTER + INTRA:          -6.946
REMARK INTER:                  -7.018
REMARK INTRA:                   0.071
REMARK UNBOUND:                 0.071
REMARK  Name = 67408208
REMARK  2 active torsions:
REMARK  status: ('A' for Active; 'I' for Inactive)
REMARK    1  A    between atoms: C_8  and  C_11
REMARK    2  A    between atoms: C_9  and  C_14
REMARK                            x       y       z     vdW  Elec       q    Type
REMARK                         _______ _______ _______ _____ _____    ______ ____
ROOT
ATOM      1  N   UNL     1     -20.554  40.775  -7.957  0.00  0.00    +0.000 NA
ATOM      2  N   UNL     1     -19.842  42.458  -6.427  0.00  0.00    +0.000 N 
ATOM      3  C   UNL     1     -18.559  41.581  -9.743  0.00  0.00    +0.000 A 
ATOM      4  C   UNL     1     -19.411  40.532 -10.074  0.00  0.00    +0.000 A 
ATOM      5  C   UNL     1     -18.703  42.227  -8.520  0.00  0.00    +0.000 A 
ATOM      6  C   UNL     1     -19.708  41.789  -7.670  0.00  0.00    +0.000 A 
ATOM      7  C   UNL     1     -20.383  40.171  -9.155  0.00  0.00    +0.000 A 
ATOM      8  H   UNL     1     -19.019  42.882  -6.017  0.00  0.00    +0.000 HD
ATOM      9  H   UNL     1     -20.573  42.131  -5.807  0.00  0.00    +0.000 HD
ENDROOT
BRANCH   4  12
ATOM     10  O   UNL     1     -18.571  38.823 -11.461  0.00  0.00    +0.000 OA
ATOM     11  N   UNL     1     -20.072  40.278 -12.404  0.00  0.00    +0.000 N 
ATOM     12  C   UNL     1     -19.306  39.819 -11.337  0.00  0.00    +0.000 C 
ATOM     13  H   UNL     1     -20.683  41.084 -12.322  0.00  0.00    +0.000 HD
ATOM     14  H   UNL     1     -20.041  39.814 -13.307  0.00  0.00    +0.000 HD
ENDBRANCH   4  12
BRANCH   3  18
ATOM     15  F   UNL     1     -17.956  42.415 -11.902  0.00  0.00    +0.000 F 
ATOM     16  F   UNL     1     -16.787  43.098 -10.200  0.00  0.00    +0.000 F 
ATOM     17  F   UNL     1     -16.553  41.067 -10.941  0.00  0.00    +0.000 F 
ATOM     18  C   UNL     1     -17.485  42.029 -10.679  0.00  0.00    +0.000 C 
ENDBRANCH   3  18
TORSDOF 2
ENDMDL
MODEL 2
REMARK VINA RESULT:    -6.035      2.610      3.299
REMARK INTER + INTRA:          -6.669
REMARK INTER:                  -6.758
REMARK INTRA:                   0.088
REMARK UNBOUND:                 0.071
REMARK  Name = 67408208
REMARK  2 active torsions:
REMARK  status: ('A' for Active; 'I' for Inactive)
REMARK    1  A    between atoms: C_8  and  C_11
REMARK    2  A    between atoms: C_9  and  C_14
REMARK                            x       y       z     vdW  Elec       q    Type
REMARK                         _______ _______ _______ _____ _____    ______ ____
ROOT
ATOM      1  N   UNL     1     -18.167  42.137  -8.725  0.00  0.00    +0.000 NA
ATOM      2  N   UNL     1     -19.227  40.435  -7.436  0.00  0.00    +0.000 N 
ATOM      3  C   UNL     1     -18.685  40.673 -11.049  0.00  0.00    +0.000 A 
ATOM      4  C   UNL     1     -18.023  41.894 -11.126  0.00  0.00    +0.000 A 
ATOM      5  C   UNL     1     -19.089  40.184  -9.812  0.00  0.00    +0.000 A 
ATOM      6  C   UNL     1     -18.808  40.948  -8.690  0.00  0.00    +0.000 A 
ATOM      7  C   UNL     1     -17.790  42.580  -9.945  0.00  0.00    +0.000 A 
ATOM      8  H   UNL     1     -20.035  39.826  -7.410  0.00  0.00    +0.000 HD
ATOM      9  H   UNL     1     -19.025  40.999  -6.620  0.00  0.00    +0.000 HD
ENDROOT
BRANCH   4  12
ATOM     10  O   UNL     1     -18.329  43.163 -13.086  0.00  0.00    +0.000 OA
ATOM     11  N   UNL     1     -16.273  42.191 -12.794  0.00  0.00    +0.000 N 
ATOM     12  C   UNL     1     -17.578  42.456 -12.391  0.00  0.00    +0.000 C 
ATOM     13  H   UNL     1     -15.642  41.623 -12.238  0.00  0.00    +0.000 HD
ATOM     14  H   UNL     1     -15.909  42.563 -13.665  0.00  0.00    +0.000 HD
ENDBRANCH   4  12
BRANCH   3  18
ATOM     15  F   UNL     1     -19.556  38.666 -12.016  0.00  0.00    +0.000 F 
ATOM     16  F   UNL     1     -19.825  40.514 -13.130  0.00  0.00    +0.000 F 
ATOM     17  F   UNL     1     -17.863  39.583 -13.014  0.00  0.00    +0.000 F 
ATOM     18  C   UNL     1     -18.974  39.874 -12.277  0.00  0.00    +0.000 C 
ENDBRANCH   3  18
TORSDOF 2
ENDMDL
MODEL 3
REMARK VINA RESULT:    -5.818      1.734      1.914
REMARK INTER + INTRA:          -6.427
REMARK INTER:                  -6.585
REMARK INTRA:                   0.158
REMARK UNBOUND:                 0.071
REMARK  Name = 67408208
REMARK  2 active torsions:
REMARK  status: ('A' for Active; 'I' for Inactive)
REMARK    1  A    between atoms: C_8  and  C_11
REMARK    2  A    between atoms: C_9  and  C_14
REMARK                            x       y       z     vdW  Elec       q    Type
REMARK                         _______ _______ _______ _____ _____    ______ ____
ROOT
ATOM      1  N   UNL     1     -19.462  39.805  -9.413  0.00  0.00    +0.000 NA
ATOM      2  N   UNL     1     -19.508  41.050  -7.381  0.00  0.00    +0.000 N 
ATOM      3  C   UNL     1     -18.114  41.916 -10.654  0.00  0.00    +0.000 A 
ATOM      4  C   UNL     1     -18.423  40.766 -11.373  0.00  0.00    +0.000 A 
ATOM      5  C   UNL     1     -18.477  42.011  -9.315  0.00  0.00    +0.000 A 
ATOM      6  C   UNL     1     -19.144  40.937  -8.747  0.00  0.00    +0.000 A 
ATOM      7  C   UNL     1     -19.092  39.748 -10.712  0.00  0.00    +0.000 A 
ATOM      8  H   UNL     1     -18.943  41.635  -6.779  0.00  0.00    +0.000 HD
ATOM      9  H   UNL     1     -19.990  40.260  -6.968  0.00  0.00    +0.000 HD
ENDROOT
BRANCH   4  12
ATOM     10  O   UNL     1     -18.849  40.939 -13.683  0.00  0.00    +0.000 OA
ATOM     11  N   UNL     1     -16.808  40.094 -13.068  0.00  0.00    +0.000 N 
ATOM     12  C   UNL     1     -18.067  40.610 -12.774  0.00  0.00    +0.000 C 
ATOM     13  H   UNL     1     -16.152  39.826 -12.341  0.00  0.00    +0.000 HD
ATOM     14  H   UNL     1     -16.506  39.969 -14.028  0.00  0.00    +0.000 HD
ENDBRANCH   4  12
BRANCH   3  18
ATOM     15  F   UNL     1     -17.901  43.405 -12.514  0.00  0.00    +0.000 F 
ATOM     16  F   UNL     1     -17.437  44.192 -10.540  0.00  0.00    +0.000 F 
ATOM     17  F   UNL     1     -16.069  42.811 -11.515  0.00  0.00    +0.000 F 
ATOM     18  C   UNL     1     -17.394  43.057 -11.295  0.00  0.00    +0.000 C 
ENDBRANCH   3  18
TORSDOF 2
ENDMDL
MODEL 4
REMARK VINA RESULT:    -5.706      2.731      3.747
REMARK INTER + INTRA:          -6.302
REMARK INTER:                  -6.543
REMARK INTRA:                   0.241
REMARK UNBOUND:                 0.071
REMARK  Name = 67408208
REMARK  2 active torsions:
REMARK  status: ('A' for Active; 'I' for Inactive)
REMARK    1  A    between atoms: C_8  and  C_11
REMARK    2  A    between atoms: C_9  and  C_14
REMARK                            x       y       z     vdW  Elec       q    Type
REMARK                         _______ _______ _______ _____ _____    ______ ____
ROOT
ATOM      1  N   UNL     1     -17.124  43.188 -12.992  0.00  0.00    +0.000 NA
ATOM      2  N   UNL     1     -16.485  45.159 -11.814  0.00  0.00    +0.000 N 
ATOM      3  C   UNL     1     -18.126  42.114 -10.613  0.00  0.00    +0.000 A 
ATOM      4  C   UNL     1     -18.201  41.385 -11.795  0.00  0.00    +0.000 A 
ATOM      5  C   UNL     1     -17.551  43.380 -10.619  0.00  0.00    +0.000 A 
ATOM      6  C   UNL     1     -17.069  43.867 -11.824  0.00  0.00    +0.000 A 
ATOM      7  C   UNL     1     -17.691  41.962 -12.947  0.00  0.00    +0.000 A 
ATOM      8  H   UNL     1     -16.802  45.826 -11.121  0.00  0.00    +0.000 HD
ATOM      9  H   UNL     1     -16.140  45.513 -12.698  0.00  0.00    +0.000 HD
ENDROOT
BRANCH   4  12
ATOM     10  O   UNL     1     -18.238  39.078 -11.320  0.00  0.00    +0.000 OA
ATOM     11  N   UNL     1     -20.016  39.920 -12.498  0.00  0.00    +0.000 N 
ATOM     12  C   UNL     1     -18.793  40.058 -11.849  0.00  0.00    +0.000 C 
ATOM     13  H   UNL     1     -20.489  40.709 -12.929  0.00  0.00    +0.000 HD
ATOM     14  H   UNL     1     -20.477  39.019 -12.561  0.00  0.00    +0.000 HD
ENDBRANCH   4  12
BRANCH   3  18
ATOM     15  F   UNL     1     -19.928  41.079  -9.429  0.00  0.00    +0.000 F 
ATOM     16  F   UNL     1     -17.904  40.526  -8.858  0.00  0.00    +0.000 F 
ATOM     17  F   UNL     1     -18.697  42.478  -8.319  0.00  0.00    +0.000 F 
ATOM     18  C   UNL     1     -18.655  41.563  -9.330  0.00  0.00    +0.000 C 
ENDBRANCH   3  18
TORSDOF 2
ENDMDL
MODEL 5
REMARK VINA RESULT:    -5.387      3.334      4.821
REMARK INTER + INTRA:          -5.946
REMARK INTER:                  -6.058
REMARK INTRA:                   0.112
REMARK UNBOUND:                 0.071
REMARK  Name = 67408208
REMARK  2 active torsions:
REMARK  status: ('A' for Active; 'I' for Inactive)
REMARK    1  A    between atoms: C_8  and  C_11
REMARK    2  A    between atoms: C_9  and  C_14
REMARK                            x       y       z     vdW  Elec       q    Type
REMARK                         _______ _______ _______ _____ _____    ______ ____
ROOT
ATOM      1  N   UNL     1     -18.951  43.769 -13.570  0.00  0.00    +0.000 NA
ATOM      2  N   UNL     1     -20.420  42.707 -15.117  0.00  0.00    +0.000 N 
ATOM      3  C   UNL     1     -18.805  41.391 -12.106  0.00  0.00    +0.000 A 
ATOM      4  C   UNL     1     -18.100  42.514 -11.687  0.00  0.00    +0.000 A 
ATOM      5  C   UNL     1     -19.583  41.456 -13.257  0.00  0.00    +0.000 A 
ATOM      6  C   UNL     1     -19.622  42.657 -13.946  0.00  0.00    +0.000 A 
ATOM      7  C   UNL     1     -18.205  43.667 -12.447  0.00  0.00    +0.000 A 
ATOM      8  H   UNL     1     -20.564  41.852 -15.639  0.00  0.00    +0.000 HD
ATOM      9  H   UNL     1     -20.440  43.586 -15.621  0.00  0.00    +0.000 HD
ENDROOT
BRANCH   4  12
ATOM     10  O   UNL     1     -17.766  42.597  -9.356  0.00  0.00    +0.000 OA
ATOM     11  N   UNL     1     -15.894  42.370 -10.662  0.00  0.00    +0.000 N 
ATOM     12  C   UNL     1     -17.269  42.505 -10.493  0.00  0.00    +0.000 C 
ATOM     13  H   UNL     1     -15.470  42.286 -11.580  0.00  0.00    +0.000 HD
ATOM     14  H   UNL     1     -15.269  42.352  -9.864  0.00  0.00    +0.000 HD
ENDBRANCH   4  12
BRANCH   3  18
ATOM     15  F   UNL     1     -19.368  40.168 -10.129  0.00  0.00    +0.000 F 
ATOM     16  F   UNL     1     -19.330  39.075 -12.008  0.00  0.00    +0.000 F 
ATOM     17  F   UNL     1     -17.471  39.698 -11.070  0.00  0.00    +0.000 F 
ATOM     18  C   UNL     1     -18.743  40.110 -11.342  0.00  0.00    +0.000 C 
ENDBRANCH   3  18
TORSDOF 2
ENDMDL
