MODEL 1
REMARK VINA RESULT:    -5.922      0.000      0.000
REMARK INTER + INTRA:          -6.515
REMARK INTER:                  -6.614
REMARK INTRA:                   0.099
REMARK UNBOUND:                 0.099
REMARK  Name = 67528029
REMARK  4 active torsions:
REMARK  status: ('A' for Active; 'I' for Inactive)
REMARK    1  A    between atoms: N_2  and  C_5
REMARK    2  A    between atoms: N_2  and  C_7
REMARK    3  A    between atoms: N_2  and  C_8
REMARK    4  A    between atoms: C_6  and  C_11
REMARK                            x       y       z     vdW  Elec       q    Type
REMARK                         _______ _______ _______ _____ _____    ______ ____
ROOT
ATOM      1  N   UNL     1     -18.343  42.114  -8.678  0.00  0.00    +0.000 NA
ATOM      2  C   UNL     1     -18.439  41.439  -9.845  0.00  0.00    +0.000 A 
ATOM      3  C   UNL     1     -19.441  40.528 -10.134  0.00  0.00    +0.000 A 
ATOM      4  C   UNL     1     -20.409  40.294  -9.163  0.00  0.00    +0.000 A 
ATOM      5  C   UNL     1     -20.344  40.970  -7.949  0.00  0.00    +0.000 A 
ATOM      6  C   UNL     1     -19.301  41.861  -7.758  0.00  0.00    +0.000 A 
ENDROOT
BRANCH   3   9
ATOM      7  O   UNL     1     -19.178  38.620 -11.491  0.00  0.00    +0.000 OA
ATOM      8  N   UNL     1     -19.999  40.506 -12.506  0.00  0.00    +0.000 N 
ATOM      9  C   UNL     1     -19.516  39.813 -11.401  0.00  0.00    +0.000 C 
ATOM     10  H   UNL     1     -20.287  41.477 -12.449  0.00  0.00    +0.000 HD
ATOM     11  H   UNL     1     -20.076  40.055 -13.411  0.00  0.00    +0.000 HD
ENDBRANCH   3   9
BRANCH   2  12
ATOM     12  N   UNL     1     -17.448  41.680 -10.830  0.00  0.00    +0.000 N 
ATOM     13  C   UNL     1     -17.474  42.902 -11.603  0.00  0.00    +0.000 C 
ATOM     14  C   UNL     1     -16.400  40.711 -11.060  0.00  0.00    +0.000 C 
ENDBRANCH   2  12
TORSDOF 2
ENDMDL
MODEL 2
REMARK VINA RESULT:    -4.886      2.682      4.565
REMARK INTER + INTRA:          -5.357
REMARK INTER:                  -5.312
REMARK INTRA:                  -0.045
REMARK UNBOUND:                 0.099
REMARK  Name = 67528029
REMARK  4 active torsions:
REMARK  status: ('A' for Active; 'I' for Inactive)
REMARK    1  A    between atoms: N_2  and  C_5
REMARK    2  A    between atoms: N_2  and  C_7
REMARK    3  A    between atoms: N_2  and  C_8
REMARK    4  A    between atoms: C_6  and  C_11
REMARK                            x       y       z     vdW  Elec       q    Type
REMARK                         _______ _______ _______ _____ _____    ______ ____
ROOT
ATOM      1  N   UNL     1     -19.111  41.876 -13.906  0.00  0.00    +0.000 NA
ATOM      2  C   UNL     1     -18.413  41.769 -12.753  0.00  0.00    +0.000 A 
ATOM      3  C   UNL     1     -17.938  42.851 -12.030  0.00  0.00    +0.000 A 
ATOM      4  C   UNL     1     -18.196  44.126 -12.522  0.00  0.00    +0.000 A 
ATOM      5  C   UNL     1     -18.910  44.277 -13.705  0.00  0.00    +0.000 A 
ATOM      6  C   UNL     1     -19.342  43.130 -14.353  0.00  0.00    +0.000 A 
ENDROOT
BRANCH   3   9
ATOM      7  O   UNL     1     -17.759  42.646  -9.690  0.00  0.00    +0.000 OA
ATOM      8  N   UNL     1     -15.801  42.611 -10.885  0.00  0.00    +0.000 N 
ATOM      9  C   UNL     1     -17.186  42.704 -10.792  0.00  0.00    +0.000 C 
ATOM     10  H   UNL     1     -15.317  42.648 -11.776  0.00  0.00    +0.000 HD
ATOM     11  H   UNL     1     -15.229  42.502 -10.054  0.00  0.00    +0.000 HD
ENDBRANCH   3   9
BRANCH   2  12
ATOM     12  N   UNL     1     -18.151  40.466 -12.259  0.00  0.00    +0.000 N 
ATOM     13  C   UNL     1     -19.086  39.829 -11.358  0.00  0.00    +0.000 C 
ATOM     14  C   UNL     1     -16.953  39.763 -12.661  0.00  0.00    +0.000 C 
ENDBRANCH   2  12
TORSDOF 2
ENDMDL
MODEL 3
REMARK VINA RESULT:    -4.527      7.082      8.415
REMARK INTER + INTRA:          -4.957
REMARK INTER:                  -4.910
REMARK INTRA:                  -0.047
REMARK UNBOUND:                 0.099
REMARK  Name = 67528029
REMARK  4 active torsions:
REMARK  status: ('A' for Active; 'I' for Inactive)
REMARK    1  A    between atoms: N_2  and  C_5
REMARK    2  A    between atoms: N_2  and  C_7
REMARK    3  A    between atoms: N_2  and  C_8
REMARK    4  A    between atoms: C_6  and  C_11
REMARK                            x       y       z     vdW  Elec       q    Type
REMARK                         _______ _______ _______ _____ _____    ______ ____
ROOT
ATOM      1  N   UNL     1     -21.563  46.580 -17.635  0.00  0.00    +0.000 NA
ATOM      2  C   UNL     1     -20.923  45.459 -17.234  0.00  0.00    +0.000 A 
ATOM      3  C   UNL     1     -21.567  44.300 -16.831  0.00  0.00    +0.000 A 
ATOM      4  C   UNL     1     -22.957  44.291 -16.840  0.00  0.00    +0.000 A 
ATOM      5  C   UNL     1     -23.651  45.426 -17.246  0.00  0.00    +0.000 A 
ATOM      6  C   UNL     1     -22.914  46.534 -17.631  0.00  0.00    +0.000 A 
ENDROOT
BRANCH   3   9
ATOM      7  O   UNL     1     -20.471  42.251 -17.218  0.00  0.00    +0.000 OA
ATOM      8  N   UNL     1     -20.586  42.968 -15.043  0.00  0.00    +0.000 N 
ATOM      9  C   UNL     1     -20.850  43.108 -16.401  0.00  0.00    +0.000 C 
ATOM     10  H   UNL     1     -20.881  43.661 -14.362  0.00  0.00    +0.000 HD
ATOM     11  H   UNL     1     -20.085  42.160 -14.689  0.00  0.00    +0.000 HD
ENDBRANCH   3   9
BRANCH   2  12
ATOM     12  N   UNL     1     -19.505  45.476 -17.224  0.00  0.00    +0.000 N 
ATOM     13  C   UNL     1     -18.766  45.074 -18.400  0.00  0.00    +0.000 C 
ATOM     14  C   UNL     1     -18.791  45.903 -16.042  0.00  0.00    +0.000 C 
ENDBRANCH   2  12
TORSDOF 2
ENDMDL
MODEL 4
REMARK VINA RESULT:    -3.924      5.859      7.231
REMARK INTER + INTRA:          -4.283
REMARK INTER:                  -4.246
REMARK INTRA:                  -0.038
REMARK UNBOUND:                 0.099
REMARK  Name = 67528029
REMARK  4 active torsions:
REMARK  status: ('A' for Active; 'I' for Inactive)
REMARK    1  A    between atoms: N_2  and  C_5
REMARK    2  A    between atoms: N_2  and  C_7
REMARK    3  A    between atoms: N_2  and  C_8
REMARK    4  A    between atoms: C_6  and  C_11
REMARK                            x       y       z     vdW  Elec       q    Type
REMARK                         _______ _______ _______ _____ _____    ______ ____
ROOT
ATOM      1  N   UNL     1     -18.522  45.462 -15.339  0.00  0.00    +0.000 NA
ATOM      2  C   UNL     1     -19.499  44.915 -16.097  0.00  0.00    +0.000 A 
ATOM      3  C   UNL     1     -20.144  43.728 -15.793  0.00  0.00    +0.000 A 
ATOM      4  C   UNL     1     -19.763  43.058 -14.636  0.00  0.00    +0.000 A 
ATOM      5  C   UNL     1     -18.760  43.588 -13.831  0.00  0.00    +0.000 A 
ATOM      6  C   UNL     1     -18.177  44.782 -14.223  0.00  0.00    +0.000 A 
ENDROOT
BRANCH   3   9
ATOM      7  O   UNL     1     -22.375  43.530 -16.524  0.00  0.00    +0.000 OA
ATOM      8  N   UNL     1     -20.822  42.207 -17.571  0.00  0.00    +0.000 N 
ATOM      9  C   UNL     1     -21.192  43.163 -16.631  0.00  0.00    +0.000 C 
ATOM     10  H   UNL     1     -19.860  41.901 -17.678  0.00  0.00    +0.000 HD
ATOM     11  H   UNL     1     -21.510  41.784 -18.184  0.00  0.00    +0.000 HD
ENDBRANCH   3   9
BRANCH   2  12
ATOM     12  N   UNL     1     -19.881  45.603 -17.277  0.00  0.00    +0.000 N 
ATOM     13  C   UNL     1     -19.237  45.299 -18.535  0.00  0.00    +0.000 C 
ATOM     14  C   UNL     1     -20.922  46.605 -17.229  0.00  0.00    +0.000 C 
ENDBRANCH   2  12
TORSDOF 2
ENDMDL
MODEL 5
REMARK VINA RESULT:    -3.728     21.184     23.137
REMARK INTER + INTRA:          -4.065
REMARK INTER:                  -4.089
REMARK INTRA:                   0.024
REMARK UNBOUND:                 0.099
REMARK  Name = 67528029
REMARK  4 active torsions:
REMARK  status: ('A' for Active; 'I' for Inactive)
REMARK    1  A    between atoms: N_2  and  C_5
REMARK    2  A    between atoms: N_2  and  C_7
REMARK    3  A    between atoms: N_2  and  C_8
REMARK    4  A    between atoms: C_6  and  C_11
REMARK                            x       y       z     vdW  Elec       q    Type
REMARK                         _______ _______ _______ _____ _____    ______ ____
ROOT
ATOM      1  N   UNL     1     -33.842  43.966   4.228  0.00  0.00    +0.000 NA
ATOM      2  C   UNL     1     -34.785  43.931   5.196  0.00  0.00    +0.000 A 
ATOM      3  C   UNL     1     -34.761  43.060   6.272  0.00  0.00    +0.000 A 
ATOM      4  C   UNL     1     -33.700  42.165   6.361  0.00  0.00    +0.000 A 
ATOM      5  C   UNL     1     -32.710  42.170   5.385  0.00  0.00    +0.000 A 
ATOM      6  C   UNL     1     -32.826  43.082   4.348  0.00  0.00    +0.000 A 
ENDROOT
BRANCH   3   9
ATOM      7  O   UNL     1     -36.916  42.554   7.079  0.00  0.00    +0.000 OA
ATOM      8  N   UNL     1     -35.478  43.581   8.541  0.00  0.00    +0.000 N 
ATOM      9  C   UNL     1     -35.794  43.044   7.298  0.00  0.00    +0.000 C 
ATOM     10  H   UNL     1     -34.565  43.978   8.740  0.00  0.00    +0.000 HD
ATOM     11  H   UNL     1     -36.159  43.591   9.293  0.00  0.00    +0.000 HD
ENDBRANCH   3   9
BRANCH   2  12
ATOM     12  N   UNL     1     -35.865  44.844   5.096  0.00  0.00    +0.000 N 
ATOM     13  C   UNL     1     -35.859  46.064   5.873  0.00  0.00    +0.000 C 
ATOM     14  C   UNL     1     -36.974  44.565   4.212  0.00  0.00    +0.000 C 
ENDBRANCH   2  12
TORSDOF 2
ENDMDL
