MODEL 1
REMARK VINA RESULT:    -5.934      0.000      0.000
REMARK INTER + INTRA:          -6.184
REMARK INTER:                  -6.628
REMARK INTRA:                   0.444
REMARK UNBOUND:                 0.444
REMARK  Name = 67580014
REMARK  5 active torsions:
REMARK  status: ('A' for Active; 'I' for Inactive)
REMARK    1  A    between atoms: N_2  and  C_5
REMARK    2  A    between atoms: C_5  and  C_6
REMARK    3  A    between atoms: C_5  and  C_7
REMARK    4  A    between atoms: C_6  and  C_11
REMARK    5  A    between atoms: C_9  and  C_12
REMARK                            x       y       z     vdW  Elec       q    Type
REMARK                         _______ _______ _______ _____ _____    ______ ____
ROOT
ATOM      1  O   UNL     1     -20.326  43.193 -14.696  0.00  0.00    +0.000 OA
ATOM      2  N   UNL     1     -18.043  41.678 -11.756  0.00  0.00    +0.000 N 
ATOM      3  N   UNL     1     -19.729  41.385 -13.429  0.00  0.00    +0.000 NA
ATOM      4  N   UNL     1     -16.994  43.835 -11.402  0.00  0.00    +0.000 NA
ATOM      5  C   UNL     1     -17.885  43.050 -12.067  0.00  0.00    +0.000 A 
ATOM      6  C   UNL     1     -18.971  40.934 -12.472  0.00  0.00    +0.000 A 
ATOM      7  C   UNL     1     -18.677  43.583 -13.089  0.00  0.00    +0.000 A 
ATOM      8  C   UNL     1     -19.153  39.465 -12.147  0.00  0.00    +0.000 C 
ATOM      9  C   UNL     1     -19.641  42.708 -13.802  0.00  0.00    +0.000 A 
ATOM     10  C   UNL     1     -18.556  44.932 -13.432  0.00  0.00    +0.000 A 
ATOM     11  C   UNL     1     -17.647  45.729 -12.751  0.00  0.00    +0.000 A 
ATOM     12  C   UNL     1     -16.897  45.138 -11.754  0.00  0.00    +0.000 A 
ENDROOT
BRANCH   2  13
ATOM     13  C   UNL     1     -17.192  41.177 -10.684  0.00  0.00    +0.000 C 
ATOM     14  C   UNL     1     -16.223  40.153 -11.269  0.00  0.00    +0.000 C 
BRANCH  13  15
ATOM     15  C   UNL     1     -18.048  40.550  -9.576  0.00  0.00    +0.000 C 
ATOM     16  C   UNL     1     -18.759  41.593  -8.723  0.00  0.00    +0.000 C 
ENDBRANCH  13  15
ENDBRANCH   2  13
TORSDOF 2
ENDMDL
MODEL 2
REMARK VINA RESULT:    -5.369      1.670      4.265
REMARK INTER + INTRA:          -5.552
REMARK INTER:                  -6.111
REMARK INTRA:                   0.559
REMARK UNBOUND:                 0.444
REMARK  Name = 67580014
REMARK  5 active torsions:
REMARK  status: ('A' for Active; 'I' for Inactive)
REMARK    1  A    between atoms: N_2  and  C_5
REMARK    2  A    between atoms: C_5  and  C_6
REMARK    3  A    between atoms: C_5  and  C_7
REMARK    4  A    between atoms: C_6  and  C_11
REMARK    5  A    between atoms: C_9  and  C_12
REMARK                            x       y       z     vdW  Elec       q    Type
REMARK                         _______ _______ _______ _____ _____    ______ ____
ROOT
ATOM      1  O   UNL     1     -19.616  39.519 -12.794  0.00  0.00    +0.000 OA
ATOM      2  N   UNL     1     -18.078  43.112 -11.857  0.00  0.00    +0.000 N 
ATOM      3  N   UNL     1     -18.841  41.550 -13.503  0.00  0.00    +0.000 NA
ATOM      4  N   UNL     1     -18.117  42.559  -9.496  0.00  0.00    +0.000 NA
ATOM      5  C   UNL     1     -18.356  42.221 -10.792  0.00  0.00    +0.000 A 
ATOM      6  C   UNL     1     -18.345  42.703 -13.157  0.00  0.00    +0.000 A 
ATOM      7  C   UNL     1     -18.891  40.969 -11.112  0.00  0.00    +0.000 A 
ATOM      8  C   UNL     1     -18.049  43.646 -14.305  0.00  0.00    +0.000 C 
ATOM      9  C   UNL     1     -19.145  40.621 -12.533  0.00  0.00    +0.000 A 
ATOM     10  C   UNL     1     -19.181  40.056 -10.095  0.00  0.00    +0.000 A 
ATOM     11  C   UNL     1     -18.935  40.405  -8.776  0.00  0.00    +0.000 A 
ATOM     12  C   UNL     1     -18.407  41.657  -8.532  0.00  0.00    +0.000 A 
ENDROOT
BRANCH   2  13
ATOM     13  C   UNL     1     -17.523  44.402 -11.465  0.00  0.00    +0.000 C 
ATOM     14  C   UNL     1     -18.375  45.506 -12.084  0.00  0.00    +0.000 C 
BRANCH  13  15
ATOM     15  C   UNL     1     -16.064  44.513 -11.924  0.00  0.00    +0.000 C 
ATOM     16  C   UNL     1     -15.658  45.945 -12.249  0.00  0.00    +0.000 C 
ENDBRANCH  13  15
ENDBRANCH   2  13
TORSDOF 2
ENDMDL
MODEL 3
REMARK VINA RESULT:    -4.697      2.958      5.561
REMARK INTER + INTRA:          -4.802
REMARK INTER:                  -5.303
REMARK INTRA:                   0.501
REMARK UNBOUND:                 0.444
REMARK  Name = 67580014
REMARK  5 active torsions:
REMARK  status: ('A' for Active; 'I' for Inactive)
REMARK    1  A    between atoms: N_2  and  C_5
REMARK    2  A    between atoms: C_5  and  C_6
REMARK    3  A    between atoms: C_5  and  C_7
REMARK    4  A    between atoms: C_6  and  C_11
REMARK    5  A    between atoms: C_9  and  C_12
REMARK                            x       y       z     vdW  Elec       q    Type
REMARK                         _______ _______ _______ _____ _____    ______ ____
ROOT
ATOM      1  O   UNL     1     -19.588  41.698 -13.426  0.00  0.00    +0.000 OA
ATOM      2  N   UNL     1     -19.136  44.952 -15.740  0.00  0.00    +0.000 N 
ATOM      3  N   UNL     1     -19.962  42.727 -15.433  0.00  0.00    +0.000 NA
ATOM      4  N   UNL     1     -17.925  46.091 -13.975  0.00  0.00    +0.000 NA
ATOM      5  C   UNL     1     -18.584  44.994 -14.437  0.00  0.00    +0.000 A 
ATOM      6  C   UNL     1     -19.794  43.800 -16.150  0.00  0.00    +0.000 A 
ATOM      7  C   UNL     1     -18.738  43.864 -13.627  0.00  0.00    +0.000 A 
ATOM      8  C   UNL     1     -20.386  43.742 -17.543  0.00  0.00    +0.000 C 
ATOM      9  C   UNL     1     -19.461  42.678 -14.151  0.00  0.00    +0.000 A 
ATOM     10  C   UNL     1     -18.211  43.858 -12.333  0.00  0.00    +0.000 A 
ATOM     11  C   UNL     1     -17.540  44.979 -11.866  0.00  0.00    +0.000 A 
ATOM     12  C   UNL     1     -17.425  46.059 -12.719  0.00  0.00    +0.000 A 
ENDROOT
BRANCH   2  13
ATOM     13  C   UNL     1     -18.946  46.156 -16.539  0.00  0.00    +0.000 C 
ATOM     14  C   UNL     1     -20.316  46.744 -16.867  0.00  0.00    +0.000 C 
BRANCH  13  15
ATOM     15  C   UNL     1     -18.171  45.826 -17.821  0.00  0.00    +0.000 C 
ATOM     16  C   UNL     1     -16.704  46.229 -17.740  0.00  0.00    +0.000 C 
ENDBRANCH  13  15
ENDBRANCH   2  13
TORSDOF 2
ENDMDL
MODEL 4
REMARK VINA RESULT:    -4.468     13.459     14.693
REMARK INTER + INTRA:          -4.546
REMARK INTER:                  -5.070
REMARK INTRA:                   0.524
REMARK UNBOUND:                 0.444
REMARK  Name = 67580014
REMARK  5 active torsions:
REMARK  status: ('A' for Active; 'I' for Inactive)
REMARK    1  A    between atoms: N_2  and  C_5
REMARK    2  A    between atoms: C_5  and  C_6
REMARK    3  A    between atoms: C_5  and  C_7
REMARK    4  A    between atoms: C_6  and  C_11
REMARK    5  A    between atoms: C_9  and  C_12
REMARK                            x       y       z     vdW  Elec       q    Type
REMARK                         _______ _______ _______ _____ _____    ______ ____
ROOT
ATOM      1  O   UNL     1     -30.782  46.542 -14.339  0.00  0.00    +0.000 OA
ATOM      2  N   UNL     1     -31.619  43.186 -16.386  0.00  0.00    +0.000 N 
ATOM      3  N   UNL     1     -30.473  45.281 -16.222  0.00  0.00    +0.000 NA
ATOM      4  N   UNL     1     -33.078  42.417 -14.609  0.00  0.00    +0.000 NA
ATOM      5  C   UNL     1     -32.234  43.353 -15.121  0.00  0.00    +0.000 A 
ATOM      6  C   UNL     1     -30.770  44.181 -16.851  0.00  0.00    +0.000 A 
ATOM      7  C   UNL     1     -31.947  44.519 -14.404  0.00  0.00    +0.000 A 
ATOM      8  C   UNL     1     -30.108  44.017 -18.204  0.00  0.00    +0.000 C 
ATOM      9  C   UNL     1     -31.023  45.527 -14.983  0.00  0.00    +0.000 A 
ATOM     10  C   UNL     1     -32.531  44.728 -13.152  0.00  0.00    +0.000 A 
ATOM     11  C   UNL     1     -33.390  43.771 -12.634  0.00  0.00    +0.000 A 
ATOM     12  C   UNL     1     -33.629  42.644 -13.395  0.00  0.00    +0.000 A 
ENDROOT
BRANCH   2  13
ATOM     13  C   UNL     1     -31.953  41.954 -17.087  0.00  0.00    +0.000 C 
ATOM     14  C   UNL     1     -30.673  41.151 -17.300  0.00  0.00    +0.000 C 
BRANCH  13  15
ATOM     15  C   UNL     1     -32.630  42.272 -18.427  0.00  0.00    +0.000 C 
ATOM     16  C   UNL     1     -32.382  41.199 -19.479  0.00  0.00    +0.000 C 
ENDBRANCH  13  15
ENDBRANCH   2  13
TORSDOF 2
ENDMDL
MODEL 5
REMARK VINA RESULT:    -4.435     13.518     14.911
REMARK INTER + INTRA:          -4.510
REMARK INTER:                  -5.034
REMARK INTRA:                   0.524
REMARK UNBOUND:                 0.444
REMARK  Name = 67580014
REMARK  5 active torsions:
REMARK  status: ('A' for Active; 'I' for Inactive)
REMARK    1  A    between atoms: N_2  and  C_5
REMARK    2  A    between atoms: C_5  and  C_6
REMARK    3  A    between atoms: C_5  and  C_7
REMARK    4  A    between atoms: C_6  and  C_11
REMARK    5  A    between atoms: C_9  and  C_12
REMARK                            x       y       z     vdW  Elec       q    Type
REMARK                         _______ _______ _______ _____ _____    ______ ____
ROOT
ATOM      1  O   UNL     1     -30.105  46.285 -15.272  0.00  0.00    +0.000 OA
ATOM      2  N   UNL     1     -33.006  43.754 -14.117  0.00  0.00    +0.000 N 
ATOM      3  N   UNL     1     -31.800  45.800 -13.815  0.00  0.00    +0.000 NA
ATOM      4  N   UNL     1     -32.446  42.226 -15.914  0.00  0.00    +0.000 NA
ATOM      5  C   UNL     1     -32.227  43.388 -15.241  0.00  0.00    +0.000 A 
ATOM      6  C   UNL     1     -32.729  44.953 -13.474  0.00  0.00    +0.000 A 
ATOM      7  C   UNL     1     -31.216  44.265 -15.648  0.00  0.00    +0.000 A 
ATOM      8  C   UNL     1     -33.552  45.355 -12.268  0.00  0.00    +0.000 C 
ATOM      9  C   UNL     1     -30.995  45.528 -14.900  0.00  0.00    +0.000 A 
ATOM     10  C   UNL     1     -30.421  43.947 -16.752  0.00  0.00    +0.000 A 
ATOM     11  C   UNL     1     -30.648  42.761 -17.435  0.00  0.00    +0.000 A 
ATOM     12  C   UNL     1     -31.662  41.942 -16.979  0.00  0.00    +0.000 A 
ENDROOT
BRANCH   2  13
ATOM     13  C   UNL     1     -34.044  42.804 -13.738  0.00  0.00    +0.000 C 
ATOM     14  C   UNL     1     -35.401  43.490 -13.864  0.00  0.00    +0.000 C 
BRANCH  13  15
ATOM     15  C   UNL     1     -33.812  42.306 -12.306  0.00  0.00    +0.000 C 
ATOM     16  C   UNL     1     -35.104  41.893 -11.612  0.00  0.00    +0.000 C 
ENDBRANCH  13  15
ENDBRANCH   2  13
TORSDOF 2
ENDMDL
