MODEL 1
REMARK VINA RESULT:    -6.148      0.000      0.000
REMARK INTER + INTRA:          -6.975
REMARK INTER:                  -6.867
REMARK INTRA:                  -0.108
REMARK UNBOUND:                -0.108
REMARK  Name = 67952719
REMARK  3 active torsions:
REMARK  status: ('A' for Active; 'I' for Inactive)
REMARK    1  A    between atoms: N_2  and  C_12
REMARK    2  A    between atoms: N_4  and  N_5
REMARK    3  A    between atoms: C_6  and  C_10
REMARK                            x       y       z     vdW  Elec       q    Type
REMARK                         _______ _______ _______ _____ _____    ______ ____
ROOT
ATOM      1  N   UNL     1     -18.020  41.824  -8.910  0.00  0.00    +0.000 NA
ATOM      2  N   UNL     1     -16.985  40.563 -10.647  0.00  0.00    +0.000 N 
ATOM      3  C   UNL     1     -20.285  41.297  -8.247  0.00  0.00    +0.000 A 
ATOM      4  C   UNL     1     -20.333  40.281  -9.195  0.00  0.00    +0.000 A 
ATOM      5  C   UNL     1     -19.227  40.034  -9.999  0.00  0.00    +0.000 A 
ATOM      6  C   UNL     1     -18.104  40.827  -9.820  0.00  0.00    +0.000 A 
ATOM      7  C   UNL     1     -19.116  42.034  -8.147  0.00  0.00    +0.000 A 
ATOM      8  H   UNL     1     -16.163  41.143 -10.516  0.00  0.00    +0.000 HD
ENDROOT
BRANCH   3  11
ATOM      9  O   UNL     1     -22.536  41.074  -7.632  0.00  0.00    +0.000 OA
ATOM     10  N   UNL     1     -21.204  42.419  -6.293  0.00  0.00    +0.000 N 
ATOM     11  C   UNL     1     -21.424  41.580  -7.393  0.00  0.00    +0.000 C 
ATOM     12  C   UNL     1     -22.230  42.774  -5.339  0.00  0.00    +0.000 C 
ATOM     13  H   UNL     1     -20.265  42.744  -6.086  0.00  0.00    +0.000 HD
ENDBRANCH   3  11
BRANCH   2  14
ATOM     14  N   UNL     1     -17.034  39.584 -11.561  0.00  0.00    +0.000 NA
ATOM     15  C   UNL     1     -16.930  40.018 -12.770  0.00  0.00    +0.000 C 
ENDBRANCH   2  14
TORSDOF 2
ENDMDL
MODEL 2
REMARK VINA RESULT:    -5.580      2.072      5.711
REMARK INTER + INTRA:          -6.341
REMARK INTER:                  -6.369
REMARK INTRA:                   0.028
REMARK UNBOUND:                -0.108
REMARK  Name = 67952719
REMARK  3 active torsions:
REMARK  status: ('A' for Active; 'I' for Inactive)
REMARK    1  A    between atoms: N_2  and  C_12
REMARK    2  A    between atoms: N_4  and  N_5
REMARK    3  A    between atoms: C_6  and  C_10
REMARK                            x       y       z     vdW  Elec       q    Type
REMARK                         _______ _______ _______ _____ _____    ______ ____
ROOT
ATOM      1  N   UNL     1     -21.337  40.225  -8.653  0.00  0.00    +0.000 NA
ATOM      2  N   UNL     1     -22.132  41.696  -6.955  0.00  0.00    +0.000 N 
ATOM      3  C   UNL     1     -19.111  40.532  -9.543  0.00  0.00    +0.000 A 
ATOM      4  C   UNL     1     -18.914  41.618  -8.697  0.00  0.00    +0.000 A 
ATOM      5  C   UNL     1     -19.927  42.008  -7.829  0.00  0.00    +0.000 A 
ATOM      6  C   UNL     1     -21.110  41.286  -7.845  0.00  0.00    +0.000 A 
ATOM      7  C   UNL     1     -20.329  39.876  -9.483  0.00  0.00    +0.000 A 
ATOM      8  H   UNL     1     -22.998  41.168  -6.965  0.00  0.00    +0.000 HD
ENDROOT
BRANCH   3  11
ATOM      9  O   UNL     1     -18.279  39.166 -11.258  0.00  0.00    +0.000 OA
ATOM     10  N   UNL     1     -16.855  40.792 -10.420  0.00  0.00    +0.000 N 
ATOM     11  C   UNL     1     -18.072  40.100 -10.462  0.00  0.00    +0.000 C 
ATOM     12  C   UNL     1     -15.736  40.497 -11.285  0.00  0.00    +0.000 C 
ATOM     13  H   UNL     1     -16.754  41.600  -9.814  0.00  0.00    +0.000 HD
ENDBRANCH   3  11
BRANCH   2  14
ATOM     14  N   UNL     1     -21.942  42.744  -6.141  0.00  0.00    +0.000 NA
ATOM     15  C   UNL     1     -21.600  42.399  -4.948  0.00  0.00    +0.000 C 
ENDBRANCH   2  14
TORSDOF 2
ENDMDL
MODEL 3
REMARK VINA RESULT:    -5.563      2.920      5.719
REMARK INTER + INTRA:          -6.322
REMARK INTER:                  -6.186
REMARK INTRA:                  -0.137
REMARK UNBOUND:                -0.108
REMARK  Name = 67952719
REMARK  3 active torsions:
REMARK  status: ('A' for Active; 'I' for Inactive)
REMARK    1  A    between atoms: N_2  and  C_12
REMARK    2  A    between atoms: N_4  and  N_5
REMARK    3  A    between atoms: C_6  and  C_10
REMARK                            x       y       z     vdW  Elec       q    Type
REMARK                         _______ _______ _______ _____ _____    ______ ____
ROOT
ATOM      1  N   UNL     1     -19.707  39.673  -9.993  0.00  0.00    +0.000 NA
ATOM      2  N   UNL     1     -21.354  40.351  -8.410  0.00  0.00    +0.000 N 
ATOM      3  C   UNL     1     -17.695  40.989 -10.252  0.00  0.00    +0.000 A 
ATOM      4  C   UNL     1     -18.140  41.874  -9.277  0.00  0.00    +0.000 A 
ATOM      5  C   UNL     1     -19.367  41.661  -8.659  0.00  0.00    +0.000 A 
ATOM      6  C   UNL     1     -20.106  40.555  -9.049  0.00  0.00    +0.000 A 
ATOM      7  C   UNL     1     -18.509  39.915 -10.572  0.00  0.00    +0.000 A 
ATOM      8  H   UNL     1     -21.895  39.542  -8.695  0.00  0.00    +0.000 HD
ENDROOT
BRANCH   3  11
ATOM      9  O   UNL     1     -15.854  40.240 -11.495  0.00  0.00    +0.000 OA
ATOM     10  N   UNL     1     -15.879  42.478 -10.891  0.00  0.00    +0.000 N 
ATOM     11  C   UNL     1     -16.419  41.186 -10.917  0.00  0.00    +0.000 C 
ATOM     12  C   UNL     1     -14.631  42.837 -11.525  0.00  0.00    +0.000 C 
ATOM     13  H   UNL     1     -16.409  43.239 -10.480  0.00  0.00    +0.000 HD
ENDBRANCH   3  11
BRANCH   2  14
ATOM     14  N   UNL     1     -21.782  41.207  -7.471  0.00  0.00    +0.000 NA
ATOM     15  C   UNL     1     -23.051  41.129  -7.261  0.00  0.00    +0.000 C 
ENDBRANCH   2  14
TORSDOF 2
ENDMDL
MODEL 4
REMARK VINA RESULT:    -5.308      4.113      5.989
REMARK INTER + INTRA:          -6.037
REMARK INTER:                  -5.950
REMARK INTRA:                  -0.087
REMARK UNBOUND:                -0.108
REMARK  Name = 67952719
REMARK  3 active torsions:
REMARK  status: ('A' for Active; 'I' for Inactive)
REMARK    1  A    between atoms: N_2  and  C_12
REMARK    2  A    between atoms: N_4  and  N_5
REMARK    3  A    between atoms: C_6  and  C_10
REMARK                            x       y       z     vdW  Elec       q    Type
REMARK                         _______ _______ _______ _____ _____    ______ ____
ROOT
ATOM      1  N   UNL     1     -17.653  43.146 -11.279  0.00  0.00    +0.000 NA
ATOM      2  N   UNL     1     -17.817  41.631  -9.447  0.00  0.00    +0.000 N 
ATOM      3  C   UNL     1     -18.968  42.753 -13.269  0.00  0.00    +0.000 A 
ATOM      4  C   UNL     1     -19.508  41.608 -12.694  0.00  0.00    +0.000 A 
ATOM      5  C   UNL     1     -19.123  41.232 -11.412  0.00  0.00    +0.000 A 
ATOM      6  C   UNL     1     -18.200  42.027 -10.752  0.00  0.00    +0.000 A 
ATOM      7  C   UNL     1     -18.051  43.479 -12.527  0.00  0.00    +0.000 A 
ATOM      8  H   UNL     1     -17.142  42.212  -8.963  0.00  0.00    +0.000 HD
ENDROOT
BRANCH   3  11
ATOM      9  O   UNL     1     -19.983  42.404 -15.353  0.00  0.00    +0.000 OA
ATOM     10  N   UNL     1     -18.992  44.469 -14.994  0.00  0.00    +0.000 N 
ATOM     11  C   UNL     1     -19.350  43.172 -14.605  0.00  0.00    +0.000 C 
ATOM     12  C   UNL     1     -19.320  45.038 -16.281  0.00  0.00    +0.000 C 
ATOM     13  H   UNL     1     -18.548  45.092 -14.327  0.00  0.00    +0.000 HD
ENDBRANCH   3  11
BRANCH   2  14
ATOM     14  N   UNL     1     -18.338  40.525  -8.895  0.00  0.00    +0.000 NA
ATOM     15  C   UNL     1     -19.117  40.780  -7.901  0.00  0.00    +0.000 C 
ENDBRANCH   2  14
TORSDOF 2
ENDMDL
MODEL 5
REMARK VINA RESULT:    -5.200      4.158      6.364
REMARK INTER + INTRA:          -5.916
REMARK INTER:                  -5.806
REMARK INTRA:                  -0.110
REMARK UNBOUND:                -0.108
REMARK  Name = 67952719
REMARK  3 active torsions:
REMARK  status: ('A' for Active; 'I' for Inactive)
REMARK    1  A    between atoms: N_2  and  C_12
REMARK    2  A    between atoms: N_4  and  N_5
REMARK    3  A    between atoms: C_6  and  C_10
REMARK                            x       y       z     vdW  Elec       q    Type
REMARK                         _______ _______ _______ _____ _____    ______ ____
ROOT
ATOM      1  N   UNL     1     -19.215  41.480 -12.639  0.00  0.00    +0.000 NA
ATOM      2  N   UNL     1     -19.928  40.313 -10.688  0.00  0.00    +0.000 N 
ATOM      3  C   UNL     1     -17.282  42.927 -12.518  0.00  0.00    +0.000 A 
ATOM      4  C   UNL     1     -17.126  42.619 -11.172  0.00  0.00    +0.000 A 
ATOM      5  C   UNL     1     -18.013  41.742 -10.558  0.00  0.00    +0.000 A 
ATOM      6  C   UNL     1     -19.032  41.204 -11.328  0.00  0.00    +0.000 A 
ATOM      7  C   UNL     1     -18.333  42.337 -13.201  0.00  0.00    +0.000 A 
ATOM      8  H   UNL     1     -20.673  39.918 -11.251  0.00  0.00    +0.000 HD
ENDROOT
BRANCH   3  11
ATOM      9  O   UNL     1     -15.144  43.761 -13.000  0.00  0.00    +0.000 OA
ATOM     10  N   UNL     1     -16.938  44.781 -14.057  0.00  0.00    +0.000 N 
ATOM     11  C   UNL     1     -16.372  43.839 -13.188  0.00  0.00    +0.000 C 
ATOM     12  C   UNL     1     -16.165  45.740 -14.812  0.00  0.00    +0.000 C 
ATOM     13  H   UNL     1     -17.935  44.759 -14.245  0.00  0.00    +0.000 HD
ENDBRANCH   3  11
BRANCH   2  14
ATOM     14  N   UNL     1     -19.778  40.018  -9.389  0.00  0.00    +0.000 NA
ATOM     15  C   UNL     1     -20.791  40.367  -8.674  0.00  0.00    +0.000 C 
ENDBRANCH   2  14
TORSDOF 2
ENDMDL
