MODEL 1
REMARK VINA RESULT:    -6.103      0.000      0.000
REMARK INTER + INTRA:          -6.907
REMARK INTER:                  -6.817
REMARK INTRA:                  -0.090
REMARK UNBOUND:                -0.090
REMARK  Name = 68012899
REMARK  3 active torsions:
REMARK  status: ('A' for Active; 'I' for Inactive)
REMARK    1  A    between atoms: C_4  and  C_6
REMARK    2  A    between atoms: C_4  and  C_8
REMARK    3  A    between atoms: C_5  and  C_6
REMARK                            x       y       z     vdW  Elec       q    Type
REMARK                         _______ _______ _______ _____ _____    ______ ____
ROOT
ATOM      1  N   UNL     1     -19.156  39.776 -10.030  0.00  0.00    +0.000 NA
ATOM      2  N   UNL     1     -16.902  40.368 -10.524  0.00  0.00    +0.000 N 
ATOM      3  C   UNL     1     -20.403  41.081  -8.422  0.00  0.00    +0.000 A 
ATOM      4  C   UNL     1     -19.302  41.905  -8.225  0.00  0.00    +0.000 A 
ATOM      5  C   UNL     1     -20.281  40.039  -9.328  0.00  0.00    +0.000 A 
ATOM      6  C   UNL     1     -18.127  41.667  -8.931  0.00  0.00    +0.000 A 
ATOM      7  C   UNL     1     -18.106  40.599  -9.813  0.00  0.00    +0.000 A 
ATOM      8  H   UNL     1     -16.295  41.157 -10.713  0.00  0.00    +0.000 HD
ATOM      9  H   UNL     1     -16.894  39.591 -11.172  0.00  0.00    +0.000 HD
ENDROOT
BRANCH   3  11
ATOM     10  O   UNL     1     -22.624  40.546  -7.861  0.00  0.00    +0.000 OA
ATOM     11  C   UNL     1     -21.644  41.304  -7.701  0.00  0.00    +0.000 C 
BRANCH  11  12
ATOM     12  C   UNL     1     -21.764  42.487  -6.721  0.00  0.00    +0.000 C 
ATOM     13  C   UNL     1     -21.230  42.181  -5.331  0.00  0.00    +0.000 C 
ENDBRANCH  11  12
ENDBRANCH   3  11
TORSDOF 2
ENDMDL
MODEL 2
REMARK VINA RESULT:    -6.100      2.669      4.790
REMARK INTER + INTRA:          -6.903
REMARK INTER:                  -6.808
REMARK INTRA:                  -0.095
REMARK UNBOUND:                -0.090
REMARK  Name = 68012899
REMARK  3 active torsions:
REMARK  status: ('A' for Active; 'I' for Inactive)
REMARK    1  A    between atoms: C_4  and  C_6
REMARK    2  A    between atoms: C_4  and  C_8
REMARK    3  A    between atoms: C_5  and  C_6
REMARK                            x       y       z     vdW  Elec       q    Type
REMARK                         _______ _______ _______ _____ _____    ______ ____
ROOT
ATOM      1  N   UNL     1     -18.851  42.233  -7.933  0.00  0.00    +0.000 NA
ATOM      2  N   UNL     1     -20.567  42.603  -6.324  0.00  0.00    +0.000 N 
ATOM      3  C   UNL     1     -19.142  40.514  -9.608  0.00  0.00    +0.000 A 
ATOM      4  C   UNL     1     -20.388  40.198  -9.078  0.00  0.00    +0.000 A 
ATOM      5  C   UNL     1     -18.419  41.530  -9.005  0.00  0.00    +0.000 A 
ATOM      6  C   UNL     1     -20.867  40.899  -7.977  0.00  0.00    +0.000 A 
ATOM      7  C   UNL     1     -20.066  41.898  -7.446  0.00  0.00    +0.000 A 
ATOM      8  H   UNL     1     -21.571  42.686  -6.215  0.00  0.00    +0.000 HD
ATOM      9  H   UNL     1     -19.982  43.336  -5.944  0.00  0.00    +0.000 HD
ENDROOT
BRANCH   3  11
ATOM     10  O   UNL     1     -19.295  38.925 -11.336  0.00  0.00    +0.000 OA
ATOM     11  C   UNL     1     -18.615  39.799 -10.758  0.00  0.00    +0.000 C 
BRANCH  11  12
ATOM     12  C   UNL     1     -17.201  40.117 -11.281  0.00  0.00    +0.000 C 
ATOM     13  C   UNL     1     -17.056  39.949 -12.784  0.00  0.00    +0.000 C 
ENDBRANCH  11  12
ENDBRANCH   3  11
TORSDOF 2
ENDMDL
MODEL 3
REMARK VINA RESULT:    -5.773      1.633      2.562
REMARK INTER + INTRA:          -6.538
REMARK INTER:                  -6.449
REMARK INTRA:                  -0.089
REMARK UNBOUND:                -0.090
REMARK  Name = 68012899
REMARK  3 active torsions:
REMARK  status: ('A' for Active; 'I' for Inactive)
REMARK    1  A    between atoms: C_4  and  C_6
REMARK    2  A    between atoms: C_4  and  C_8
REMARK    3  A    between atoms: C_5  and  C_6
REMARK                            x       y       z     vdW  Elec       q    Type
REMARK                         _______ _______ _______ _____ _____    ______ ____
ROOT
ATOM      1  N   UNL     1     -17.014  40.707 -10.897  0.00  0.00    +0.000 NA
ATOM      2  N   UNL     1     -16.626  39.793 -13.063  0.00  0.00    +0.000 N 
ATOM      3  C   UNL     1     -19.155  40.365  -9.829  0.00  0.00    +0.000 A 
ATOM      4  C   UNL     1     -19.597  39.641 -10.930  0.00  0.00    +0.000 A 
ATOM      5  C   UNL     1     -17.866  40.872  -9.861  0.00  0.00    +0.000 A 
ATOM      6  C   UNL     1     -18.749  39.448 -12.015  0.00  0.00    +0.000 A 
ATOM      7  C   UNL     1     -17.478  39.997 -11.949  0.00  0.00    +0.000 A 
ATOM      8  H   UNL     1     -16.760  38.963 -13.627  0.00  0.00    +0.000 HD
ATOM      9  H   UNL     1     -15.697  40.191 -13.008  0.00  0.00    +0.000 HD
ENDROOT
BRANCH   3  11
ATOM     10  O   UNL     1     -21.138  40.034  -8.607  0.00  0.00    +0.000 OA
ATOM     11  C   UNL     1     -20.018  40.583  -8.680  0.00  0.00    +0.000 C 
BRANCH  11  12
ATOM     12  C   UNL     1     -19.555  41.499  -7.531  0.00  0.00    +0.000 C 
ATOM     13  C   UNL     1     -20.665  41.863  -6.559  0.00  0.00    +0.000 C 
ENDBRANCH  11  12
ENDBRANCH   3  11
TORSDOF 2
ENDMDL
MODEL 4
REMARK VINA RESULT:    -5.471      2.875      4.523
REMARK INTER + INTRA:          -6.200
REMARK INTER:                  -6.060
REMARK INTRA:                  -0.140
REMARK UNBOUND:                -0.090
REMARK  Name = 68012899
REMARK  3 active torsions:
REMARK  status: ('A' for Active; 'I' for Inactive)
REMARK    1  A    between atoms: C_4  and  C_6
REMARK    2  A    between atoms: C_4  and  C_8
REMARK    3  A    between atoms: C_5  and  C_6
REMARK                            x       y       z     vdW  Elec       q    Type
REMARK                         _______ _______ _______ _____ _____    ______ ____
ROOT
ATOM      1  N   UNL     1     -21.468  40.753  -7.937  0.00  0.00    +0.000 NA
ATOM      2  N   UNL     1     -21.805  42.209  -6.082  0.00  0.00    +0.000 N 
ATOM      3  C   UNL     1     -19.346  40.776  -9.096  0.00  0.00    +0.000 A 
ATOM      4  C   UNL     1     -18.877  41.759  -8.233  0.00  0.00    +0.000 A 
ATOM      5  C   UNL     1     -20.638  40.310  -8.908  0.00  0.00    +0.000 A 
ATOM      6  C   UNL     1     -19.701  42.240  -7.222  0.00  0.00    +0.000 A 
ATOM      7  C   UNL     1     -20.977  41.709  -7.117  0.00  0.00    +0.000 A 
ATOM      8  H   UNL     1     -21.365  42.565  -5.242  0.00  0.00    +0.000 HD
ATOM      9  H   UNL     1     -22.734  41.814  -6.006  0.00  0.00    +0.000 HD
ENDROOT
BRANCH   3  11
ATOM     10  O   UNL     1     -17.267  40.210 -10.039  0.00  0.00    +0.000 OA
ATOM     11  C   UNL     1     -18.509  40.254 -10.163  0.00  0.00    +0.000 C 
BRANCH  11  12
ATOM     12  C   UNL     1     -19.151  39.744 -11.467  0.00  0.00    +0.000 C 
ATOM     13  C   UNL     1     -19.529  40.854 -12.433  0.00  0.00    +0.000 C 
ENDBRANCH  11  12
ENDBRANCH   3  11
TORSDOF 2
ENDMDL
MODEL 5
REMARK VINA RESULT:    -5.011      3.381      4.387
REMARK INTER + INTRA:          -5.687
REMARK INTER:                  -5.564
REMARK INTRA:                  -0.123
REMARK UNBOUND:                -0.090
REMARK  Name = 68012899
REMARK  3 active torsions:
REMARK  status: ('A' for Active; 'I' for Inactive)
REMARK    1  A    between atoms: C_4  and  C_6
REMARK    2  A    between atoms: C_4  and  C_8
REMARK    3  A    between atoms: C_5  and  C_6
REMARK                            x       y       z     vdW  Elec       q    Type
REMARK                         _______ _______ _______ _____ _____    ______ ____
ROOT
ATOM      1  N   UNL     1     -17.318  42.998 -12.252  0.00  0.00    +0.000 NA
ATOM      2  N   UNL     1     -17.787  44.228 -14.238  0.00  0.00    +0.000 N 
ATOM      3  C   UNL     1     -18.773  41.178 -11.610  0.00  0.00    +0.000 A 
ATOM      4  C   UNL     1     -19.565  41.405 -12.730  0.00  0.00    +0.000 A 
ATOM      5  C   UNL     1     -17.671  41.995 -11.418  0.00  0.00    +0.000 A 
ATOM      6  C   UNL     1     -19.234  42.428 -13.612  0.00  0.00    +0.000 A 
ATOM      7  C   UNL     1     -18.111  43.189 -13.330  0.00  0.00    +0.000 A 
ATOM      8  H   UNL     1     -18.065  44.126 -15.206  0.00  0.00    +0.000 HD
ATOM      9  H   UNL     1     -16.962  44.777 -14.031  0.00  0.00    +0.000 HD
ENDROOT
BRANCH   3  11
ATOM     10  O   UNL     1     -19.237  38.939 -11.059  0.00  0.00    +0.000 OA
ATOM     11  C   UNL     1     -19.093  40.117 -10.670  0.00  0.00    +0.000 C 
BRANCH  11  12
ATOM     12  C   UNL     1     -19.258  40.438  -9.172  0.00  0.00    +0.000 C 
ATOM     13  C   UNL     1     -20.702  40.412  -8.700  0.00  0.00    +0.000 C 
ENDBRANCH  11  12
ENDBRANCH   3  11
TORSDOF 2
ENDMDL
