MODEL 1
REMARK VINA RESULT:    -6.265      0.000      0.000
REMARK INTER + INTRA:          -6.265
REMARK INTER:                  -6.265
REMARK INTRA:                   0.000
REMARK UNBOUND:                 0.000
REMARK  Name = 68036950
REMARK  1 active torsions:
REMARK  status: ('A' for Active; 'I' for Inactive)
REMARK    1  A    between atoms: N_3  and  C_11
REMARK                            x       y       z     vdW  Elec       q    Type
REMARK                         _______ _______ _______ _____ _____    ______ ____
ROOT
ATOM      1 CL   UNL     1     -23.685  40.465  -7.270  0.00  0.00    +0.000 Cl
ATOM      2  O   UNL     1     -19.224  42.824  -6.761  0.00  0.00    +0.000 OA
ATOM      3  N   UNL     1     -21.287  41.746  -6.981  0.00  0.00    +0.000 N 
ATOM      4  N   UNL     1     -21.603  40.127  -8.700  0.00  0.00    +0.000 NA
ATOM      5  N   UNL     1     -19.880  39.599 -10.172  0.00  0.00    +0.000 NA
ATOM      6  C   UNL     1     -19.445  41.248  -8.477  0.00  0.00    +0.000 A 
ATOM      7  C   UNL     1     -19.958  42.020  -7.327  0.00  0.00    +0.000 A 
ATOM      8  C   UNL     1     -20.281  40.340  -9.113  0.00  0.00    +0.000 A 
ATOM      9  C   UNL     1     -22.046  40.807  -7.690  0.00  0.00    +0.000 A 
ATOM     10  C   UNL     1     -18.141  41.409  -8.942  0.00  0.00    +0.000 A 
ATOM     11  C   UNL     1     -21.820  42.495  -5.845  0.00  0.00    +0.000 C 
ATOM     12  C   UNL     1     -17.711  40.657 -10.027  0.00  0.00    +0.000 A 
ATOM     13  C   UNL     1     -18.609  39.775 -10.602  0.00  0.00    +0.000 A 
ENDROOT
TORSDOF 0
ENDMDL
MODEL 2
REMARK VINA RESULT:    -5.728      4.716      5.724
REMARK INTER + INTRA:          -5.728
REMARK INTER:                  -5.728
REMARK INTRA:                   0.000
REMARK UNBOUND:                 0.000
REMARK  Name = 68036950
REMARK  1 active torsions:
REMARK  status: ('A' for Active; 'I' for Inactive)
REMARK    1  A    between atoms: N_3  and  C_11
REMARK                            x       y       z     vdW  Elec       q    Type
REMARK                         _______ _______ _______ _____ _____    ______ ____
ROOT
ATOM      1 CL   UNL     1     -19.787  43.821 -15.788  0.00  0.00    +0.000 Cl
ATOM      2  O   UNL     1     -17.475  44.205 -11.290  0.00  0.00    +0.000 OA
ATOM      3  N   UNL     1     -18.538  44.046 -13.367  0.00  0.00    +0.000 N 
ATOM      4  N   UNL     1     -19.458  41.965 -14.073  0.00  0.00    +0.000 NA
ATOM      5  N   UNL     1     -19.315  40.078 -12.720  0.00  0.00    +0.000 NA
ATOM      6  C   UNL     1     -18.350  42.123 -11.903  0.00  0.00    +0.000 A 
ATOM      7  C   UNL     1     -18.073  43.553 -12.141  0.00  0.00    +0.000 A 
ATOM      8  C   UNL     1     -19.027  41.391 -12.870  0.00  0.00    +0.000 A 
ATOM      9  C   UNL     1     -19.211  43.221 -14.276  0.00  0.00    +0.000 A 
ATOM     10  C   UNL     1     -17.950  41.487 -10.729  0.00  0.00    +0.000 A 
ATOM     11  C   UNL     1     -18.277  45.460 -13.629  0.00  0.00    +0.000 C 
ATOM     12  C   UNL     1     -18.237  40.139 -10.556  0.00  0.00    +0.000 A 
ATOM     13  C   UNL     1     -18.915  39.485 -11.571  0.00  0.00    +0.000 A 
ENDROOT
TORSDOF 0
ENDMDL
MODEL 3
REMARK VINA RESULT:    -5.536      4.310      5.356
REMARK INTER + INTRA:          -5.536
REMARK INTER:                  -5.536
REMARK INTRA:                   0.000
REMARK UNBOUND:                 0.000
REMARK  Name = 68036950
REMARK  1 active torsions:
REMARK  status: ('A' for Active; 'I' for Inactive)
REMARK    1  A    between atoms: N_3  and  C_11
REMARK                            x       y       z     vdW  Elec       q    Type
REMARK                         _______ _______ _______ _____ _____    ______ ____
ROOT
ATOM      1 CL   UNL     1     -19.592  38.881 -11.651  0.00  0.00    +0.000 Cl
ATOM      2  O   UNL     1     -17.220  43.269 -10.737  0.00  0.00    +0.000 OA
ATOM      3  N   UNL     1     -18.308  41.239 -11.142  0.00  0.00    +0.000 N 
ATOM      4  N   UNL     1     -19.527  40.929 -13.166  0.00  0.00    +0.000 NA
ATOM      5  N   UNL     1     -19.652  42.625 -14.754  0.00  0.00    +0.000 NA
ATOM      6  C   UNL     1     -18.393  43.052 -12.750  0.00  0.00    +0.000 A 
ATOM      7  C   UNL     1     -17.911  42.547 -11.449  0.00  0.00    +0.000 A 
ATOM      8  C   UNL     1     -19.175  42.230 -13.550  0.00  0.00    +0.000 A 
ATOM      9  C   UNL     1     -19.100  40.493 -12.022  0.00  0.00    +0.000 A 
ATOM     10  C   UNL     1     -18.082  44.336 -13.196  0.00  0.00    +0.000 A 
ATOM     11  C   UNL     1     -17.844  40.714  -9.860  0.00  0.00    +0.000 C 
ATOM     12  C   UNL     1     -18.562  44.759 -14.429  0.00  0.00    +0.000 A 
ATOM     13  C   UNL     1     -19.335  43.876 -15.162  0.00  0.00    +0.000 A 
ENDROOT
TORSDOF 0
ENDMDL
MODEL 4
REMARK VINA RESULT:    -5.462      4.783      6.002
REMARK INTER + INTRA:          -5.462
REMARK INTER:                  -5.462
REMARK INTRA:                   0.000
REMARK UNBOUND:                 0.000
REMARK  Name = 68036950
REMARK  1 active torsions:
REMARK  status: ('A' for Active; 'I' for Inactive)
REMARK    1  A    between atoms: N_3  and  C_11
REMARK                            x       y       z     vdW  Elec       q    Type
REMARK                         _______ _______ _______ _____ _____    ______ ____
ROOT
ATOM      1 CL   UNL     1     -17.063  45.840 -11.745  0.00  0.00    +0.000 Cl
ATOM      2  O   UNL     1     -19.475  42.313 -14.477  0.00  0.00    +0.000 OA
ATOM      3  N   UNL     1     -18.365  43.951 -13.232  0.00  0.00    +0.000 N 
ATOM      4  N   UNL     1     -17.608  43.456 -11.028  0.00  0.00    +0.000 NA
ATOM      5  N   UNL     1     -17.958  41.356 -10.090  0.00  0.00    +0.000 NA
ATOM      6  C   UNL     1     -18.766  41.740 -12.322  0.00  0.00    +0.000 A 
ATOM      7  C   UNL     1     -18.910  42.679 -13.452  0.00  0.00    +0.000 A 
ATOM      8  C   UNL     1     -18.126  42.162 -11.164  0.00  0.00    +0.000 A 
ATOM      9  C   UNL     1     -17.738  44.276 -12.023  0.00  0.00    +0.000 A 
ATOM     10  C   UNL     1     -19.258  40.437 -12.388  0.00  0.00    +0.000 A 
ATOM     11  C   UNL     1     -18.492  44.901 -14.335  0.00  0.00    +0.000 C 
ATOM     12  C   UNL     1     -19.095  39.595 -11.296  0.00  0.00    +0.000 A 
ATOM     13  C   UNL     1     -18.445  40.096 -10.182  0.00  0.00    +0.000 A 
ENDROOT
TORSDOF 0
ENDMDL
MODEL 5
REMARK VINA RESULT:    -4.939      6.308      7.396
REMARK INTER + INTRA:          -4.939
REMARK INTER:                  -4.939
REMARK INTRA:                   0.000
REMARK UNBOUND:                 0.000
REMARK  Name = 68036950
REMARK  1 active torsions:
REMARK  status: ('A' for Active; 'I' for Inactive)
REMARK    1  A    between atoms: N_3  and  C_11
REMARK                            x       y       z     vdW  Elec       q    Type
REMARK                         _______ _______ _______ _____ _____    ______ ____
ROOT
ATOM      1 CL   UNL     1     -20.754  42.749 -17.203  0.00  0.00    +0.000 Cl
ATOM      2  O   UNL     1     -18.124  46.152 -14.514  0.00  0.00    +0.000 OA
ATOM      3  N   UNL     1     -19.338  44.595 -15.767  0.00  0.00    +0.000 N 
ATOM      4  N   UNL     1     -19.748  42.421 -14.884  0.00  0.00    +0.000 NA
ATOM      5  N   UNL     1     -18.955  41.819 -12.782  0.00  0.00    +0.000 NA
ATOM      6  C   UNL     1     -18.479  44.041 -13.569  0.00  0.00    +0.000 A 
ATOM      7  C   UNL     1     -18.621  45.038 -14.649  0.00  0.00    +0.000 A 
ATOM      8  C   UNL     1     -19.044  42.782 -13.728  0.00  0.00    +0.000 A 
ATOM      9  C   UNL     1     -19.869  43.301 -15.828  0.00  0.00    +0.000 A 
ATOM     10  C   UNL     1     -17.792  44.331 -12.392  0.00  0.00    +0.000 A 
ATOM     11  C   UNL     1     -19.494  45.563 -16.851  0.00  0.00    +0.000 C 
ATOM     12  C   UNL     1     -17.689  43.355 -11.409  0.00  0.00    +0.000 A 
ATOM     13  C   UNL     1     -18.282  42.128 -11.649  0.00  0.00    +0.000 A 
ENDROOT
TORSDOF 0
ENDMDL
