MODEL 1
REMARK VINA RESULT:    -6.634      0.000      0.000
REMARK INTER + INTRA:          -7.133
REMARK INTER:                  -7.410
REMARK INTRA:                   0.277
REMARK UNBOUND:                 0.277
REMARK  Name = 68083878
REMARK  4 active torsions:
REMARK  status: ('A' for Active; 'I' for Inactive)
REMARK    1  A    between atoms: N_2  and  C_8
REMARK    2  A    between atoms: N_2  and  C_9
REMARK    3  A    between atoms: N_4  and  C_13
REMARK    4  A    between atoms: C_6  and  C_7
REMARK                            x       y       z     vdW  Elec       q    Type
REMARK                         _______ _______ _______ _____ _____    ______ ____
ROOT
ATOM      1  N   UNL     1     -21.857  40.463  -8.209  0.00  0.00    +0.000 NA
ATOM      2  C   UNL     1     -19.547  40.938  -8.742  0.00  0.00    +0.000 A 
ATOM      3  C   UNL     1     -19.547  41.989  -7.831  0.00  0.00    +0.000 A 
ATOM      4  C   UNL     1     -20.718  40.212  -8.892  0.00  0.00    +0.000 A 
ATOM      5  C   UNL     1     -20.699  42.278  -7.110  0.00  0.00    +0.000 A 
ATOM      6  C   UNL     1     -21.819  41.492  -7.333  0.00  0.00    +0.000 A 
ENDROOT
BRANCH   2   9
ATOM      7  O   UNL     1     -17.353  40.268  -8.873  0.00  0.00    +0.000 OA
ATOM      8  N   UNL     1     -18.412  40.685 -10.915  0.00  0.00    +0.000 N 
ATOM      9  C   UNL     1     -18.343  40.607  -9.521  0.00  0.00    +0.000 C 
ATOM     10  C   UNL     1     -17.276  40.361 -11.767  0.00  0.00    +0.000 C 
ATOM     11  C   UNL     1     -19.628  41.097 -11.612  0.00  0.00    +0.000 C 
ENDBRANCH   2   9
BRANCH   6  12
ATOM     12  N   UNL     1     -23.001  41.742  -6.630  0.00  0.00    +0.000 NA
ATOM     13  N   UNL     1     -22.899  42.810  -5.991  0.00  0.00    +0.000 NA
ATOM     14  H   UNL     1     -23.756  43.014  -5.465  0.00  0.00    +0.000 HD
ENDBRANCH   6  12
TORSDOF 2
ENDMDL
MODEL 2
REMARK VINA RESULT:    -5.799      2.098      2.804
REMARK INTER + INTRA:          -6.200
REMARK INTER:                  -6.557
REMARK INTRA:                   0.358
REMARK UNBOUND:                 0.277
REMARK  Name = 68083878
REMARK  4 active torsions:
REMARK  status: ('A' for Active; 'I' for Inactive)
REMARK    1  A    between atoms: N_2  and  C_8
REMARK    2  A    between atoms: N_2  and  C_9
REMARK    3  A    between atoms: N_4  and  C_13
REMARK    4  A    between atoms: C_6  and  C_7
REMARK                            x       y       z     vdW  Elec       q    Type
REMARK                         _______ _______ _______ _____ _____    ______ ____
ROOT
ATOM      1  N   UNL     1     -18.444  42.425  -8.485  0.00  0.00    +0.000 NA
ATOM      2  C   UNL     1     -19.028  41.010 -10.356  0.00  0.00    +0.000 A 
ATOM      3  C   UNL     1     -20.027  40.409  -9.597  0.00  0.00    +0.000 A 
ATOM      4  C   UNL     1     -18.272  42.006  -9.758  0.00  0.00    +0.000 A 
ATOM      5  C   UNL     1     -20.235  40.814  -8.284  0.00  0.00    +0.000 A 
ATOM      6  C   UNL     1     -19.423  41.817  -7.778  0.00  0.00    +0.000 A 
ENDROOT
BRANCH   2   9
ATOM      7  O   UNL     1     -19.741  40.694 -12.518  0.00  0.00    +0.000 OA
ATOM      8  N   UNL     1     -17.501  40.168 -12.098  0.00  0.00    +0.000 N 
ATOM      9  C   UNL     1     -18.783  40.604 -11.749  0.00  0.00    +0.000 C 
ATOM     10  C   UNL     1     -17.163  39.762 -13.455  0.00  0.00    +0.000 C 
ATOM     11  C   UNL     1     -16.414  40.090 -11.125  0.00  0.00    +0.000 C 
ENDBRANCH   2   9
BRANCH   6  12
ATOM     12  N   UNL     1     -19.596  42.261  -6.464  0.00  0.00    +0.000 NA
ATOM     13  N   UNL     1     -20.810  42.257  -6.169  0.00  0.00    +0.000 NA
ATOM     14  H   UNL     1     -20.962  42.580  -5.207  0.00  0.00    +0.000 HD
ENDBRANCH   6  12
TORSDOF 2
ENDMDL
MODEL 3
REMARK VINA RESULT:    -5.597      3.960      5.398
REMARK INTER + INTRA:          -5.974
REMARK INTER:                  -5.947
REMARK INTRA:                  -0.027
REMARK UNBOUND:                 0.277
REMARK  Name = 68083878
REMARK  4 active torsions:
REMARK  status: ('A' for Active; 'I' for Inactive)
REMARK    1  A    between atoms: N_2  and  C_8
REMARK    2  A    between atoms: N_2  and  C_9
REMARK    3  A    between atoms: N_4  and  C_13
REMARK    4  A    between atoms: C_6  and  C_7
REMARK                            x       y       z     vdW  Elec       q    Type
REMARK                         _______ _______ _______ _____ _____    ______ ____
ROOT
ATOM      1  N   UNL     1     -18.121  40.366 -12.553  0.00  0.00    +0.000 NA
ATOM      2  C   UNL     1     -17.070  42.532 -12.345  0.00  0.00    +0.000 A 
ATOM      3  C   UNL     1     -17.471  42.607 -11.016  0.00  0.00    +0.000 A 
ATOM      4  C   UNL     1     -17.417  41.400 -13.064  0.00  0.00    +0.000 A 
ATOM      5  C   UNL     1     -18.196  41.563 -10.455  0.00  0.00    +0.000 A 
ATOM      6  C   UNL     1     -18.494  40.474 -11.258  0.00  0.00    +0.000 A 
ENDROOT
BRANCH   2   9
ATOM      7  O   UNL     1     -15.076  43.560 -12.850  0.00  0.00    +0.000 OA
ATOM      8  N   UNL     1     -16.999  44.621 -13.653  0.00  0.00    +0.000 N 
ATOM      9  C   UNL     1     -16.300  43.621 -12.969  0.00  0.00    +0.000 C 
ATOM     10  C   UNL     1     -16.321  45.727 -14.314  0.00  0.00    +0.000 C 
ATOM     11  C   UNL     1     -18.456  44.624 -13.751  0.00  0.00    +0.000 C 
ENDBRANCH   2   9
BRANCH   6  12
ATOM     12  N   UNL     1     -19.219  39.398 -10.738  0.00  0.00    +0.000 NA
ATOM     13  N   UNL     1     -19.539  38.615 -11.657  0.00  0.00    +0.000 NA
ATOM     14  H   UNL     1     -20.074  37.816 -11.299  0.00  0.00    +0.000 HD
ENDBRANCH   6  12
TORSDOF 2
ENDMDL
MODEL 4
REMARK VINA RESULT:    -5.581      4.389      5.601
REMARK INTER + INTRA:          -5.957
REMARK INTER:                  -5.941
REMARK INTRA:                  -0.016
REMARK UNBOUND:                 0.277
REMARK  Name = 68083878
REMARK  4 active torsions:
REMARK  status: ('A' for Active; 'I' for Inactive)
REMARK    1  A    between atoms: N_2  and  C_8
REMARK    2  A    between atoms: N_2  and  C_9
REMARK    3  A    between atoms: N_4  and  C_13
REMARK    4  A    between atoms: C_6  and  C_7
REMARK                            x       y       z     vdW  Elec       q    Type
REMARK                         _______ _______ _______ _____ _____    ______ ____
ROOT
ATOM      1  N   UNL     1     -18.968  41.301 -13.540  0.00  0.00    +0.000 NA
ATOM      2  C   UNL     1     -18.010  43.038 -12.159  0.00  0.00    +0.000 A 
ATOM      3  C   UNL     1     -18.118  42.218 -11.041  0.00  0.00    +0.000 A 
ATOM      4  C   UNL     1     -18.445  42.537 -13.375  0.00  0.00    +0.000 A 
ATOM      5  C   UNL     1     -18.649  40.940 -11.172  0.00  0.00    +0.000 A 
ATOM      6  C   UNL     1     -19.057  40.532 -12.432  0.00  0.00    +0.000 A 
ENDROOT
BRANCH   2   9
ATOM      7  O   UNL     1     -18.264  45.308 -11.904  0.00  0.00    +0.000 OA
ATOM      8  N   UNL     1     -16.063  44.549 -12.115  0.00  0.00    +0.000 N 
ATOM      9  C   UNL     1     -17.451  44.396 -12.054  0.00  0.00    +0.000 C 
ATOM     10  C   UNL     1     -15.421  45.851 -12.004  0.00  0.00    +0.000 C 
ATOM     11  C   UNL     1     -15.162  43.413 -12.295  0.00  0.00    +0.000 C 
ENDBRANCH   2   9
BRANCH   6  12
ATOM     12  N   UNL     1     -19.595  39.255 -12.615  0.00  0.00    +0.000 NA
ATOM     13  N   UNL     1     -19.527  38.608 -11.549  0.00  0.00    +0.000 NA
ATOM     14  H   UNL     1     -19.916  37.665 -11.658  0.00  0.00    +0.000 HD
ENDBRANCH   6  12
TORSDOF 2
ENDMDL
MODEL 5
REMARK VINA RESULT:    -4.817     13.849     14.926
REMARK INTER + INTRA:          -5.103
REMARK INTER:                  -5.081
REMARK INTRA:                  -0.022
REMARK UNBOUND:                 0.277
REMARK  Name = 68083878
REMARK  4 active torsions:
REMARK  status: ('A' for Active; 'I' for Inactive)
REMARK    1  A    between atoms: N_2  and  C_8
REMARK    2  A    between atoms: N_2  and  C_9
REMARK    3  A    between atoms: N_4  and  C_13
REMARK    4  A    between atoms: C_6  and  C_7
REMARK                            x       y       z     vdW  Elec       q    Type
REMARK                         _______ _______ _______ _____ _____    ______ ____
ROOT
ATOM      1  N   UNL     1     -36.079  42.997 -13.356  0.00  0.00    +0.000 NA
ATOM      2  C   UNL     1     -33.664  42.997 -13.472  0.00  0.00    +0.000 A 
ATOM      3  C   UNL     1     -33.601  42.254 -12.299  0.00  0.00    +0.000 A 
ATOM      4  C   UNL     1     -34.917  43.340 -13.955  0.00  0.00    +0.000 A 
ATOM      5  C   UNL     1     -34.775  41.882 -11.654  0.00  0.00    +0.000 A 
ATOM      6  C   UNL     1     -35.978  42.275 -12.218  0.00  0.00    +0.000 A 
ENDROOT
BRANCH   2   9
ATOM      7  O   UNL     1     -32.053  42.657 -15.075  0.00  0.00    +0.000 OA
ATOM      8  N   UNL     1     -31.823  44.603 -13.801  0.00  0.00    +0.000 N 
ATOM      9  C   UNL     1     -32.440  43.407 -14.179  0.00  0.00    +0.000 C 
ATOM     10  C   UNL     1     -30.618  45.094 -14.454  0.00  0.00    +0.000 C 
ATOM     11  C   UNL     1     -32.345  45.441 -12.723  0.00  0.00    +0.000 C 
ENDBRANCH   2   9
BRANCH   6  12
ATOM     12  N   UNL     1     -37.186  41.923 -11.608  0.00  0.00    +0.000 NA
ATOM     13  N   UNL     1     -37.049  40.851 -10.981  0.00  0.00    +0.000 NA
ATOM     14  H   UNL     1     -37.924  40.570 -10.524  0.00  0.00    +0.000 HD
ENDBRANCH   6  12
TORSDOF 2
ENDMDL
