MODEL 1
REMARK VINA RESULT:    -7.045      0.000      0.000
REMARK INTER + INTRA:          -7.205
REMARK INTER:                  -7.662
REMARK INTRA:                   0.457
REMARK UNBOUND:                 0.457
REMARK  Name = 68261432
REMARK  2 active torsions:
REMARK  status: ('A' for Active; 'I' for Inactive)
REMARK    1  A    between atoms: N_3  and  C_6
REMARK    2  A    between atoms: C_10  and  C_11
REMARK                            x       y       z     vdW  Elec       q    Type
REMARK                         _______ _______ _______ _____ _____    ______ ____
ROOT
ATOM      1  O   UNL     1     -19.429  39.086 -10.582  0.00  0.00    +0.000 OA
ATOM      2  N   UNL     1     -18.357  41.052 -11.194  0.00  0.00    +0.000 N 
ATOM      3  C   UNL     1     -16.775  42.628 -11.946  0.00  0.00    +0.000 C 
ATOM      4  C   UNL     1     -17.212  41.762 -13.128  0.00  0.00    +0.000 C 
ATOM      5  C   UNL     1     -17.917  42.427 -10.951  0.00  0.00    +0.000 C 
ATOM      6  C   UNL     1     -17.796  40.538 -12.436  0.00  0.00    +0.000 C 
ATOM      7  C   UNL     1     -19.138  40.260 -10.367  0.00  0.00    +0.000 C 
ENDROOT
BRANCH   7  10
ATOM      8  N   UNL     1     -19.226  42.201  -7.155  0.00  0.00    +0.000 NA
ATOM      9  N   UNL     1     -21.000  42.614  -5.619  0.00  0.00    +0.000 N 
ATOM     10  C   UNL     1     -19.649  40.866  -9.128  0.00  0.00    +0.000 A 
ATOM     11  C   UNL     1     -20.976  40.707  -8.744  0.00  0.00    +0.000 A 
ATOM     12  C   UNL     1     -18.822  41.616  -8.306  0.00  0.00    +0.000 A 
ATOM     13  C   UNL     1     -21.428  41.292  -7.567  0.00  0.00    +0.000 A 
ATOM     14  C   UNL     1     -20.522  42.023  -6.816  0.00  0.00    +0.000 A 
ATOM     15  H   UNL     1     -21.979  42.863  -5.562  0.00  0.00    +0.000 HD
ATOM     16  H   UNL     1     -20.335  43.151  -5.076  0.00  0.00    +0.000 HD
ENDBRANCH   7  10
BRANCH   3  17
ATOM     17  N   UNL     1     -16.577  44.019 -12.307  0.00  0.00    +0.000 NA
ATOM     18  H   UNL     1     -15.581  44.236 -12.311  0.00  0.00    +0.000 HD
ATOM     19  H   UNL     1     -17.003  44.622 -11.604  0.00  0.00    +0.000 HD
ENDBRANCH   3  17
TORSDOF 2
ENDMDL
MODEL 2
REMARK VINA RESULT:    -6.854      1.828      2.091
REMARK INTER + INTRA:          -6.997
REMARK INTER:                  -7.053
REMARK INTRA:                   0.056
REMARK UNBOUND:                 0.457
REMARK  Name = 68261432
REMARK  2 active torsions:
REMARK  status: ('A' for Active; 'I' for Inactive)
REMARK    1  A    between atoms: N_3  and  C_6
REMARK    2  A    between atoms: C_10  and  C_11
REMARK                            x       y       z     vdW  Elec       q    Type
REMARK                         _______ _______ _______ _____ _____    ______ ____
ROOT
ATOM      1  O   UNL     1     -17.376  40.130  -8.940  0.00  0.00    +0.000 OA
ATOM      2  N   UNL     1     -18.346  40.929 -10.892  0.00  0.00    +0.000 N 
ATOM      3  C   UNL     1     -18.729  42.004 -12.954  0.00  0.00    +0.000 C 
ATOM      4  C   UNL     1     -17.749  40.851 -13.171  0.00  0.00    +0.000 C 
ATOM      5  C   UNL     1     -19.399  41.622 -11.635  0.00  0.00    +0.000 C 
ATOM      6  C   UNL     1     -17.226  40.598 -11.764  0.00  0.00    +0.000 C 
ATOM      7  C   UNL     1     -18.313  40.657  -9.533  0.00  0.00    +0.000 C 
ENDROOT
BRANCH   7  10
ATOM      8  N   UNL     1     -21.826  40.711  -8.212  0.00  0.00    +0.000 NA
ATOM      9  N   UNL     1     -22.852  42.054  -6.532  0.00  0.00    +0.000 N 
ATOM     10  C   UNL     1     -19.488  41.041  -8.735  0.00  0.00    +0.000 A 
ATOM     11  C   UNL     1     -19.410  42.049  -7.780  0.00  0.00    +0.000 A 
ATOM     12  C   UNL     1     -20.709  40.408  -8.911  0.00  0.00    +0.000 A 
ATOM     13  C   UNL     1     -20.538  42.389  -7.042  0.00  0.00    +0.000 A 
ATOM     14  C   UNL     1     -21.711  41.696  -7.294  0.00  0.00    +0.000 A 
ATOM     15  H   UNL     1     -22.711  42.438  -5.606  0.00  0.00    +0.000 HD
ATOM     16  H   UNL     1     -23.705  41.541  -6.716  0.00  0.00    +0.000 HD
ENDBRANCH   7  10
BRANCH   3  17
ATOM     17  N   UNL     1     -19.672  42.158 -14.045  0.00  0.00    +0.000 NA
ATOM     18  H   UNL     1     -20.349  41.396 -14.024  0.00  0.00    +0.000 HD
ATOM     19  H   UNL     1     -19.183  42.087 -14.936  0.00  0.00    +0.000 HD
ENDBRANCH   3  17
TORSDOF 2
ENDMDL
MODEL 3
REMARK VINA RESULT:    -6.375      1.358      5.375
REMARK INTER + INTRA:          -6.476
REMARK INTER:                  -6.425
REMARK INTRA:                  -0.051
REMARK UNBOUND:                 0.457
REMARK  Name = 68261432
REMARK  2 active torsions:
REMARK  status: ('A' for Active; 'I' for Inactive)
REMARK    1  A    between atoms: N_3  and  C_6
REMARK    2  A    between atoms: C_10  and  C_11
REMARK                            x       y       z     vdW  Elec       q    Type
REMARK                         _______ _______ _______ _____ _____    ______ ____
ROOT
ATOM      1  O   UNL     1     -18.848  39.555 -11.913  0.00  0.00    +0.000 OA
ATOM      2  N   UNL     1     -19.028  40.732  -9.919  0.00  0.00    +0.000 N 
ATOM      3  C   UNL     1     -19.853  41.792  -7.984  0.00  0.00    +0.000 C 
ATOM      4  C   UNL     1     -20.029  40.281  -7.834  0.00  0.00    +0.000 C 
ATOM      5  C   UNL     1     -18.777  41.892  -9.064  0.00  0.00    +0.000 C 
ATOM      6  C   UNL     1     -19.943  39.798  -9.275  0.00  0.00    +0.000 C 
ATOM      7  C   UNL     1     -18.557  40.517 -11.206  0.00  0.00    +0.000 C 
ENDROOT
BRANCH   7  10
ATOM      8  N   UNL     1     -15.433  42.492 -11.858  0.00  0.00    +0.000 NA
ATOM      9  N   UNL     1     -15.011  44.326 -13.319  0.00  0.00    +0.000 N 
ATOM     10  C   UNL     1     -17.647  41.524 -11.774  0.00  0.00    +0.000 A 
ATOM     11  C   UNL     1     -18.090  42.435 -12.726  0.00  0.00    +0.000 A 
ATOM     12  C   UNL     1     -16.321  41.593 -11.377  0.00  0.00    +0.000 A 
ATOM     13  C   UNL     1     -17.206  43.375 -13.244  0.00  0.00    +0.000 A 
ATOM     14  C   UNL     1     -15.900  43.362 -12.781  0.00  0.00    +0.000 A 
ATOM     15  H   UNL     1     -15.184  44.670 -14.256  0.00  0.00    +0.000 HD
ATOM     16  H   UNL     1     -14.057  44.309 -12.982  0.00  0.00    +0.000 HD
ENDBRANCH   7  10
BRANCH   3  17
ATOM     17  N   UNL     1     -19.473  42.442  -6.744  0.00  0.00    +0.000 NA
ATOM     18  H   UNL     1     -19.622  41.806  -5.962  0.00  0.00    +0.000 HD
ATOM     19  H   UNL     1     -20.073  43.249  -6.580  0.00  0.00    +0.000 HD
ENDBRANCH   3  17
TORSDOF 2
ENDMDL
MODEL 4
REMARK VINA RESULT:    -6.343      2.384      3.573
REMARK INTER + INTRA:          -6.442
REMARK INTER:                  -6.329
REMARK INTRA:                  -0.113
REMARK UNBOUND:                 0.457
REMARK  Name = 68261432
REMARK  2 active torsions:
REMARK  status: ('A' for Active; 'I' for Inactive)
REMARK    1  A    between atoms: N_3  and  C_6
REMARK    2  A    between atoms: C_10  and  C_11
REMARK                            x       y       z     vdW  Elec       q    Type
REMARK                         _______ _______ _______ _____ _____    ______ ____
ROOT
ATOM      1  O   UNL     1     -15.327  41.906 -11.295  0.00  0.00    +0.000 OA
ATOM      2  N   UNL     1     -16.763  43.453 -12.263  0.00  0.00    +0.000 N 
ATOM      3  C   UNL     1     -17.752  45.444 -13.044  0.00  0.00    +0.000 C 
ATOM      4  C   UNL     1     -16.494  45.160 -13.866  0.00  0.00    +0.000 C 
ATOM      5  C   UNL     1     -18.075  44.072 -12.454  0.00  0.00    +0.000 C 
ATOM      6  C   UNL     1     -15.728  44.199 -12.968  0.00  0.00    +0.000 C 
ATOM      7  C   UNL     1     -16.457  42.353 -11.476  0.00  0.00    +0.000 C 
ENDROOT
BRANCH   7  10
ATOM      8  N   UNL     1     -19.252  39.935 -10.819  0.00  0.00    +0.000 NA
ATOM      9  N   UNL     1     -20.717  39.698  -8.954  0.00  0.00    +0.000 N 
ATOM     10  C   UNL     1     -17.571  41.673 -10.796  0.00  0.00    +0.000 A 
ATOM     11  C   UNL     1     -18.001  42.084  -9.539  0.00  0.00    +0.000 A 
ATOM     12  C   UNL     1     -18.223  40.604 -11.388  0.00  0.00    +0.000 A 
ATOM     13  C   UNL     1     -19.056  41.421  -8.922  0.00  0.00    +0.000 A 
ATOM     14  C   UNL     1     -19.642  40.363  -9.597  0.00  0.00    +0.000 A 
ATOM     15  H   UNL     1     -20.744  39.694  -7.942  0.00  0.00    +0.000 HD
ATOM     16  H   UNL     1     -21.137  38.922  -9.449  0.00  0.00    +0.000 HD
ENDBRANCH   7  10
BRANCH   3  17
ATOM     17  N   UNL     1     -18.836  45.988 -13.840  0.00  0.00    +0.000 NA
ATOM     18  H   UNL     1     -19.121  46.890 -13.462  0.00  0.00    +0.000 HD
ATOM     19  H   UNL     1     -19.649  45.377 -13.778  0.00  0.00    +0.000 HD
ENDBRANCH   3  17
TORSDOF 2
ENDMDL
MODEL 5
REMARK VINA RESULT:    -5.844      2.615      5.621
REMARK INTER + INTRA:          -5.899
REMARK INTER:                  -5.785
REMARK INTRA:                  -0.115
REMARK UNBOUND:                 0.457
REMARK  Name = 68261432
REMARK  2 active torsions:
REMARK  status: ('A' for Active; 'I' for Inactive)
REMARK    1  A    between atoms: N_3  and  C_6
REMARK    2  A    between atoms: C_10  and  C_11
REMARK                            x       y       z     vdW  Elec       q    Type
REMARK                         _______ _______ _______ _____ _____    ______ ____
ROOT
ATOM      1  O   UNL     1     -18.933  42.461 -14.233  0.00  0.00    +0.000 OA
ATOM      2  N   UNL     1     -18.560  41.744 -12.057  0.00  0.00    +0.000 N 
ATOM      3  C   UNL     1     -18.825  40.871  -9.885  0.00  0.00    +0.000 C 
ATOM      4  C   UNL     1     -18.983  39.736 -10.897  0.00  0.00    +0.000 C 
ATOM      5  C   UNL     1     -18.071  41.927 -10.690  0.00  0.00    +0.000 C 
ATOM      6  C   UNL     1     -19.288  40.488 -12.185  0.00  0.00    +0.000 C 
ATOM      7  C   UNL     1     -18.449  42.631 -13.117  0.00  0.00    +0.000 C 
ENDROOT
BRANCH   7  10
ATOM      8  N   UNL     1     -15.594  45.061 -12.930  0.00  0.00    +0.000 NA
ATOM      9  N   UNL     1     -15.519  47.346 -12.261  0.00  0.00    +0.000 N 
ATOM     10  C   UNL     1     -17.703  43.877 -12.885  0.00  0.00    +0.000 A 
ATOM     11  C   UNL     1     -18.343  45.021 -12.422  0.00  0.00    +0.000 A 
ATOM     12  C   UNL     1     -16.339  43.948 -13.122  0.00  0.00    +0.000 A 
ATOM     13  C   UNL     1     -17.611  46.184 -12.213  0.00  0.00    +0.000 A 
ATOM     14  C   UNL     1     -16.252  46.152 -12.479  0.00  0.00    +0.000 A 
ATOM     15  H   UNL     1     -16.003  48.231 -12.348  0.00  0.00    +0.000 HD
ATOM     16  H   UNL     1     -14.528  47.319 -12.462  0.00  0.00    +0.000 HD
ENDBRANCH   7  10
BRANCH   3  17
ATOM     17  N   UNL     1     -18.120  40.463  -8.685  0.00  0.00    +0.000 NA
ATOM     18  H   UNL     1     -17.906  39.467  -8.732  0.00  0.00    +0.000 HD
ATOM     19  H   UNL     1     -18.720  40.592  -7.872  0.00  0.00    +0.000 HD
ENDBRANCH   3  17
TORSDOF 2
ENDMDL
