MODEL 1
REMARK VINA RESULT:    -5.540      0.000      0.000
REMARK INTER + INTRA:          -7.467
REMARK INTER:                  -7.160
REMARK INTRA:                  -0.307
REMARK UNBOUND:                -0.307
REMARK  Name = 68261051
REMARK  7 active torsions:
REMARK  status: ('A' for Active; 'I' for Inactive)
REMARK    1  A    between atoms: N_2  and  C_6
REMARK    2  A    between atoms: N_2  and  C_7
REMARK    3  A    between atoms: N_3  and  C_8
REMARK    4  A    between atoms: N_3  and  C_13
REMARK    5  A    between atoms: C_6  and  C_8
REMARK    6  A    between atoms: C_7  and  C_10
REMARK    7  A    between atoms: C_9  and  C_11
REMARK                            x       y       z     vdW  Elec       q    Type
REMARK                         _______ _______ _______ _____ _____    ______ ____
ROOT
ATOM      1  O   UNL     1     -17.804  42.698  -8.678  0.00  0.00    +0.000 OA
ATOM      2  N   UNL     1     -18.979  41.209 -10.044  0.00  0.00    +0.000 N 
ATOM      3  C   UNL     1     -18.106  42.272  -9.792  0.00  0.00    +0.000 C 
ENDROOT
BRANCH   3   6
ATOM      4  N   UNL     1     -15.564  43.310 -12.351  0.00  0.00    +0.000 NA
ATOM      5  N   UNL     1     -15.696  44.858 -14.158  0.00  0.00    +0.000 N 
ATOM      6  C   UNL     1     -17.497  42.962 -10.940  0.00  0.00    +0.000 A 
ATOM      7  C   UNL     1     -18.218  43.886 -11.689  0.00  0.00    +0.000 A 
ATOM      8  C   UNL     1     -16.185  42.713 -11.309  0.00  0.00    +0.000 A 
ATOM      9  C   UNL     1     -17.615  44.521 -12.768  0.00  0.00    +0.000 A 
ATOM     10  C   UNL     1     -16.298  44.202 -13.055  0.00  0.00    +0.000 A 
ATOM     11  H   UNL     1     -14.736  44.617 -14.368  0.00  0.00    +0.000 HD
ATOM     12  H   UNL     1     -16.291  45.166 -14.918  0.00  0.00    +0.000 HD
ENDBRANCH   3   6
BRANCH   2  13
ATOM     13  C   UNL     1     -19.640  40.478  -8.971  0.00  0.00    +0.000 C 
ATOM     14  C   UNL     1     -20.821  41.249  -8.420  0.00  0.00    +0.000 C 
ENDBRANCH   2  13
BRANCH   2  15
ATOM     15  C   UNL     1     -19.289  40.760 -11.399  0.00  0.00    +0.000 C 
BRANCH  15  16
ATOM     16  C   UNL     1     -18.846  39.320 -11.617  0.00  0.00    +0.000 C 
BRANCH  16  17
ATOM     17  N   UNL     1     -17.409  39.262 -11.851  0.00  0.00    +0.000 NA
ATOM     18  C   UNL     1     -17.064  39.874 -13.126  0.00  0.00    +0.000 C 
ATOM     19  H   UNL     1     -17.102  38.289 -11.851  0.00  0.00    +0.000 HD
ENDBRANCH  16  17
ENDBRANCH  15  16
ENDBRANCH   2  15
TORSDOF 5
ENDMDL
MODEL 2
REMARK VINA RESULT:    -5.402      2.011      5.160
REMARK INTER + INTRA:          -7.288
REMARK INTER:                  -7.088
REMARK INTRA:                  -0.199
REMARK UNBOUND:                -0.307
REMARK  Name = 68261051
REMARK  7 active torsions:
REMARK  status: ('A' for Active; 'I' for Inactive)
REMARK    1  A    between atoms: N_2  and  C_6
REMARK    2  A    between atoms: N_2  and  C_7
REMARK    3  A    between atoms: N_3  and  C_8
REMARK    4  A    between atoms: N_3  and  C_13
REMARK    5  A    between atoms: C_6  and  C_8
REMARK    6  A    between atoms: C_7  and  C_10
REMARK    7  A    between atoms: C_9  and  C_11
REMARK                            x       y       z     vdW  Elec       q    Type
REMARK                         _______ _______ _______ _____ _____    ______ ____
ROOT
ATOM      1  O   UNL     1     -15.488  41.047 -11.196  0.00  0.00    +0.000 OA
ATOM      2  N   UNL     1     -16.641  42.886 -12.064  0.00  0.00    +0.000 N 
ATOM      3  C   UNL     1     -16.518  41.709 -11.319  0.00  0.00    +0.000 C 
ENDROOT
BRANCH   3   6
ATOM      4  N   UNL     1     -19.491  39.563 -10.519  0.00  0.00    +0.000 NA
ATOM      5  N   UNL     1     -21.072  39.670  -8.739  0.00  0.00    +0.000 N 
ATOM      6  C   UNL     1     -17.709  41.193 -10.625  0.00  0.00    +0.000 A 
ATOM      7  C   UNL     1     -18.185  41.799  -9.467  0.00  0.00    +0.000 A 
ATOM      8  C   UNL     1     -18.393  40.088 -11.106  0.00  0.00    +0.000 A 
ATOM      9  C   UNL     1     -19.312  41.288  -8.835  0.00  0.00    +0.000 A 
ATOM     10  C   UNL     1     -19.924  40.179  -9.395  0.00  0.00    +0.000 A 
ATOM     11  H   UNL     1     -21.512  38.856  -9.149  0.00  0.00    +0.000 HD
ATOM     12  H   UNL     1     -21.157  39.810  -7.740  0.00  0.00    +0.000 HD
ENDBRANCH   3   6
BRANCH   2  13
ATOM     13  C   UNL     1     -15.521  43.462 -12.795  0.00  0.00    +0.000 C 
ATOM     14  C   UNL     1     -14.871  44.588 -12.018  0.00  0.00    +0.000 C 
ENDBRANCH   2  13
BRANCH   2  15
ATOM     15  C   UNL     1     -17.902  43.617 -12.160  0.00  0.00    +0.000 C 
BRANCH  15  16
ATOM     16  C   UNL     1     -18.207  44.002 -13.601  0.00  0.00    +0.000 C 
BRANCH  16  17
ATOM     17  N   UNL     1     -18.662  42.839 -14.351  0.00  0.00    +0.000 NA
ATOM     18  C   UNL     1     -19.787  43.181 -15.209  0.00  0.00    +0.000 C 
ATOM     19  H   UNL     1     -18.945  42.104 -13.703  0.00  0.00    +0.000 HD
ENDBRANCH  16  17
ENDBRANCH  15  16
ENDBRANCH   2  15
TORSDOF 5
ENDMDL
MODEL 3
REMARK VINA RESULT:    -4.998      2.155      2.945
REMARK INTER + INTRA:          -6.767
REMARK INTER:                  -6.505
REMARK INTRA:                  -0.261
REMARK UNBOUND:                -0.307
REMARK  Name = 68261051
REMARK  7 active torsions:
REMARK  status: ('A' for Active; 'I' for Inactive)
REMARK    1  A    between atoms: N_2  and  C_6
REMARK    2  A    between atoms: N_2  and  C_7
REMARK    3  A    between atoms: N_3  and  C_8
REMARK    4  A    between atoms: N_3  and  C_13
REMARK    5  A    between atoms: C_6  and  C_8
REMARK    6  A    between atoms: C_7  and  C_10
REMARK    7  A    between atoms: C_9  and  C_11
REMARK                            x       y       z     vdW  Elec       q    Type
REMARK                         _______ _______ _______ _____ _____    ______ ____
ROOT
ATOM      1  O   UNL     1     -18.001  42.278  -9.812  0.00  0.00    +0.000 OA
ATOM      2  N   UNL     1     -18.548  41.747 -12.022  0.00  0.00    +0.000 N 
ATOM      3  C   UNL     1     -17.853  42.437 -11.023  0.00  0.00    +0.000 C 
ENDROOT
BRANCH   3   6
ATOM      4  N   UNL     1     -14.580  43.999 -11.988  0.00  0.00    +0.000 NA
ATOM      5  N   UNL     1     -14.023  46.239 -12.579  0.00  0.00    +0.000 N 
ATOM      6  C   UNL     1     -16.868  43.451 -11.431  0.00  0.00    +0.000 A 
ATOM      7  C   UNL     1     -17.244  44.773 -11.644  0.00  0.00    +0.000 A 
ATOM      8  C   UNL     1     -15.535  43.119 -11.614  0.00  0.00    +0.000 A 
ATOM      9  C   UNL     1     -16.290  45.708 -12.029  0.00  0.00    +0.000 A 
ATOM     10  C   UNL     1     -14.983  45.275 -12.186  0.00  0.00    +0.000 A 
ATOM     11  H   UNL     1     -13.070  45.917 -12.698  0.00  0.00    +0.000 HD
ATOM     12  H   UNL     1     -14.333  47.033 -13.126  0.00  0.00    +0.000 HD
ENDBRANCH   3   6
BRANCH   2  13
ATOM     13  C   UNL     1     -19.552  40.738 -11.711  0.00  0.00    +0.000 C 
ATOM     14  C   UNL     1     -18.955  39.346 -11.703  0.00  0.00    +0.000 C 
ENDBRANCH   2  13
BRANCH   2  15
ATOM     15  C   UNL     1     -18.315  41.992 -13.443  0.00  0.00    +0.000 C 
BRANCH  15  16
ATOM     16  C   UNL     1     -19.455  42.790 -14.058  0.00  0.00    +0.000 C 
BRANCH  16  17
ATOM     17  N   UNL     1     -19.021  43.420 -15.298  0.00  0.00    +0.000 NA
ATOM     18  C   UNL     1     -19.953  43.136 -16.380  0.00  0.00    +0.000 C 
ATOM     19  H   UNL     1     -18.096  43.074 -15.552  0.00  0.00    +0.000 HD
ENDBRANCH  16  17
ENDBRANCH  15  16
ENDBRANCH   2  15
TORSDOF 5
ENDMDL
MODEL 4
REMARK VINA RESULT:    -4.979      2.310      5.072
REMARK INTER + INTRA:          -6.742
REMARK INTER:                  -6.472
REMARK INTRA:                  -0.270
REMARK UNBOUND:                -0.307
REMARK  Name = 68261051
REMARK  7 active torsions:
REMARK  status: ('A' for Active; 'I' for Inactive)
REMARK    1  A    between atoms: N_2  and  C_6
REMARK    2  A    between atoms: N_2  and  C_7
REMARK    3  A    between atoms: N_3  and  C_8
REMARK    4  A    between atoms: N_3  and  C_13
REMARK    5  A    between atoms: C_6  and  C_8
REMARK    6  A    between atoms: C_7  and  C_10
REMARK    7  A    between atoms: C_9  and  C_11
REMARK                            x       y       z     vdW  Elec       q    Type
REMARK                         _______ _______ _______ _____ _____    ______ ____
ROOT
ATOM      1  O   UNL     1     -15.546  43.247 -11.360  0.00  0.00    +0.000 OA
ATOM      2  N   UNL     1     -17.181  44.678 -12.224  0.00  0.00    +0.000 N 
ATOM      3  C   UNL     1     -16.674  43.441 -11.813  0.00  0.00    +0.000 C 
ENDROOT
BRANCH   3   6
ATOM      4  N   UNL     1     -18.408  40.468 -13.310  0.00  0.00    +0.000 NA
ATOM      5  N   UNL     1     -19.946  38.910 -12.370  0.00  0.00    +0.000 N 
ATOM      6  C   UNL     1     -17.538  42.256 -11.934  0.00  0.00    +0.000 A 
ATOM      7  C   UNL     1     -18.285  41.798 -10.854  0.00  0.00    +0.000 A 
ATOM      8  C   UNL     1     -17.635  41.562 -13.129  0.00  0.00    +0.000 A 
ATOM      9  C   UNL     1     -19.092  40.676 -11.000  0.00  0.00    +0.000 A 
ATOM     10  C   UNL     1     -19.119  40.052 -12.237  0.00  0.00    +0.000 A 
ATOM     11  H   UNL     1     -19.958  38.454 -13.274  0.00  0.00    +0.000 HD
ATOM     12  H   UNL     1     -20.129  38.349 -11.547  0.00  0.00    +0.000 HD
ENDBRANCH   3   6
BRANCH   2  13
ATOM     13  C   UNL     1     -16.392  45.900 -12.155  0.00  0.00    +0.000 C 
ATOM     14  C   UNL     1     -17.144  47.006 -11.443  0.00  0.00    +0.000 C 
ENDBRANCH   2  13
BRANCH   2  15
ATOM     15  C   UNL     1     -18.534  44.827 -12.752  0.00  0.00    +0.000 C 
BRANCH  15  16
ATOM     16  C   UNL     1     -18.521  44.975 -14.267  0.00  0.00    +0.000 C 
BRANCH  16  17
ATOM     17  N   UNL     1     -19.554  44.141 -14.866  0.00  0.00    +0.000 NA
ATOM     18  C   UNL     1     -19.661  44.392 -16.297  0.00  0.00    +0.000 C 
ATOM     19  H   UNL     1     -20.452  44.336 -14.423  0.00  0.00    +0.000 HD
ENDBRANCH  16  17
ENDBRANCH  15  16
ENDBRANCH   2  15
TORSDOF 5
ENDMDL
MODEL 5
REMARK VINA RESULT:    -4.967      2.399      5.344
REMARK INTER + INTRA:          -6.726
REMARK INTER:                  -6.461
REMARK INTRA:                  -0.265
REMARK UNBOUND:                -0.307
REMARK  Name = 68261051
REMARK  7 active torsions:
REMARK  status: ('A' for Active; 'I' for Inactive)
REMARK    1  A    between atoms: N_2  and  C_6
REMARK    2  A    between atoms: N_2  and  C_7
REMARK    3  A    between atoms: N_3  and  C_8
REMARK    4  A    between atoms: N_3  and  C_13
REMARK    5  A    between atoms: C_6  and  C_8
REMARK    6  A    between atoms: C_7  and  C_10
REMARK    7  A    between atoms: C_9  and  C_11
REMARK                            x       y       z     vdW  Elec       q    Type
REMARK                         _______ _______ _______ _____ _____    ______ ____
ROOT
ATOM      1  O   UNL     1     -18.162  45.524 -11.659  0.00  0.00    +0.000 OA
ATOM      2  N   UNL     1     -16.039  44.757 -12.267  0.00  0.00    +0.000 N 
ATOM      3  C   UNL     1     -17.405  44.616 -12.001  0.00  0.00    +0.000 C 
ENDROOT
BRANCH   3   6
ATOM      4  N   UNL     1     -19.212  41.670 -13.463  0.00  0.00    +0.000 NA
ATOM      5  N   UNL     1     -19.727  39.531 -12.548  0.00  0.00    +0.000 N 
ATOM      6  C   UNL     1     -18.006  43.278 -12.120  0.00  0.00    +0.000 A 
ATOM      7  C   UNL     1     -17.956  42.372 -11.067  0.00  0.00    +0.000 A 
ATOM      8  C   UNL     1     -18.640  42.882 -13.287  0.00  0.00    +0.000 A 
ATOM      9  C   UNL     1     -18.533  41.115 -11.211  0.00  0.00    +0.000 A 
ATOM     10  C   UNL     1     -19.143  40.815 -12.417  0.00  0.00    +0.000 A 
ATOM     11  H   UNL     1     -20.166  39.314 -13.434  0.00  0.00    +0.000 HD
ATOM     12  H   UNL     1     -19.340  38.769 -12.006  0.00  0.00    +0.000 HD
ENDBRANCH   3   6
BRANCH   2  13
ATOM     13  C   UNL     1     -15.356  46.039 -12.159  0.00  0.00    +0.000 C 
ATOM     14  C   UNL     1     -15.365  46.785 -13.477  0.00  0.00    +0.000 C 
ENDBRANCH   2  13
BRANCH   2  15
ATOM     15  C   UNL     1     -15.204  43.628 -12.669  0.00  0.00    +0.000 C 
BRANCH  15  16
ATOM     16  C   UNL     1     -14.026  43.448 -11.723  0.00  0.00    +0.000 C 
BRANCH  16  17
ATOM     17  N   UNL     1     -12.827  43.090 -12.469  0.00  0.00    +0.000 NA
ATOM     18  C   UNL     1     -11.680  42.962 -11.581  0.00  0.00    +0.000 C 
ATOM     19  H   UNL     1     -12.632  43.807 -13.168  0.00  0.00    +0.000 HD
ENDBRANCH  16  17
ENDBRANCH  15  16
ENDBRANCH   2  15
TORSDOF 5
ENDMDL
