MODEL 1
REMARK VINA RESULT:    -7.098      0.000      0.000
REMARK INTER + INTRA:          -7.378
REMARK INTER:                  -7.928
REMARK INTRA:                   0.550
REMARK UNBOUND:                 0.550
REMARK  Name = 68348576
REMARK  5 active torsions:
REMARK  status: ('A' for Active; 'I' for Inactive)
REMARK    1  A    between atoms: N_2  and  C_5
REMARK    2  A    between atoms: N_2  and  C_10
REMARK    3  A    between atoms: C_5  and  C_11
REMARK    4  A    between atoms: C_6  and  C_7
REMARK    5  A    between atoms: C_8  and  C_14
REMARK                            x       y       z     vdW  Elec       q    Type
REMARK                         _______ _______ _______ _____ _____    ______ ____
ROOT
ATOM      1  N   UNL     1     -19.291  42.165  -7.149  0.00  0.00    +0.000 NA
ATOM      2  N   UNL     1     -21.066  42.647  -5.650  0.00  0.00    +0.000 N 
ATOM      3  C   UNL     1     -19.710  40.834  -9.123  0.00  0.00    +0.000 A 
ATOM      4  C   UNL     1     -21.510  41.317  -7.603  0.00  0.00    +0.000 A 
ATOM      5  C   UNL     1     -21.049  40.712  -8.766  0.00  0.00    +0.000 A 
ATOM      6  C   UNL     1     -18.880  41.563  -8.288  0.00  0.00    +0.000 A 
ATOM      7  C   UNL     1     -20.599  42.026  -6.835  0.00  0.00    +0.000 A 
ATOM      8  C   UNL     1     -22.945  41.184  -7.223  0.00  0.00    +0.000 C 
ATOM      9  H   UNL     1     -20.379  43.165  -5.115  0.00  0.00    +0.000 HD
ATOM     10  H   UNL     1     -21.823  42.212  -5.138  0.00  0.00    +0.000 HD
ENDROOT
BRANCH   3  13
ATOM     11  O   UNL     1     -19.544  39.046 -10.558  0.00  0.00    +0.000 OA
ATOM     12  N   UNL     1     -18.361  40.963 -11.182  0.00  0.00    +0.000 N 
ATOM     13  C   UNL     1     -19.191  40.207 -10.349  0.00  0.00    +0.000 C 
ATOM     14  C   UNL     1     -17.987  42.335 -10.866  0.00  0.00    +0.000 C 
BRANCH  12  15
ATOM     15  C   UNL     1     -17.812  40.430 -12.427  0.00  0.00    +0.000 C 
ATOM     16  C   UNL     1     -16.501  39.709 -12.191  0.00  0.00    +0.000 C 
ENDBRANCH  12  15
ENDBRANCH   3  13
TORSDOF 2
ENDMDL
MODEL 2
REMARK VINA RESULT:    -6.326      2.439      3.492
REMARK INTER + INTRA:          -6.516
REMARK INTER:                  -6.560
REMARK INTRA:                   0.044
REMARK UNBOUND:                 0.550
REMARK  Name = 68348576
REMARK  5 active torsions:
REMARK  status: ('A' for Active; 'I' for Inactive)
REMARK    1  A    between atoms: N_2  and  C_5
REMARK    2  A    between atoms: N_2  and  C_10
REMARK    3  A    between atoms: C_5  and  C_11
REMARK    4  A    between atoms: C_6  and  C_7
REMARK    5  A    between atoms: C_8  and  C_14
REMARK                            x       y       z     vdW  Elec       q    Type
REMARK                         _______ _______ _______ _____ _____    ______ ____
ROOT
ATOM      1  N   UNL     1     -19.554  39.642 -10.485  0.00  0.00    +0.000 NA
ATOM      2  N   UNL     1     -21.109  39.716  -8.695  0.00  0.00    +0.000 N 
ATOM      3  C   UNL     1     -17.703  41.197 -10.537  0.00  0.00    +0.000 A 
ATOM      4  C   UNL     1     -19.281  41.277  -8.723  0.00  0.00    +0.000 A 
ATOM      5  C   UNL     1     -18.140  41.768  -9.346  0.00  0.00    +0.000 A 
ATOM      6  C   UNL     1     -18.439  40.147 -11.061  0.00  0.00    +0.000 A 
ATOM      7  C   UNL     1     -19.947  40.222  -9.328  0.00  0.00    +0.000 A 
ATOM      8  C   UNL     1     -19.746  41.891  -7.447  0.00  0.00    +0.000 C 
ATOM      9  H   UNL     1     -21.569  38.939  -9.156  0.00  0.00    +0.000 HD
ATOM     10  H   UNL     1     -21.691  40.351  -8.164  0.00  0.00    +0.000 HD
ENDROOT
BRANCH   3  13
ATOM     11  O   UNL     1     -15.489  40.994 -11.117  0.00  0.00    +0.000 OA
ATOM     12  N   UNL     1     -16.583  42.892 -11.934  0.00  0.00    +0.000 N 
ATOM     13  C   UNL     1     -16.498  41.693 -11.219  0.00  0.00    +0.000 C 
ATOM     14  C   UNL     1     -17.816  43.663 -12.009  0.00  0.00    +0.000 C 
BRANCH  12  15
ATOM     15  C   UNL     1     -15.442  43.452 -12.655  0.00  0.00    +0.000 C 
ATOM     16  C   UNL     1     -15.858  44.612 -13.535  0.00  0.00    +0.000 C 
ENDBRANCH  12  15
ENDBRANCH   3  13
TORSDOF 2
ENDMDL
MODEL 3
REMARK VINA RESULT:    -6.107      1.790      5.692
REMARK INTER + INTRA:          -6.272
REMARK INTER:                  -6.559
REMARK INTRA:                   0.287
REMARK UNBOUND:                 0.550
REMARK  Name = 68348576
REMARK  5 active torsions:
REMARK  status: ('A' for Active; 'I' for Inactive)
REMARK    1  A    between atoms: N_2  and  C_5
REMARK    2  A    between atoms: N_2  and  C_10
REMARK    3  A    between atoms: C_5  and  C_11
REMARK    4  A    between atoms: C_6  and  C_7
REMARK    5  A    between atoms: C_8  and  C_14
REMARK                            x       y       z     vdW  Elec       q    Type
REMARK                         _______ _______ _______ _____ _____    ______ ____
ROOT
ATOM      1  N   UNL     1     -19.460  40.703 -12.268  0.00  0.00    +0.000 NA
ATOM      2  N   UNL     1     -17.978  39.634 -13.780  0.00  0.00    +0.000 N 
ATOM      3  C   UNL     1     -18.742  41.174 -10.008  0.00  0.00    +0.000 A 
ATOM      4  C   UNL     1     -17.239  40.086 -11.538  0.00  0.00    +0.000 A 
ATOM      5  C   UNL     1     -17.502  40.605 -10.276  0.00  0.00    +0.000 A 
ATOM      6  C   UNL     1     -19.678  41.198 -11.029  0.00  0.00    +0.000 A 
ATOM      7  C   UNL     1     -18.243  40.158 -12.491  0.00  0.00    +0.000 A 
ATOM      8  C   UNL     1     -15.908  39.476 -11.821  0.00  0.00    +0.000 C 
ATOM      9  H   UNL     1     -18.727  39.709 -14.458  0.00  0.00    +0.000 HD
ATOM     10  H   UNL     1     -17.352  38.843 -13.865  0.00  0.00    +0.000 HD
ENDROOT
BRANCH   3  13
ATOM     11  O   UNL     1     -18.322  42.647  -8.294  0.00  0.00    +0.000 OA
ATOM     12  N   UNL     1     -20.138  41.210  -7.976  0.00  0.00    +0.000 N 
ATOM     13  C   UNL     1     -19.051  41.734  -8.683  0.00  0.00    +0.000 C 
ATOM     14  C   UNL     1     -20.956  40.127  -8.504  0.00  0.00    +0.000 C 
BRANCH  12  15
ATOM     15  C   UNL     1     -20.528  41.714  -6.661  0.00  0.00    +0.000 C 
ATOM     16  C   UNL     1     -21.818  42.505  -6.731  0.00  0.00    +0.000 C 
ENDBRANCH  12  15
ENDBRANCH   3  13
TORSDOF 2
ENDMDL
MODEL 4
REMARK VINA RESULT:    -5.812      3.493      5.083
REMARK INTER + INTRA:          -5.942
REMARK INTER:                  -5.889
REMARK INTRA:                  -0.053
REMARK UNBOUND:                 0.550
REMARK  Name = 68348576
REMARK  5 active torsions:
REMARK  status: ('A' for Active; 'I' for Inactive)
REMARK    1  A    between atoms: N_2  and  C_5
REMARK    2  A    between atoms: N_2  and  C_10
REMARK    3  A    between atoms: C_5  and  C_11
REMARK    4  A    between atoms: C_6  and  C_7
REMARK    5  A    between atoms: C_8  and  C_14
REMARK                            x       y       z     vdW  Elec       q    Type
REMARK                         _______ _______ _______ _____ _____    ______ ____
ROOT
ATOM      1  N   UNL     1     -18.152  40.070 -12.830  0.00  0.00    +0.000 NA
ATOM      2  N   UNL     1     -19.753  38.672 -11.777  0.00  0.00    +0.000 N 
ATOM      3  C   UNL     1     -17.340  42.042 -11.691  0.00  0.00    +0.000 A 
ATOM      4  C   UNL     1     -18.967  40.629 -10.623  0.00  0.00    +0.000 A 
ATOM      5  C   UNL     1     -18.155  41.756 -10.601  0.00  0.00    +0.000 A 
ATOM      6  C   UNL     1     -17.376  41.175 -12.771  0.00  0.00    +0.000 A 
ATOM      7  C   UNL     1     -18.930  39.825 -11.751  0.00  0.00    +0.000 A 
ATOM      8  C   UNL     1     -19.839  40.327  -9.452  0.00  0.00    +0.000 C 
ATOM      9  H   UNL     1     -19.698  38.099 -12.611  0.00  0.00    +0.000 HD
ATOM     10  H   UNL     1     -20.639  38.695 -11.287  0.00  0.00    +0.000 HD
ENDROOT
BRANCH   3  13
ATOM     11  O   UNL     1     -15.337  43.072 -11.235  0.00  0.00    +0.000 OA
ATOM     12  N   UNL     1     -16.968  44.418 -12.231  0.00  0.00    +0.000 N 
ATOM     13  C   UNL     1     -16.467  43.226 -11.698  0.00  0.00    +0.000 C 
ATOM     14  C   UNL     1     -18.320  44.523 -12.761  0.00  0.00    +0.000 C 
BRANCH  12  15
ATOM     15  C   UNL     1     -16.168  45.640 -12.293  0.00  0.00    +0.000 C 
ATOM     16  C   UNL     1     -16.829  46.774 -11.538  0.00  0.00    +0.000 C 
ENDBRANCH  12  15
ENDBRANCH   3  13
TORSDOF 2
ENDMDL
MODEL 5
REMARK VINA RESULT:    -5.580      2.844      4.276
REMARK INTER + INTRA:          -5.682
REMARK INTER:                  -5.621
REMARK INTRA:                  -0.061
REMARK UNBOUND:                 0.550
REMARK  Name = 68348576
REMARK  5 active torsions:
REMARK  status: ('A' for Active; 'I' for Inactive)
REMARK    1  A    between atoms: N_2  and  C_5
REMARK    2  A    between atoms: N_2  and  C_10
REMARK    3  A    between atoms: C_5  and  C_11
REMARK    4  A    between atoms: C_6  and  C_7
REMARK    5  A    between atoms: C_8  and  C_14
REMARK                            x       y       z     vdW  Elec       q    Type
REMARK                         _______ _______ _______ _____ _____    ______ ____
ROOT
ATOM      1  N   UNL     1     -18.919  41.562  -9.089  0.00  0.00    +0.000 NA
ATOM      2  N   UNL     1     -20.461  39.763  -9.215  0.00  0.00    +0.000 N 
ATOM      3  C   UNL     1     -17.413  41.987 -10.931  0.00  0.00    +0.000 A 
ATOM      4  C   UNL     1     -18.971  40.160 -11.059  0.00  0.00    +0.000 A 
ATOM      5  C   UNL     1     -17.949  40.911 -11.629  0.00  0.00    +0.000 A 
ATOM      6  C   UNL     1     -17.927  42.269  -9.676  0.00  0.00    +0.000 A 
ATOM      7  C   UNL     1     -19.417  40.523  -9.798  0.00  0.00    +0.000 A 
ATOM      8  C   UNL     1     -19.544  39.007 -11.810  0.00  0.00    +0.000 C 
ATOM      9  H   UNL     1     -20.771  40.057  -8.296  0.00  0.00    +0.000 HD
ATOM     10  H   UNL     1     -20.526  38.777  -9.433  0.00  0.00    +0.000 HD
ENDROOT
BRANCH   3  13
ATOM     11  O   UNL     1     -15.183  42.460 -11.228  0.00  0.00    +0.000 OA
ATOM     12  N   UNL     1     -16.678  43.881 -12.328  0.00  0.00    +0.000 N 
ATOM     13  C   UNL     1     -16.332  42.803 -11.507  0.00  0.00    +0.000 C 
ATOM     14  C   UNL     1     -18.064  44.225 -12.614  0.00  0.00    +0.000 C 
BRANCH  12  15
ATOM     15  C   UNL     1     -15.672  44.736 -12.955  0.00  0.00    +0.000 C 
ATOM     16  C   UNL     1     -15.274  45.882 -12.048  0.00  0.00    +0.000 C 
ENDBRANCH  12  15
ENDBRANCH   3  13
TORSDOF 2
ENDMDL
