MODEL 1
REMARK VINA RESULT:    -7.408      0.000      0.000
REMARK INTER + INTRA:          -8.593
REMARK INTER:                  -8.274
REMARK INTRA:                  -0.319
REMARK UNBOUND:                -0.319
REMARK  Name = 68459150
REMARK  2 active torsions:
REMARK  status: ('A' for Active; 'I' for Inactive)
REMARK    1  A    between atoms: N_3  and  C_6
REMARK    2  A    between atoms: C_11  and  C_12
REMARK                            x       y       z     vdW  Elec       q    Type
REMARK                         _______ _______ _______ _____ _____    ______ ____
ROOT
ATOM      1  O   UNL     1     -20.017  39.022  -9.913  0.00  0.00    +0.000 OA
ATOM      2  N   UNL     1     -18.396  40.663 -10.153  0.00  0.00    +0.000 N 
ATOM      3  C   UNL     1     -19.520  40.094  -9.577  0.00  0.00    +0.000 C 
ATOM      4  H   UNL     1     -18.111  41.599  -9.890  0.00  0.00    +0.000 HD
ENDROOT
BRANCH   3   7
ATOM      5  N   UNL     1     -22.164  41.478  -7.279  0.00  0.00    +0.000 NA
ATOM      6  N   UNL     1     -22.027  43.042  -5.487  0.00  0.00    +0.000 N 
ATOM      7  C   UNL     1     -20.159  40.881  -8.492  0.00  0.00    +0.000 A 
ATOM      8  C   UNL     1     -19.410  41.735  -7.690  0.00  0.00    +0.000 A 
ATOM      9  C   UNL     1     -21.520  40.789  -8.249  0.00  0.00    +0.000 A 
ATOM     10  C   UNL     1     -20.036  42.459  -6.681  0.00  0.00    +0.000 A 
ATOM     11  C   UNL     1     -21.403  42.297  -6.519  0.00  0.00    +0.000 A 
ATOM     12  H   UNL     1     -21.476  43.298  -4.678  0.00  0.00    +0.000 HD
ATOM     13  H   UNL     1     -23.024  42.916  -5.368  0.00  0.00    +0.000 HD
ENDBRANCH   3   7
BRANCH   2  15
ATOM     14  N   UNL     1     -16.507  42.060 -13.004  0.00  0.00    +0.000 NA
ATOM     15  C   UNL     1     -17.678  40.030 -11.236  0.00  0.00    +0.000 C 
ATOM     16  C   UNL     1     -16.193  40.400 -11.200  0.00  0.00    +0.000 C 
ATOM     17  C   UNL     1     -18.287  40.390 -12.595  0.00  0.00    +0.000 C 
ATOM     18  C   UNL     1     -15.944  41.832 -11.674  0.00  0.00    +0.000 C 
ATOM     19  C   UNL     1     -17.949  41.820 -13.023  0.00  0.00    +0.000 C 
ATOM     20  H   UNL     1     -16.323  43.022 -13.288  0.00  0.00    +0.000 HD
ENDBRANCH   2  15
TORSDOF 2
ENDMDL
MODEL 2
REMARK VINA RESULT:    -7.203      1.582      2.079
REMARK INTER + INTRA:          -8.365
REMARK INTER:                  -8.078
REMARK INTRA:                  -0.287
REMARK UNBOUND:                -0.319
REMARK  Name = 68459150
REMARK  2 active torsions:
REMARK  status: ('A' for Active; 'I' for Inactive)
REMARK    1  A    between atoms: N_3  and  C_6
REMARK    2  A    between atoms: C_11  and  C_12
REMARK                            x       y       z     vdW  Elec       q    Type
REMARK                         _______ _______ _______ _____ _____    ______ ____
ROOT
ATOM      1  O   UNL     1     -18.642  39.548 -10.724  0.00  0.00    +0.000 OA
ATOM      2  N   UNL     1     -19.015  41.682 -11.550  0.00  0.00    +0.000 N 
ATOM      3  C   UNL     1     -19.018  40.706 -10.567  0.00  0.00    +0.000 C 
ATOM      4  H   UNL     1     -19.440  42.585 -11.370  0.00  0.00    +0.000 HD
ENDROOT
BRANCH   3   7
ATOM      5  N   UNL     1     -19.234  42.366  -7.193  0.00  0.00    +0.000 NA
ATOM      6  N   UNL     1     -20.944  42.340  -5.534  0.00  0.00    +0.000 N 
ATOM      7  C   UNL     1     -19.547  41.124  -9.244  0.00  0.00    +0.000 A 
ATOM      8  C   UNL     1     -20.795  40.698  -8.804  0.00  0.00    +0.000 A 
ATOM      9  C   UNL     1     -18.811  41.950  -8.408  0.00  0.00    +0.000 A 
ATOM     10  C   UNL     1     -21.264  41.106  -7.560  0.00  0.00    +0.000 A 
ATOM     11  C   UNL     1     -20.452  41.932  -6.800  0.00  0.00    +0.000 A 
ATOM     12  H   UNL     1     -21.946  42.402  -5.404  0.00  0.00    +0.000 HD
ATOM     13  H   UNL     1     -20.350  42.948  -4.985  0.00  0.00    +0.000 HD
ENDBRANCH   3   7
BRANCH   2  15
ATOM     14  N   UNL     1     -17.332  43.837 -14.035  0.00  0.00    +0.000 NA
ATOM     15  C   UNL     1     -18.553  41.423 -12.895  0.00  0.00    +0.000 C 
ATOM     16  C   UNL     1     -17.038  41.612 -13.001  0.00  0.00    +0.000 C 
ATOM     17  C   UNL     1     -19.276  42.311 -13.913  0.00  0.00    +0.000 C 
ATOM     18  C   UNL     1     -16.638  43.087 -12.989  0.00  0.00    +0.000 C 
ATOM     19  C   UNL     1     -18.784  43.760 -13.876  0.00  0.00    +0.000 C 
ATOM     20  H   UNL     1     -17.042  44.815 -13.998  0.00  0.00    +0.000 HD
ENDBRANCH   2  15
TORSDOF 2
ENDMDL
MODEL 3
REMARK VINA RESULT:    -6.611      1.864      6.025
REMARK INTER + INTRA:          -7.703
REMARK INTER:                  -7.392
REMARK INTRA:                  -0.311
REMARK UNBOUND:                -0.319
REMARK  Name = 68459150
REMARK  2 active torsions:
REMARK  status: ('A' for Active; 'I' for Inactive)
REMARK    1  A    between atoms: N_3  and  C_6
REMARK    2  A    between atoms: C_11  and  C_12
REMARK                            x       y       z     vdW  Elec       q    Type
REMARK                         _______ _______ _______ _____ _____    ______ ____
ROOT
ATOM      1  O   UNL     1     -18.065  39.839 -10.799  0.00  0.00    +0.000 OA
ATOM      2  N   UNL     1     -19.843  41.021  -9.896  0.00  0.00    +0.000 N 
ATOM      3  C   UNL     1     -18.877  40.759 -10.852  0.00  0.00    +0.000 C 
ATOM      4  H   UNL     1     -20.406  41.862  -9.961  0.00  0.00    +0.000 HD
ENDROOT
BRANCH   3   7
ATOM      5  N   UNL     1     -19.599  42.286 -14.219  0.00  0.00    +0.000 NA
ATOM      6  N   UNL     1     -18.775  44.267 -15.256  0.00  0.00    +0.000 N 
ATOM      7  C   UNL     1     -18.833  41.699 -12.002  0.00  0.00    +0.000 A 
ATOM      8  C   UNL     1     -18.030  42.833 -11.971  0.00  0.00    +0.000 A 
ATOM      9  C   UNL     1     -19.592  41.472 -13.139  0.00  0.00    +0.000 A 
ATOM     10  C   UNL     1     -18.011  43.695 -13.062  0.00  0.00    +0.000 A 
ATOM     11  C   UNL     1     -18.806  43.379 -14.152  0.00  0.00    +0.000 A 
ATOM     12  H   UNL     1     -18.564  45.242 -15.085  0.00  0.00    +0.000 HD
ATOM     13  H   UNL     1     -19.362  44.035 -16.048  0.00  0.00    +0.000 HD
ENDBRANCH   3   7
BRANCH   2  15
ATOM     14  N   UNL     1     -21.146  41.808  -6.529  0.00  0.00    +0.000 NA
ATOM     15  C   UNL     1     -19.995  40.212  -8.708  0.00  0.00    +0.000 C 
ATOM     16  C   UNL     1     -21.466  40.111  -8.297  0.00  0.00    +0.000 C 
ATOM     17  C   UNL     1     -19.152  40.757  -7.551  0.00  0.00    +0.000 C 
ATOM     18  C   UNL     1     -21.978  41.403  -7.661  0.00  0.00    +0.000 C 
ATOM     19  C   UNL     1     -19.756  42.020  -6.934  0.00  0.00    +0.000 C 
ATOM     20  H   UNL     1     -21.515  42.671  -6.130  0.00  0.00    +0.000 HD
ENDBRANCH   2  15
TORSDOF 2
ENDMDL
MODEL 4
REMARK VINA RESULT:    -6.048      4.542      7.806
REMARK INTER + INTRA:          -7.075
REMARK INTER:                  -6.736
REMARK INTRA:                  -0.339
REMARK UNBOUND:                -0.319
REMARK  Name = 68459150
REMARK  2 active torsions:
REMARK  status: ('A' for Active; 'I' for Inactive)
REMARK    1  A    between atoms: N_3  and  C_6
REMARK    2  A    between atoms: C_11  and  C_12
REMARK                            x       y       z     vdW  Elec       q    Type
REMARK                         _______ _______ _______ _____ _____    ______ ____
ROOT
ATOM      1  O   UNL     1     -18.756  44.622 -14.022  0.00  0.00    +0.000 OA
ATOM      2  N   UNL     1     -19.216  42.351 -13.941  0.00  0.00    +0.000 N 
ATOM      3  C   UNL     1     -19.197  43.600 -14.540  0.00  0.00    +0.000 C 
ATOM      4  H   UNL     1     -19.693  41.579 -14.393  0.00  0.00    +0.000 HD
ENDROOT
BRANCH   3   7
ATOM      5  N   UNL     1     -20.015  44.866 -17.991  0.00  0.00    +0.000 NA
ATOM      6  N   UNL     1     -21.389  43.959 -19.714  0.00  0.00    +0.000 N 
ATOM      7  C   UNL     1     -19.787  43.673 -15.901  0.00  0.00    +0.000 A 
ATOM      8  C   UNL     1     -20.634  42.675 -16.370  0.00  0.00    +0.000 A 
ATOM      9  C   UNL     1     -19.512  44.738 -16.743  0.00  0.00    +0.000 A 
ATOM     10  C   UNL     1     -21.171  42.770 -17.649  0.00  0.00    +0.000 A 
ATOM     11  C   UNL     1     -20.833  43.876 -18.413  0.00  0.00    +0.000 A 
ATOM     12  H   UNL     1     -21.622  43.099 -20.194  0.00  0.00    +0.000 HD
ATOM     13  H   UNL     1     -21.135  44.766 -20.271  0.00  0.00    +0.000 HD
ENDBRANCH   3   7
BRANCH   2  15
ATOM     14  N   UNL     1     -17.866  39.326 -12.304  0.00  0.00    +0.000 NA
ATOM     15  C   UNL     1     -18.702  42.124 -12.609  0.00  0.00    +0.000 C 
ATOM     16  C   UNL     1     -17.235  41.690 -12.655  0.00  0.00    +0.000 C 
ATOM     17  C   UNL     1     -19.544  41.090 -11.855  0.00  0.00    +0.000 C 
ATOM     18  C   UNL     1     -17.075  40.243 -13.123  0.00  0.00    +0.000 C 
ATOM     19  C   UNL     1     -19.289  39.663 -12.346  0.00  0.00    +0.000 C 
ATOM     20  H   UNL     1     -17.737  38.373 -12.644  0.00  0.00    +0.000 HD
ENDBRANCH   2  15
TORSDOF 2
ENDMDL
MODEL 5
REMARK VINA RESULT:    -5.757      3.340      6.021
REMARK INTER + INTRA:          -6.749
REMARK INTER:                  -6.438
REMARK INTRA:                  -0.312
REMARK UNBOUND:                -0.319
REMARK  Name = 68459150
REMARK  2 active torsions:
REMARK  status: ('A' for Active; 'I' for Inactive)
REMARK    1  A    between atoms: N_3  and  C_6
REMARK    2  A    between atoms: C_11  and  C_12
REMARK                            x       y       z     vdW  Elec       q    Type
REMARK                         _______ _______ _______ _____ _____    ______ ____
ROOT
ATOM      1  O   UNL     1     -15.492  42.532 -11.730  0.00  0.00    +0.000 OA
ATOM      2  N   UNL     1     -17.672  42.160 -11.034  0.00  0.00    +0.000 N 
ATOM      3  C   UNL     1     -16.663  42.890 -11.639  0.00  0.00    +0.000 C 
ATOM      4  H   UNL     1     -18.590  42.572 -10.907  0.00  0.00    +0.000 HD
ENDROOT
BRANCH   3   7
ATOM      5  N   UNL     1     -17.141  45.731 -14.066  0.00  0.00    +0.000 NA
ATOM      6  N   UNL     1     -18.135  47.880 -13.795  0.00  0.00    +0.000 N 
ATOM      7  C   UNL     1     -17.061  44.213 -12.185  0.00  0.00    +0.000 A 
ATOM      8  C   UNL     1     -17.699  45.156 -11.387  0.00  0.00    +0.000 A 
ATOM      9  C   UNL     1     -16.806  44.546 -13.506  0.00  0.00    +0.000 A 
ATOM     10  C   UNL     1     -18.060  46.385 -11.927  0.00  0.00    +0.000 A 
ATOM     11  C   UNL     1     -17.761  46.622 -13.259  0.00  0.00    +0.000 A 
ATOM     12  H   UNL     1     -18.930  48.358 -13.391  0.00  0.00    +0.000 HD
ATOM     13  H   UNL     1     -17.920  48.046 -14.770  0.00  0.00    +0.000 HD
ENDBRANCH   3   7
BRANCH   2  15
ATOM     14  N   UNL     1     -19.851  39.206 -10.617  0.00  0.00    +0.000 NA
ATOM     15  C   UNL     1     -17.437  40.866 -10.433  0.00  0.00    +0.000 C 
ATOM     16  C   UNL     1     -17.594  39.747 -11.465  0.00  0.00    +0.000 C 
ATOM     17  C   UNL     1     -18.367  40.629  -9.240  0.00  0.00    +0.000 C 
ATOM     18  C   UNL     1     -19.059  39.484 -11.814  0.00  0.00    +0.000 C 
ATOM     19  C   UNL     1     -19.803  40.321  -9.672  0.00  0.00    +0.000 C 
ATOM     20  H   UNL     1     -20.820  39.036 -10.886  0.00  0.00    +0.000 HD
ENDBRANCH   2  15
TORSDOF 2
ENDMDL
