MODEL 1
REMARK VINA RESULT:    -7.568      0.000      0.000
REMARK INTER + INTRA:          -8.574
REMARK INTER:                  -8.895
REMARK INTRA:                   0.321
REMARK UNBOUND:                 0.321
REMARK  Name = 68522357
REMARK  5 active torsions:
REMARK  status: ('A' for Active; 'I' for Inactive)
REMARK    1  A    between atoms: S_1  and  N_5
REMARK    2  A    between atoms: S_1  and  N_6
REMARK    3  A    between atoms: N_5  and  C_10
REMARK    4  A    between atoms: N_5  and  C_11
REMARK    5  A    between atoms: C_13  and  C_16
REMARK                            x       y       z     vdW  Elec       q    Type
REMARK                         _______ _______ _______ _____ _____    ______ ____
ROOT
ATOM      1  N   UNL     1     -18.139  40.082 -10.186  0.00  0.00    +0.000 N 
ATOM      2  N   UNL     1     -18.669  41.638  -8.481  0.00  0.00    +0.000 NA
ATOM      3  C   UNL     1     -19.092  40.606  -9.245  0.00  0.00    +0.000 A 
ATOM      4  C   UNL     1     -20.360  40.052  -9.166  0.00  0.00    +0.000 A 
ATOM      5  C   UNL     1     -20.851  41.654  -7.441  0.00  0.00    +0.000 A 
ATOM      6  C   UNL     1     -21.251  40.592  -8.245  0.00  0.00    +0.000 A 
ATOM      7  C   UNL     1     -19.562  42.136  -7.596  0.00  0.00    +0.000 A 
ATOM      8  H   UNL     1     -18.428  39.229 -10.682  0.00  0.00    +0.000 HD
ENDROOT
BRANCH   5  11
ATOM      9  O   UNL     1     -22.974  42.362  -6.707  0.00  0.00    +0.000 OA
ATOM     10  N   UNL     1     -21.229  42.645  -5.247  0.00  0.00    +0.000 N 
ATOM     11  C   UNL     1     -21.758  42.240  -6.469  0.00  0.00    +0.000 C 
ATOM     12  H   UNL     1     -20.256  42.576  -4.975  0.00  0.00    +0.000 HD
ATOM     13  H   UNL     1     -21.841  43.052  -4.548  0.00  0.00    +0.000 HD
ENDBRANCH   5  11
BRANCH   1  14
ATOM     14  S   UNL     1     -17.087  41.157 -11.025  0.00  0.00    +0.000 S 
ATOM     15  O   UNL     1     -17.298  42.522 -10.580  0.00  0.00    +0.000 OA
ATOM     16  O   UNL     1     -15.751  40.588 -10.942  0.00  0.00    +0.000 OA
BRANCH  14  17
ATOM     17  N   UNL     1     -17.622  41.011 -12.657  0.00  0.00    +0.000 NA
ATOM     18  C   UNL     1     -18.486  39.854 -12.999  0.00  0.00    +0.000 C 
ATOM     19  C   UNL     1     -17.980  42.232 -13.415  0.00  0.00    +0.000 C 
ENDBRANCH  14  17
ENDBRANCH   1  14
TORSDOF 3
ENDMDL
MODEL 2
REMARK VINA RESULT:    -6.459      4.455      6.507
REMARK INTER + INTRA:          -7.271
REMARK INTER:                  -7.168
REMARK INTRA:                  -0.103
REMARK UNBOUND:                 0.321
REMARK  Name = 68522357
REMARK  5 active torsions:
REMARK  status: ('A' for Active; 'I' for Inactive)
REMARK    1  A    between atoms: S_1  and  N_5
REMARK    2  A    between atoms: S_1  and  N_6
REMARK    3  A    between atoms: N_5  and  C_10
REMARK    4  A    between atoms: N_5  and  C_11
REMARK    5  A    between atoms: C_13  and  C_16
REMARK                            x       y       z     vdW  Elec       q    Type
REMARK                         _______ _______ _______ _____ _____    ______ ____
ROOT
ATOM      1  N   UNL     1     -19.635  44.036 -14.989  0.00  0.00    +0.000 N 
ATOM      2  N   UNL     1     -19.933  42.104 -13.652  0.00  0.00    +0.000 NA
ATOM      3  C   UNL     1     -19.114  43.118 -14.011  0.00  0.00    +0.000 A 
ATOM      4  C   UNL     1     -17.841  43.305 -13.498  0.00  0.00    +0.000 A 
ATOM      5  C   UNL     1     -18.190  41.337 -12.162  0.00  0.00    +0.000 A 
ATOM      6  C   UNL     1     -17.376  42.393 -12.557  0.00  0.00    +0.000 A 
ATOM      7  C   UNL     1     -19.448  41.237 -12.734  0.00  0.00    +0.000 A 
ATOM      8  H   UNL     1     -19.054  44.864 -15.173  0.00  0.00    +0.000 HD
ENDROOT
BRANCH   5  11
ATOM      9  O   UNL     1     -18.391  39.338 -10.931  0.00  0.00    +0.000 OA
ATOM     10  N   UNL     1     -16.525  40.611 -10.537  0.00  0.00    +0.000 N 
ATOM     11  C   UNL     1     -17.735  40.367 -11.181  0.00  0.00    +0.000 C 
ATOM     12  H   UNL     1     -15.931  41.418 -10.686  0.00  0.00    +0.000 HD
ATOM     13  H   UNL     1     -16.180  39.947  -9.853  0.00  0.00    +0.000 HD
ENDBRANCH   5  11
BRANCH   1  14
ATOM     14  S   UNL     1     -20.589  43.442 -16.294  0.00  0.00    +0.000 S 
ATOM     15  O   UNL     1     -19.975  42.263 -16.875  0.00  0.00    +0.000 OA
ATOM     16  O   UNL     1     -21.957  43.357 -15.809  0.00  0.00    +0.000 OA
BRANCH  14  17
ATOM     17  N   UNL     1     -20.512  44.733 -17.433  0.00  0.00    +0.000 NA
ATOM     18  C   UNL     1     -19.618  44.569 -18.605  0.00  0.00    +0.000 C 
ATOM     19  C   UNL     1     -21.746  45.485 -17.761  0.00  0.00    +0.000 C 
ENDBRANCH  14  17
ENDBRANCH   1  14
TORSDOF 3
ENDMDL
MODEL 3
REMARK VINA RESULT:    -6.239      3.014      6.084
REMARK INTER + INTRA:          -7.012
REMARK INTER:                  -7.319
REMARK INTRA:                   0.307
REMARK UNBOUND:                 0.321
REMARK  Name = 68522357
REMARK  5 active torsions:
REMARK  status: ('A' for Active; 'I' for Inactive)
REMARK    1  A    between atoms: S_1  and  N_5
REMARK    2  A    between atoms: S_1  and  N_6
REMARK    3  A    between atoms: N_5  and  C_10
REMARK    4  A    between atoms: N_5  and  C_11
REMARK    5  A    between atoms: C_13  and  C_16
REMARK                            x       y       z     vdW  Elec       q    Type
REMARK                         _______ _______ _______ _____ _____    ______ ____
ROOT
ATOM      1  N   UNL     1     -19.869  40.898 -12.063  0.00  0.00    +0.000 N 
ATOM      2  N   UNL     1     -18.097  42.451 -11.821  0.00  0.00    +0.000 NA
ATOM      3  C   UNL     1     -19.154  42.044 -12.560  0.00  0.00    +0.000 A 
ATOM      4  C   UNL     1     -19.563  42.657 -13.733  0.00  0.00    +0.000 A 
ATOM      5  C   UNL     1     -17.748  44.208 -13.445  0.00  0.00    +0.000 A 
ATOM      6  C   UNL     1     -18.841  43.758 -14.179  0.00  0.00    +0.000 A 
ATOM      7  C   UNL     1     -17.420  43.527 -12.285  0.00  0.00    +0.000 A 
ATOM      8  H   UNL     1     -20.735  40.664 -12.566  0.00  0.00    +0.000 HD
ENDROOT
BRANCH   5  11
ATOM      9  O   UNL     1     -17.404  46.517 -13.755  0.00  0.00    +0.000 OA
ATOM     10  N   UNL     1     -15.718  45.121 -14.439  0.00  0.00    +0.000 N 
ATOM     11  C   UNL     1     -16.973  45.356 -13.884  0.00  0.00    +0.000 C 
ATOM     12  H   UNL     1     -15.296  44.210 -14.574  0.00  0.00    +0.000 HD
ATOM     13  H   UNL     1     -15.153  45.905 -14.747  0.00  0.00    +0.000 HD
ENDBRANCH   5  11
BRANCH   1  14
ATOM     14  S   UNL     1     -19.002  39.595 -11.346  0.00  0.00    +0.000 S 
ATOM     15  O   UNL     1     -19.658  38.332 -11.631  0.00  0.00    +0.000 OA
ATOM     16  O   UNL     1     -17.607  39.764 -11.719  0.00  0.00    +0.000 OA
BRANCH  14  17
ATOM     17  N   UNL     1     -19.142  39.932  -9.661  0.00  0.00    +0.000 NA
ATOM     18  C   UNL     1     -18.060  40.721  -9.022  0.00  0.00    +0.000 C 
ATOM     19  C   UNL     1     -20.476  40.229  -9.090  0.00  0.00    +0.000 C 
ENDBRANCH  14  17
ENDBRANCH   1  14
TORSDOF 3
ENDMDL
MODEL 4
REMARK VINA RESULT:    -6.125      1.543      1.973
REMARK INTER + INTRA:          -6.878
REMARK INTER:                  -7.296
REMARK INTRA:                   0.418
REMARK UNBOUND:                 0.321
REMARK  Name = 68522357
REMARK  5 active torsions:
REMARK  status: ('A' for Active; 'I' for Inactive)
REMARK    1  A    between atoms: S_1  and  N_5
REMARK    2  A    between atoms: S_1  and  N_6
REMARK    3  A    between atoms: N_5  and  C_10
REMARK    4  A    between atoms: N_5  and  C_11
REMARK    5  A    between atoms: C_13  and  C_16
REMARK                            x       y       z     vdW  Elec       q    Type
REMARK                         _______ _______ _______ _____ _____    ______ ____
ROOT
ATOM      1  N   UNL     1     -17.699  41.681  -9.828  0.00  0.00    +0.000 N 
ATOM      2  N   UNL     1     -20.006  41.165  -9.672  0.00  0.00    +0.000 NA
ATOM      3  C   UNL     1     -18.908  41.651  -9.049  0.00  0.00    +0.000 A 
ATOM      4  C   UNL     1     -18.897  42.103  -7.739  0.00  0.00    +0.000 A 
ATOM      5  C   UNL     1     -21.237  41.559  -7.629  0.00  0.00    +0.000 A 
ATOM      6  C   UNL     1     -20.087  42.052  -7.022  0.00  0.00    +0.000 A 
ATOM      7  C   UNL     1     -21.145  41.132  -8.943  0.00  0.00    +0.000 A 
ATOM      8  H   UNL     1     -16.900  42.154  -9.387  0.00  0.00    +0.000 HD
ENDROOT
BRANCH   5  11
ATOM      9  O   UNL     1     -22.741  42.262  -5.958  0.00  0.00    +0.000 OA
ATOM     10  N   UNL     1     -23.435  40.552  -7.321  0.00  0.00    +0.000 N 
ATOM     11  C   UNL     1     -22.496  41.493  -6.907  0.00  0.00    +0.000 C 
ATOM     12  H   UNL     1     -23.314  39.896  -8.083  0.00  0.00    +0.000 HD
ATOM     13  H   UNL     1     -24.325  40.489  -6.838  0.00  0.00    +0.000 HD
ENDBRANCH   5  11
BRANCH   1  14
ATOM     14  S   UNL     1     -17.347  40.387 -10.908  0.00  0.00    +0.000 S 
ATOM     15  O   UNL     1     -15.932  40.065 -10.868  0.00  0.00    +0.000 OA
ATOM     16  O   UNL     1     -18.316  39.338 -10.636  0.00  0.00    +0.000 OA
BRANCH  14  17
ATOM     17  N   UNL     1     -17.723  41.068 -12.446  0.00  0.00    +0.000 NA
ATOM     18  C   UNL     1     -19.153  41.159 -12.830  0.00  0.00    +0.000 C 
ATOM     19  C   UNL     1     -16.926  42.211 -12.948  0.00  0.00    +0.000 C 
ENDBRANCH  14  17
ENDBRANCH   1  14
TORSDOF 3
ENDMDL
MODEL 5
REMARK VINA RESULT:    -5.779      3.425      4.897
REMARK INTER + INTRA:          -6.471
REMARK INTER:                  -6.387
REMARK INTRA:                  -0.084
REMARK UNBOUND:                 0.321
REMARK  Name = 68522357
REMARK  5 active torsions:
REMARK  status: ('A' for Active; 'I' for Inactive)
REMARK    1  A    between atoms: S_1  and  N_5
REMARK    2  A    between atoms: S_1  and  N_6
REMARK    3  A    between atoms: N_5  and  C_10
REMARK    4  A    between atoms: N_5  and  C_11
REMARK    5  A    between atoms: C_13  and  C_16
REMARK                            x       y       z     vdW  Elec       q    Type
REMARK                         _______ _______ _______ _____ _____    ______ ____
ROOT
ATOM      1  N   UNL     1     -18.220  43.461 -14.225  0.00  0.00    +0.000 N 
ATOM      2  N   UNL     1     -17.785  43.060 -11.932  0.00  0.00    +0.000 NA
ATOM      3  C   UNL     1     -18.471  42.690 -13.036  0.00  0.00    +0.000 A 
ATOM      4  C   UNL     1     -19.375  41.640 -13.073  0.00  0.00    +0.000 A 
ATOM      5  C   UNL     1     -18.901  41.275 -10.743  0.00  0.00    +0.000 A 
ATOM      6  C   UNL     1     -19.589  40.924 -11.900  0.00  0.00    +0.000 A 
ATOM      7  C   UNL     1     -18.019  42.340 -10.811  0.00  0.00    +0.000 A 
ATOM      8  H   UNL     1     -18.658  43.104 -15.084  0.00  0.00    +0.000 HD
ENDROOT
BRANCH   5  11
ATOM      9  O   UNL     1     -18.239  40.539  -8.606  0.00  0.00    +0.000 OA
ATOM     10  N   UNL     1     -20.308  39.869  -9.334  0.00  0.00    +0.000 N 
ATOM     11  C   UNL     1     -19.103  40.547  -9.502  0.00  0.00    +0.000 C 
ATOM     12  H   UNL     1     -21.061  39.830 -10.010  0.00  0.00    +0.000 HD
ATOM     13  H   UNL     1     -20.477  39.358  -8.474  0.00  0.00    +0.000 HD
ENDBRANCH   5  11
BRANCH   1  14
ATOM     14  S   UNL     1     -17.996  45.164 -14.107  0.00  0.00    +0.000 S 
ATOM     15  O   UNL     1     -18.822  45.712 -13.048  0.00  0.00    +0.000 OA
ATOM     16  O   UNL     1     -16.561  45.397 -14.072  0.00  0.00    +0.000 OA
BRANCH  14  17
ATOM     17  N   UNL     1     -18.585  45.726 -15.626  0.00  0.00    +0.000 NA
ATOM     18  C   UNL     1     -17.656  46.503 -16.483  0.00  0.00    +0.000 C 
ATOM     19  C   UNL     1     -19.499  44.866 -16.413  0.00  0.00    +0.000 C 
ENDBRANCH  14  17
ENDBRANCH   1  14
TORSDOF 3
ENDMDL
