MODEL 1
REMARK VINA RESULT:    -6.468      0.000      0.000
REMARK INTER + INTRA:          -7.047
REMARK INTER:                  -7.035
REMARK INTRA:                  -0.012
REMARK UNBOUND:                -0.012
REMARK  Name = 68570515
REMARK  2 active torsions:
REMARK  status: ('A' for Active; 'I' for Inactive)
REMARK    1  A    between atoms: N_4  and  C_7
REMARK    2  A    between atoms: C_6  and  C_10
REMARK                            x       y       z     vdW  Elec       q    Type
REMARK                         _______ _______ _______ _____ _____    ______ ____
ROOT
ATOM      1  F   UNL     1     -19.613  39.416 -10.207  0.00  0.00    +0.000 F 
ATOM      2  N   UNL     1     -18.997  41.610  -7.384  0.00  0.00    +0.000 NA
ATOM      3  C   UNL     1     -21.376  41.239  -7.604  0.00  0.00    +0.000 A 
ATOM      4  C   UNL     1     -20.274  41.804  -6.983  0.00  0.00    +0.000 A 
ATOM      5  C   UNL     1     -21.154  40.422  -8.707  0.00  0.00    +0.000 A 
ATOM      6  C   UNL     1     -19.855  40.197  -9.149  0.00  0.00    +0.000 A 
ATOM      7  C   UNL     1     -18.821  40.809  -8.459  0.00  0.00    +0.000 A 
ENDROOT
BRANCH   3  10
ATOM      8  O   UNL     1     -23.045  42.486  -6.505  0.00  0.00    +0.000 OA
ATOM      9  N   UNL     1     -23.699  40.515  -7.478  0.00  0.00    +0.000 N 
ATOM     10  C   UNL     1     -22.740  41.468  -7.149  0.00  0.00    +0.000 C 
ATOM     11  H   UNL     1     -23.470  39.681  -8.010  0.00  0.00    +0.000 HD
ATOM     12  H   UNL     1     -24.666  40.626  -7.192  0.00  0.00    +0.000 HD
ENDBRANCH   3  10
BRANCH   4  13
ATOM     13  N   UNL     1     -20.491  42.639  -5.858  0.00  0.00    +0.000 N 
ATOM     14  H   UNL     1     -20.915  42.236  -5.031  0.00  0.00    +0.000 HD
ATOM     15  H   UNL     1     -20.671  43.616  -6.048  0.00  0.00    +0.000 HD
ENDBRANCH   4  13
TORSDOF 2
ENDMDL
MODEL 2
REMARK VINA RESULT:    -5.997      3.032      4.421
REMARK INTER + INTRA:          -6.535
REMARK INTER:                  -6.271
REMARK INTRA:                  -0.264
REMARK UNBOUND:                -0.012
REMARK  Name = 68570515
REMARK  2 active torsions:
REMARK  status: ('A' for Active; 'I' for Inactive)
REMARK    1  A    between atoms: N_4  and  C_7
REMARK    2  A    between atoms: C_6  and  C_10
REMARK                            x       y       z     vdW  Elec       q    Type
REMARK                         _______ _______ _______ _____ _____    ______ ____
ROOT
ATOM      1  F   UNL     1     -21.703  42.915  -5.554  0.00  0.00    +0.000 F 
ATOM      2  N   UNL     1     -22.013  40.457  -8.204  0.00  0.00    +0.000 NA
ATOM      3  C   UNL     1     -19.766  41.349  -8.201  0.00  0.00    +0.000 A 
ATOM      4  C   UNL     1     -20.755  40.518  -8.699  0.00  0.00    +0.000 A 
ATOM      5  C   UNL     1     -20.086  42.171  -7.125  0.00  0.00    +0.000 A 
ATOM      6  C   UNL     1     -21.368  42.136  -6.588  0.00  0.00    +0.000 A 
ATOM      7  C   UNL     1     -22.286  41.269  -7.159  0.00  0.00    +0.000 A 
ENDROOT
BRANCH   3  10
ATOM      8  O   UNL     1     -17.755  40.357  -8.924  0.00  0.00    +0.000 OA
ATOM      9  N   UNL     1     -17.908  42.638  -9.112  0.00  0.00    +0.000 N 
ATOM     10  C   UNL     1     -18.420  41.393  -8.756  0.00  0.00    +0.000 C 
ATOM     11  H   UNL     1     -18.440  43.494  -8.989  0.00  0.00    +0.000 HD
ATOM     12  H   UNL     1     -16.980  42.726  -9.508  0.00  0.00    +0.000 HD
ENDBRANCH   3  10
BRANCH   4  13
ATOM     13  N   UNL     1     -20.437  39.677  -9.795  0.00  0.00    +0.000 N 
ATOM     14  H   UNL     1     -19.478  39.645 -10.118  0.00  0.00    +0.000 HD
ATOM     15  H   UNL     1     -21.168  39.533 -10.481  0.00  0.00    +0.000 HD
ENDBRANCH   4  13
TORSDOF 2
ENDMDL
MODEL 3
REMARK VINA RESULT:    -5.612      3.898      5.385
REMARK INTER + INTRA:          -6.116
REMARK INTER:                  -5.842
REMARK INTRA:                  -0.274
REMARK UNBOUND:                -0.012
REMARK  Name = 68570515
REMARK  2 active torsions:
REMARK  status: ('A' for Active; 'I' for Inactive)
REMARK    1  A    between atoms: N_4  and  C_7
REMARK    2  A    between atoms: C_6  and  C_10
REMARK                            x       y       z     vdW  Elec       q    Type
REMARK                         _______ _______ _______ _____ _____    ______ ____
ROOT
ATOM      1  F   UNL     1     -19.232  42.236  -7.264  0.00  0.00    +0.000 F 
ATOM      2  N   UNL     1     -20.294  39.685  -9.613  0.00  0.00    +0.000 NA
ATOM      3  C   UNL     1     -18.258  40.711 -10.416  0.00  0.00    +0.000 A 
ATOM      4  C   UNL     1     -19.302  39.807 -10.524  0.00  0.00    +0.000 A 
ATOM      5  C   UNL     1     -18.230  41.544  -9.302  0.00  0.00    +0.000 A 
ATOM      6  C   UNL     1     -19.233  41.448  -8.344  0.00  0.00    +0.000 A 
ATOM      7  C   UNL     1     -20.234  40.510  -8.544  0.00  0.00    +0.000 A 
ENDROOT
BRANCH   3  10
ATOM      8  O   UNL     1     -17.464  41.028 -12.611  0.00  0.00    +0.000 OA
ATOM      9  N   UNL     1     -15.887  40.703 -10.977  0.00  0.00    +0.000 N 
ATOM     10  C   UNL     1     -17.203  40.820 -11.414  0.00  0.00    +0.000 C 
ATOM     11  H   UNL     1     -15.654  40.541 -10.003  0.00  0.00    +0.000 HD
ATOM     12  H   UNL     1     -15.113  40.777 -11.628  0.00  0.00    +0.000 HD
ENDBRANCH   3  10
BRANCH   4  13
ATOM     13  N   UNL     1     -19.338  38.954 -11.656  0.00  0.00    +0.000 N 
ATOM     14  H   UNL     1     -19.941  38.141 -11.630  0.00  0.00    +0.000 HD
ATOM     15  H   UNL     1     -18.487  38.890 -12.200  0.00  0.00    +0.000 HD
ENDBRANCH   4  13
TORSDOF 2
ENDMDL
MODEL 4
REMARK VINA RESULT:    -5.252      5.909      6.746
REMARK INTER + INTRA:          -5.725
REMARK INTER:                  -5.442
REMARK INTRA:                  -0.283
REMARK UNBOUND:                -0.012
REMARK  Name = 68570515
REMARK  2 active torsions:
REMARK  status: ('A' for Active; 'I' for Inactive)
REMARK    1  A    between atoms: N_4  and  C_7
REMARK    2  A    between atoms: C_6  and  C_10
REMARK                            x       y       z     vdW  Elec       q    Type
REMARK                         _______ _______ _______ _____ _____    ______ ____
ROOT
ATOM      1  F   UNL     1     -16.997  44.480 -13.793  0.00  0.00    +0.000 F 
ATOM      2  N   UNL     1     -19.494  41.849 -13.740  0.00  0.00    +0.000 NA
ATOM      3  C   UNL     1     -17.664  41.243 -12.281  0.00  0.00    +0.000 A 
ATOM      4  C   UNL     1     -18.891  41.001 -12.876  0.00  0.00    +0.000 A 
ATOM      5  C   UNL     1     -17.013  42.432 -12.591  0.00  0.00    +0.000 A 
ATOM      6  C   UNL     1     -17.600  43.330 -13.476  0.00  0.00    +0.000 A 
ATOM      7  C   UNL     1     -18.831  42.994 -14.018  0.00  0.00    +0.000 A 
ENDROOT
BRANCH   3  10
ATOM      8  O   UNL     1     -17.548  40.059 -10.248  0.00  0.00    +0.000 OA
ATOM      9  N   UNL     1     -15.860  39.691 -11.756  0.00  0.00    +0.000 N 
ATOM     10  C   UNL     1     -17.040  40.310 -11.353  0.00  0.00    +0.000 C 
ATOM     11  H   UNL     1     -15.434  39.878 -12.658  0.00  0.00    +0.000 HD
ATOM     12  H   UNL     1     -15.386  39.028 -11.153  0.00  0.00    +0.000 HD
ENDBRANCH   3  10
BRANCH   4  13
ATOM     13  N   UNL     1     -19.562  39.792 -12.564  0.00  0.00    +0.000 N 
ATOM     14  H   UNL     1     -20.554  39.724 -12.759  0.00  0.00    +0.000 HD
ATOM     15  H   UNL     1     -19.201  39.264 -11.780  0.00  0.00    +0.000 HD
ENDBRANCH   4  13
TORSDOF 2
ENDMDL
MODEL 5
REMARK VINA RESULT:    -5.178      3.324      4.093
REMARK INTER + INTRA:          -5.644
REMARK INTER:                  -5.410
REMARK INTRA:                  -0.234
REMARK UNBOUND:                -0.012
REMARK  Name = 68570515
REMARK  2 active torsions:
REMARK  status: ('A' for Active; 'I' for Inactive)
REMARK    1  A    between atoms: N_4  and  C_7
REMARK    2  A    between atoms: C_6  and  C_10
REMARK                            x       y       z     vdW  Elec       q    Type
REMARK                         _______ _______ _______ _____ _____    ______ ____
ROOT
ATOM      1  F   UNL     1     -18.377  39.300 -13.620  0.00  0.00    +0.000 F 
ATOM      2  N   UNL     1     -17.293  42.123 -11.616  0.00  0.00    +0.000 NA
ATOM      3  C   UNL     1     -18.715  40.694 -10.281  0.00  0.00    +0.000 A 
ATOM      4  C   UNL     1     -17.922  41.816 -10.458  0.00  0.00    +0.000 A 
ATOM      5  C   UNL     1     -18.873  39.831 -11.360  0.00  0.00    +0.000 A 
ATOM      6  C   UNL     1     -18.242  40.112 -12.566  0.00  0.00    +0.000 A 
ATOM      7  C   UNL     1     -17.470  41.260 -12.642  0.00  0.00    +0.000 A 
ENDROOT
BRANCH   3  10
ATOM      8  O   UNL     1     -18.798  40.529  -7.933  0.00  0.00    +0.000 OA
ATOM      9  N   UNL     1     -20.702  39.958  -9.077  0.00  0.00    +0.000 N 
ATOM     10  C   UNL     1     -19.380  40.391  -9.022  0.00  0.00    +0.000 C 
ATOM     11  H   UNL     1     -21.197  39.847  -9.957  0.00  0.00    +0.000 HD
ATOM     12  H   UNL     1     -21.216  39.739  -8.231  0.00  0.00    +0.000 HD
ENDBRANCH   3  10
BRANCH   4  13
ATOM     13  N   UNL     1     -17.755  42.701  -9.364  0.00  0.00    +0.000 N 
ATOM     14  H   UNL     1     -17.785  42.321  -8.425  0.00  0.00    +0.000 HD
ATOM     15  H   UNL     1     -18.081  43.650  -9.496  0.00  0.00    +0.000 HD
ENDBRANCH   4  13
TORSDOF 2
ENDMDL
