MODEL 1
REMARK VINA RESULT:    -7.015      0.000      0.000
REMARK INTER + INTRA:          -8.998
REMARK INTER:                  -8.656
REMARK INTRA:                  -0.343
REMARK UNBOUND:                -0.343
REMARK  Name = 68653270
REMARK  7 active torsions:
REMARK  status: ('A' for Active; 'I' for Inactive)
REMARK    1  A    between atoms: N_2  and  C_6
REMARK    2  A    between atoms: N_2  and  C_9
REMARK    3  A    between atoms: N_3  and  C_7
REMARK    4  A    between atoms: N_3  and  C_10
REMARK    5  A    between atoms: N_3  and  C_11
REMARK    6  A    between atoms: C_6  and  C_7
REMARK    7  A    between atoms: C_14  and  C_16
REMARK                            x       y       z     vdW  Elec       q    Type
REMARK                         _______ _______ _______ _____ _____    ______ ____
ROOT
ATOM      1  N   UNL     1     -18.414  40.309 -10.444  0.00  0.00    +0.000 N 
ATOM      2  N   UNL     1     -18.556  41.769  -8.583  0.00  0.00    +0.000 NA
ATOM      3  C   UNL     1     -19.141  40.836  -9.368  0.00  0.00    +0.000 A 
ATOM      4  C   UNL     1     -19.022  39.298 -11.312  0.00  0.00    +0.000 C 
ATOM      5  C   UNL     1     -20.428  40.361  -9.179  0.00  0.00    +0.000 A 
ATOM      6  C   UNL     1     -21.162  40.875  -8.115  0.00  0.00    +0.000 A 
ATOM      7  C   UNL     1     -20.595  41.835  -7.286  0.00  0.00    +0.000 A 
ATOM      8  C   UNL     1     -19.299  42.245  -7.560  0.00  0.00    +0.000 A 
ENDROOT
BRANCH   7  11
ATOM      9  O   UNL     1     -21.145  41.998  -5.001  0.00  0.00    +0.000 OA
ATOM     10  N   UNL     1     -22.257  43.401  -6.435  0.00  0.00    +0.000 N 
ATOM     11  C   UNL     1     -21.335  42.392  -6.167  0.00  0.00    +0.000 C 
ATOM     12  H   UNL     1     -22.784  43.812  -5.671  0.00  0.00    +0.000 HD
ATOM     13  H   UNL     1     -22.466  43.779  -7.351  0.00  0.00    +0.000 HD
ENDBRANCH   7  11
BRANCH   1  14
ATOM     14  C   UNL     1     -17.068  40.744 -10.728  0.00  0.00    +0.000 C 
BRANCH  14  15
ATOM     15  C   UNL     1     -16.829  40.717 -12.233  0.00  0.00    +0.000 C 
BRANCH  15  16
ATOM     16  N   UNL     1     -16.843  42.076 -12.775  0.00  0.00    +0.000 NA
ATOM     17  C   UNL     1     -18.122  42.353 -13.427  0.00  0.00    +0.000 C 
ATOM     18  C   UNL     1     -16.586  43.051 -11.717  0.00  0.00    +0.000 C 
ENDBRANCH  15  16
ENDBRANCH  14  15
ENDBRANCH   1  14
TORSDOF 4
ENDMDL
MODEL 2
REMARK VINA RESULT:    -5.759      3.014      6.139
REMARK INTER + INTRA:          -7.448
REMARK INTER:                  -7.210
REMARK INTRA:                  -0.237
REMARK UNBOUND:                -0.343
REMARK  Name = 68653270
REMARK  7 active torsions:
REMARK  status: ('A' for Active; 'I' for Inactive)
REMARK    1  A    between atoms: N_2  and  C_6
REMARK    2  A    between atoms: N_2  and  C_9
REMARK    3  A    between atoms: N_3  and  C_7
REMARK    4  A    between atoms: N_3  and  C_10
REMARK    5  A    between atoms: N_3  and  C_11
REMARK    6  A    between atoms: C_6  and  C_7
REMARK    7  A    between atoms: C_14  and  C_16
REMARK                            x       y       z     vdW  Elec       q    Type
REMARK                         _______ _______ _______ _____ _____    ______ ____
ROOT
ATOM      1  N   UNL     1     -18.972  40.312 -10.365  0.00  0.00    +0.000 N 
ATOM      2  N   UNL     1     -17.456  42.131 -10.268  0.00  0.00    +0.000 NA
ATOM      3  C   UNL     1     -18.077  41.181 -11.004  0.00  0.00    +0.000 A 
ATOM      4  C   UNL     1     -19.659  39.273 -11.135  0.00  0.00    +0.000 C 
ATOM      5  C   UNL     1     -17.886  41.006 -12.365  0.00  0.00    +0.000 A 
ATOM      6  C   UNL     1     -17.001  41.860 -13.013  0.00  0.00    +0.000 A 
ATOM      7  C   UNL     1     -16.343  42.849 -12.291  0.00  0.00    +0.000 A 
ATOM      8  C   UNL     1     -16.604  42.942 -10.933  0.00  0.00    +0.000 A 
ENDROOT
BRANCH   7  11
ATOM      9  O   UNL     1     -15.808  44.655 -13.705  0.00  0.00    +0.000 OA
ATOM     10  N   UNL     1     -14.056  43.606 -12.661  0.00  0.00    +0.000 N 
ATOM     11  C   UNL     1     -15.413  43.757 -12.938  0.00  0.00    +0.000 C 
ATOM     12  H   UNL     1     -13.385  44.231 -13.095  0.00  0.00    +0.000 HD
ATOM     13  H   UNL     1     -13.656  42.907 -12.047  0.00  0.00    +0.000 HD
ENDBRANCH   7  11
BRANCH   1  14
ATOM     14  C   UNL     1     -19.234  40.409  -8.949  0.00  0.00    +0.000 C 
BRANCH  14  15
ATOM     15  C   UNL     1     -20.737  40.457  -8.708  0.00  0.00    +0.000 C 
BRANCH  15  16
ATOM     16  N   UNL     1     -21.087  41.626  -7.901  0.00  0.00    +0.000 NA
ATOM     17  C   UNL     1     -22.392  41.439  -7.269  0.00  0.00    +0.000 C 
ATOM     18  C   UNL     1     -20.060  41.876  -6.892  0.00  0.00    +0.000 C 
ENDBRANCH  15  16
ENDBRANCH  14  15
ENDBRANCH   1  14
TORSDOF 4
ENDMDL
MODEL 3
REMARK VINA RESULT:    -5.597      4.529      6.576
REMARK INTER + INTRA:          -7.248
REMARK INTER:                  -6.917
REMARK INTRA:                  -0.331
REMARK UNBOUND:                -0.343
REMARK  Name = 68653270
REMARK  7 active torsions:
REMARK  status: ('A' for Active; 'I' for Inactive)
REMARK    1  A    between atoms: N_2  and  C_6
REMARK    2  A    between atoms: N_2  and  C_9
REMARK    3  A    between atoms: N_3  and  C_7
REMARK    4  A    between atoms: N_3  and  C_10
REMARK    5  A    between atoms: N_3  and  C_11
REMARK    6  A    between atoms: C_6  and  C_7
REMARK    7  A    between atoms: C_14  and  C_16
REMARK                            x       y       z     vdW  Elec       q    Type
REMARK                         _______ _______ _______ _____ _____    ______ ____
ROOT
ATOM      1  N   UNL     1     -19.394  43.633 -14.907  0.00  0.00    +0.000 N 
ATOM      2  N   UNL     1     -19.227  41.576 -13.743  0.00  0.00    +0.000 NA
ATOM      3  C   UNL     1     -18.719  42.801 -14.004  0.00  0.00    +0.000 A 
ATOM      4  C   UNL     1     -18.867  44.965 -15.210  0.00  0.00    +0.000 C 
ATOM      5  C   UNL     1     -17.559  43.297 -13.430  0.00  0.00    +0.000 A 
ATOM      6  C   UNL     1     -16.878  42.484 -12.532  0.00  0.00    +0.000 A 
ATOM      7  C   UNL     1     -17.370  41.217 -12.238  0.00  0.00    +0.000 A 
ATOM      8  C   UNL     1     -18.538  40.814 -12.865  0.00  0.00    +0.000 A 
ENDROOT
BRANCH   7  11
ATOM      9  O   UNL     1     -17.097  40.178 -10.142  0.00  0.00    +0.000 OA
ATOM     10  N   UNL     1     -15.545  39.676 -11.754  0.00  0.00    +0.000 N 
ATOM     11  C   UNL     1     -16.681  40.344 -11.304  0.00  0.00    +0.000 C 
ATOM     12  H   UNL     1     -15.048  39.055 -11.124  0.00  0.00    +0.000 HD
ATOM     13  H   UNL     1     -15.147  39.753 -12.682  0.00  0.00    +0.000 HD
ENDBRANCH   7  11
BRANCH   1  14
ATOM     14  C   UNL     1     -20.607  43.205 -15.563  0.00  0.00    +0.000 C 
BRANCH  14  15
ATOM     15  C   UNL     1     -20.326  42.938 -17.036  0.00  0.00    +0.000 C 
BRANCH  15  16
ATOM     16  N   UNL     1     -21.303  43.632 -17.875  0.00  0.00    +0.000 NA
ATOM     17  C   UNL     1     -22.328  44.267 -17.048  0.00  0.00    +0.000 C 
ATOM     18  C   UNL     1     -20.639  44.624 -18.718  0.00  0.00    +0.000 C 
ENDBRANCH  15  16
ENDBRANCH  14  15
ENDBRANCH   1  14
TORSDOF 4
ENDMDL
MODEL 4
REMARK VINA RESULT:    -5.267      5.582      8.272
REMARK INTER + INTRA:          -6.841
REMARK INTER:                  -6.618
REMARK INTRA:                  -0.223
REMARK UNBOUND:                -0.343
REMARK  Name = 68653270
REMARK  7 active torsions:
REMARK  status: ('A' for Active; 'I' for Inactive)
REMARK    1  A    between atoms: N_2  and  C_6
REMARK    2  A    between atoms: N_2  and  C_9
REMARK    3  A    between atoms: N_3  and  C_7
REMARK    4  A    between atoms: N_3  and  C_10
REMARK    5  A    between atoms: N_3  and  C_11
REMARK    6  A    between atoms: C_6  and  C_7
REMARK    7  A    between atoms: C_14  and  C_16
REMARK                            x       y       z     vdW  Elec       q    Type
REMARK                         _______ _______ _______ _____ _____    ______ ____
ROOT
ATOM      1  N   UNL     1     -18.728  43.246 -13.866  0.00  0.00    +0.000 N 
ATOM      2  N   UNL     1     -20.012  42.631 -15.760  0.00  0.00    +0.000 NA
ATOM      3  C   UNL     1     -19.339  43.587 -15.080  0.00  0.00    +0.000 A 
ATOM      4  C   UNL     1     -17.992  44.260 -13.106  0.00  0.00    +0.000 C 
ATOM      5  C   UNL     1     -19.211  44.898 -15.508  0.00  0.00    +0.000 A 
ATOM      6  C   UNL     1     -19.812  45.252 -16.711  0.00  0.00    +0.000 A 
ATOM      7  C   UNL     1     -20.513  44.296 -17.439  0.00  0.00    +0.000 A 
ATOM      8  C   UNL     1     -20.582  43.012 -16.924  0.00  0.00    +0.000 A 
ENDROOT
BRANCH   7  11
ATOM      9  O   UNL     1     -21.368  45.816 -19.022  0.00  0.00    +0.000 OA
ATOM     10  N   UNL     1     -21.501  43.589 -19.552  0.00  0.00    +0.000 N 
ATOM     11  C   UNL     1     -21.151  44.634 -18.699  0.00  0.00    +0.000 C 
ATOM     12  H   UNL     1     -21.943  43.796 -20.441  0.00  0.00    +0.000 HD
ATOM     13  H   UNL     1     -21.355  42.605 -19.365  0.00  0.00    +0.000 HD
ENDBRANCH   7  11
BRANCH   1  14
ATOM     14  C   UNL     1     -18.810  41.908 -13.331  0.00  0.00    +0.000 C 
BRANCH  14  15
ATOM     15  C   UNL     1     -17.409  41.326 -13.190  0.00  0.00    +0.000 C 
BRANCH  15  16
ATOM     16  N   UNL     1     -17.479  39.912 -12.819  0.00  0.00    +0.000 NA
ATOM     17  C   UNL     1     -16.613  39.641 -11.673  0.00  0.00    +0.000 C 
ATOM     18  C   UNL     1     -18.858  39.531 -12.521  0.00  0.00    +0.000 C 
ENDBRANCH  15  16
ENDBRANCH  14  15
ENDBRANCH   1  14
TORSDOF 4
ENDMDL
MODEL 5
REMARK VINA RESULT:    -4.896      3.551      5.277
REMARK INTER + INTRA:          -6.383
REMARK INTER:                  -6.040
REMARK INTRA:                  -0.343
REMARK UNBOUND:                -0.343
REMARK  Name = 68653270
REMARK  7 active torsions:
REMARK  status: ('A' for Active; 'I' for Inactive)
REMARK    1  A    between atoms: N_2  and  C_6
REMARK    2  A    between atoms: N_2  and  C_9
REMARK    3  A    between atoms: N_3  and  C_7
REMARK    4  A    between atoms: N_3  and  C_10
REMARK    5  A    between atoms: N_3  and  C_11
REMARK    6  A    between atoms: C_6  and  C_7
REMARK    7  A    between atoms: C_14  and  C_16
REMARK                            x       y       z     vdW  Elec       q    Type
REMARK                         _______ _______ _______ _____ _____    ______ ____
ROOT
ATOM      1  N   UNL     1     -15.771  43.681 -12.601  0.00  0.00    +0.000 N 
ATOM      2  N   UNL     1     -17.936  42.718 -12.660  0.00  0.00    +0.000 NA
ATOM      3  C   UNL     1     -16.661  42.672 -12.209  0.00  0.00    +0.000 A 
ATOM      4  C   UNL     1     -14.385  43.657 -12.129  0.00  0.00    +0.000 C 
ATOM      5  C   UNL     1     -16.170  41.682 -11.374  0.00  0.00    +0.000 A 
ATOM      6  C   UNL     1     -17.042  40.674 -10.976  0.00  0.00    +0.000 A 
ATOM      7  C   UNL     1     -18.359  40.688 -11.419  0.00  0.00    +0.000 A 
ATOM      8  C   UNL     1     -18.753  41.723 -12.252  0.00  0.00    +0.000 A 
ENDROOT
BRANCH   7  11
ATOM      9  O   UNL     1     -19.378  38.576 -11.646  0.00  0.00    +0.000 OA
ATOM     10  N   UNL     1     -20.088  39.883  -9.900  0.00  0.00    +0.000 N 
ATOM     11  C   UNL     1     -19.294  39.649 -11.021  0.00  0.00    +0.000 C 
ATOM     12  H   UNL     1     -20.745  39.173  -9.596  0.00  0.00    +0.000 HD
ATOM     13  H   UNL     1     -20.077  40.725  -9.337  0.00  0.00    +0.000 HD
ENDBRANCH   7  11
BRANCH   1  14
ATOM     14  C   UNL     1     -16.185  44.753 -13.474  0.00  0.00    +0.000 C 
BRANCH  14  15
ATOM     15  C   UNL     1     -15.761  46.090 -12.880  0.00  0.00    +0.000 C 
BRANCH  15  16
ATOM     16  N   UNL     1     -16.753  46.554 -11.910  0.00  0.00    +0.000 NA
ATOM     17  C   UNL     1     -16.529  47.961 -11.582  0.00  0.00    +0.000 C 
ATOM     18  C   UNL     1     -18.105  46.359 -12.430  0.00  0.00    +0.000 C 
ENDBRANCH  15  16
ENDBRANCH  14  15
ENDBRANCH   1  14
TORSDOF 4
ENDMDL
