MODEL 1
REMARK VINA RESULT:    -7.701      0.000      0.000
REMARK INTER + INTRA:          -8.556
REMARK INTER:                  -8.601
REMARK INTRA:                   0.045
REMARK UNBOUND:                 0.045
REMARK  Name = 68653608
REMARK  2 active torsions:
REMARK  status: ('A' for Active; 'I' for Inactive)
REMARK    1  A    between atoms: C_6  and  C_9
REMARK    2  A    between atoms: C_13  and  C_15
REMARK                            x       y       z     vdW  Elec       q    Type
REMARK                         _______ _______ _______ _____ _____    ______ ____
ROOT
ATOM      1  O   UNL     1     -19.424  42.282  -6.894  0.00  0.00    +0.000 OA
ATOM      2  N   UNL     1     -20.492  40.769  -8.347  0.00  0.00    +0.000 N 
ATOM      3  N   UNL     1     -19.833  39.654 -10.326  0.00  0.00    +0.000 NA
ATOM      4  C   UNL     1     -20.385  41.608  -7.238  0.00  0.00    +0.000 C 
ATOM      5  C   UNL     1     -19.523  40.506  -9.324  0.00  0.00    +0.000 A 
ATOM      6  C   UNL     1     -18.301  41.145  -9.198  0.00  0.00    +0.000 A 
ATOM      7  C   UNL     1     -17.332  40.893 -10.164  0.00  0.00    +0.000 A 
ATOM      8  C   UNL     1     -17.612  40.022 -11.211  0.00  0.00    +0.000 A 
ATOM      9  C   UNL     1     -18.866  39.433 -11.246  0.00  0.00    +0.000 A 
ATOM     10  H   UNL     1     -21.372  40.279  -8.488  0.00  0.00    +0.000 HD
ENDROOT
BRANCH   8  13
ATOM     11  O   UNL     1     -16.932  39.697 -13.442  0.00  0.00    +0.000 OA
ATOM     12  N   UNL     1     -15.309  39.535 -11.832  0.00  0.00    +0.000 N 
ATOM     13  C   UNL     1     -16.624  39.740 -12.237  0.00  0.00    +0.000 C 
ATOM     14  H   UNL     1     -14.975  39.557 -10.877  0.00  0.00    +0.000 HD
ATOM     15  H   UNL     1     -14.596  39.341 -12.530  0.00  0.00    +0.000 HD
ENDBRANCH   8  13
BRANCH   4  16
ATOM     16  C   UNL     1     -21.622  41.652  -6.397  0.00  0.00    +0.000 C 
ATOM     17  C   UNL     1     -21.770  42.735  -5.370  0.00  0.00    +0.000 C 
ATOM     18  C   UNL     1     -22.611  42.760  -6.612  0.00  0.00    +0.000 C 
ENDBRANCH   4  16
TORSDOF 2
ENDMDL
MODEL 2
REMARK VINA RESULT:    -7.625      2.019      6.538
REMARK INTER + INTRA:          -8.471
REMARK INTER:                  -8.632
REMARK INTRA:                   0.160
REMARK UNBOUND:                 0.045
REMARK  Name = 68653608
REMARK  2 active torsions:
REMARK  status: ('A' for Active; 'I' for Inactive)
REMARK    1  A    between atoms: C_6  and  C_9
REMARK    2  A    between atoms: C_13  and  C_15
REMARK                            x       y       z     vdW  Elec       q    Type
REMARK                         _______ _______ _______ _____ _____    ______ ____
ROOT
ATOM      1  O   UNL     1     -19.105  39.227 -11.178  0.00  0.00    +0.000 OA
ATOM      2  N   UNL     1     -18.071  40.874  -9.853  0.00  0.00    +0.000 N 
ATOM      3  N   UNL     1     -18.785  42.193  -8.024  0.00  0.00    +0.000 NA
ATOM      4  C   UNL     1     -18.150  39.927 -10.873  0.00  0.00    +0.000 C 
ATOM      5  C   UNL     1     -19.069  41.243  -8.943  0.00  0.00    +0.000 A 
ATOM      6  C   UNL     1     -20.295  40.606  -9.047  0.00  0.00    +0.000 A 
ATOM      7  C   UNL     1     -21.293  40.966  -8.148  0.00  0.00    +0.000 A 
ATOM      8  C   UNL     1     -21.040  41.939  -7.188  0.00  0.00    +0.000 A 
ATOM      9  C   UNL     1     -19.780  42.517  -7.168  0.00  0.00    +0.000 A 
ATOM     10  H   UNL     1     -17.193  41.376  -9.738  0.00  0.00    +0.000 HD
ENDROOT
BRANCH   8  13
ATOM     11  O   UNL     1     -23.256  42.028  -6.397  0.00  0.00    +0.000 OA
ATOM     12  N   UNL     1     -21.662  43.077  -5.127  0.00  0.00    +0.000 N 
ATOM     13  C   UNL     1     -22.062  42.341  -6.238  0.00  0.00    +0.000 C 
ATOM     14  H   UNL     1     -20.714  43.367  -4.922  0.00  0.00    +0.000 HD
ATOM     15  H   UNL     1     -22.355  43.366  -4.443  0.00  0.00    +0.000 HD
ENDBRANCH   8  13
BRANCH   4  16
ATOM     16  C   UNL     1     -16.885  39.786 -11.661  0.00  0.00    +0.000 C 
ATOM     17  C   UNL     1     -16.955  39.758 -13.159  0.00  0.00    +0.000 C 
ATOM     18  C   UNL     1     -16.386  40.956 -12.457  0.00  0.00    +0.000 C 
ENDBRANCH   4  16
TORSDOF 2
ENDMDL
MODEL 3
REMARK VINA RESULT:    -6.240      4.856      6.942
REMARK INTER + INTRA:          -6.925
REMARK INTER:                  -6.971
REMARK INTRA:                   0.046
REMARK UNBOUND:                 0.045
REMARK  Name = 68653608
REMARK  2 active torsions:
REMARK  status: ('A' for Active; 'I' for Inactive)
REMARK    1  A    between atoms: C_6  and  C_9
REMARK    2  A    between atoms: C_13  and  C_15
REMARK                            x       y       z     vdW  Elec       q    Type
REMARK                         _______ _______ _______ _____ _____    ______ ____
ROOT
ATOM      1  O   UNL     1     -18.970  44.885 -15.534  0.00  0.00    +0.000 OA
ATOM      2  N   UNL     1     -19.793  42.738 -15.032  0.00  0.00    +0.000 N 
ATOM      3  N   UNL     1     -19.655  41.332 -13.135  0.00  0.00    +0.000 NA
ATOM      4  C   UNL     1     -19.585  43.869 -15.822  0.00  0.00    +0.000 C 
ATOM      5  C   UNL     1     -19.342  42.507 -13.726  0.00  0.00    +0.000 A 
ATOM      6  C   UNL     1     -18.596  43.505 -13.122  0.00  0.00    +0.000 A 
ATOM      7  C   UNL     1     -18.143  43.285 -11.826  0.00  0.00    +0.000 A 
ATOM      8  C   UNL     1     -18.445  42.089 -11.183  0.00  0.00    +0.000 A 
ATOM      9  C   UNL     1     -19.197  41.153 -11.875  0.00  0.00    +0.000 A 
ATOM     10  H   UNL     1     -20.330  41.972 -15.431  0.00  0.00    +0.000 HD
ENDROOT
BRANCH   8  13
ATOM     11  O   UNL     1     -18.056  42.691  -8.940  0.00  0.00    +0.000 OA
ATOM     12  N   UNL     1     -17.469  40.563  -9.556  0.00  0.00    +0.000 N 
ATOM     13  C   UNL     1     -17.983  41.826  -9.832  0.00  0.00    +0.000 C 
ATOM     14  H   UNL     1     -17.380  39.805 -10.220  0.00  0.00    +0.000 HD
ATOM     15  H   UNL     1     -17.144  40.350  -8.617  0.00  0.00    +0.000 HD
ENDBRANCH   8  13
BRANCH   4  16
ATOM     16  C   UNL     1     -20.214  43.777 -17.177  0.00  0.00    +0.000 C 
ATOM     17  C   UNL     1     -21.180  42.666 -17.462  0.00  0.00    +0.000 C 
ATOM     18  C   UNL     1     -21.677  44.075 -17.325  0.00  0.00    +0.000 C 
ENDBRANCH   4  16
TORSDOF 2
ENDMDL
MODEL 4
REMARK VINA RESULT:    -5.723      4.800      5.412
REMARK INTER + INTRA:          -6.348
REMARK INTER:                  -6.451
REMARK INTRA:                   0.103
REMARK UNBOUND:                 0.045
REMARK  Name = 68653608
REMARK  2 active torsions:
REMARK  status: ('A' for Active; 'I' for Inactive)
REMARK    1  A    between atoms: C_6  and  C_9
REMARK    2  A    between atoms: C_13  and  C_15
REMARK                            x       y       z     vdW  Elec       q    Type
REMARK                         _______ _______ _______ _____ _____    ______ ____
ROOT
ATOM      1  O   UNL     1     -17.767  42.550 -10.326  0.00  0.00    +0.000 OA
ATOM      2  N   UNL     1     -19.117  41.527 -11.960  0.00  0.00    +0.000 N 
ATOM      3  N   UNL     1     -19.826  42.154 -14.127  0.00  0.00    +0.000 NA
ATOM      4  C   UNL     1     -18.465  41.631 -10.732  0.00  0.00    +0.000 C 
ATOM      5  C   UNL     1     -19.123  42.452 -13.012  0.00  0.00    +0.000 A 
ATOM      6  C   UNL     1     -18.403  43.622 -12.837  0.00  0.00    +0.000 A 
ATOM      7  C   UNL     1     -18.404  44.548 -13.875  0.00  0.00    +0.000 A 
ATOM      8  C   UNL     1     -19.115  44.279 -15.039  0.00  0.00    +0.000 A 
ATOM      9  C   UNL     1     -19.804  43.079 -15.115  0.00  0.00    +0.000 A 
ATOM     10  H   UNL     1     -19.665  40.688 -12.137  0.00  0.00    +0.000 HD
ENDROOT
BRANCH   8  13
ATOM     11  O   UNL     1     -19.494  46.407 -15.973  0.00  0.00    +0.000 OA
ATOM     12  N   UNL     1     -18.733  44.776 -17.392  0.00  0.00    +0.000 N 
ATOM     13  C   UNL     1     -19.139  45.226 -16.139  0.00  0.00    +0.000 C 
ATOM     14  H   UNL     1     -18.427  43.836 -17.610  0.00  0.00    +0.000 HD
ATOM     15  H   UNL     1     -18.735  45.419 -18.179  0.00  0.00    +0.000 HD
ENDBRANCH   8  13
BRANCH   4  16
ATOM     16  C   UNL     1     -18.675  40.449  -9.839  0.00  0.00    +0.000 C 
ATOM     17  C   UNL     1     -18.787  40.661  -8.358  0.00  0.00    +0.000 C 
ATOM     18  C   UNL     1     -19.999  40.277  -9.154  0.00  0.00    +0.000 C 
ENDBRANCH   4  16
TORSDOF 2
ENDMDL
MODEL 5
REMARK VINA RESULT:    -5.686      5.065      7.048
REMARK INTER + INTRA:          -6.305
REMARK INTER:                  -6.385
REMARK INTRA:                   0.079
REMARK UNBOUND:                 0.045
REMARK  Name = 68653608
REMARK  2 active torsions:
REMARK  status: ('A' for Active; 'I' for Inactive)
REMARK    1  A    between atoms: C_6  and  C_9
REMARK    2  A    between atoms: C_13  and  C_15
REMARK                            x       y       z     vdW  Elec       q    Type
REMARK                         _______ _______ _______ _____ _____    ______ ____
ROOT
ATOM      1  O   UNL     1     -20.484  42.729 -15.989  0.00  0.00    +0.000 OA
ATOM      2  N   UNL     1     -18.822  43.757 -14.677  0.00  0.00    +0.000 N 
ATOM      3  N   UNL     1     -17.892  43.295 -12.552  0.00  0.00    +0.000 NA
ATOM      4  C   UNL     1     -19.645  43.597 -15.792  0.00  0.00    +0.000 C 
ATOM      5  C   UNL     1     -18.769  42.962 -13.526  0.00  0.00    +0.000 A 
ATOM      6  C   UNL     1     -19.628  41.877 -13.459  0.00  0.00    +0.000 A 
ATOM      7  C   UNL     1     -19.584  41.082 -12.319  0.00  0.00    +0.000 A 
ATOM      8  C   UNL     1     -18.695  41.391 -11.296  0.00  0.00    +0.000 A 
ATOM      9  C   UNL     1     -17.878  42.498 -11.459  0.00  0.00    +0.000 A 
ATOM     10  H   UNL     1     -18.176  44.543 -14.674  0.00  0.00    +0.000 HD
ENDROOT
BRANCH   8  13
ATOM     11  O   UNL     1     -19.329  39.566  -9.949  0.00  0.00    +0.000 OA
ATOM     12  N   UNL     1     -17.733  40.973  -9.098  0.00  0.00    +0.000 N 
ATOM     13  C   UNL     1     -18.627  40.583 -10.091  0.00  0.00    +0.000 C 
ATOM     14  H   UNL     1     -17.125  41.781  -9.136  0.00  0.00    +0.000 HD
ATOM     15  H   UNL     1     -17.660  40.422  -8.247  0.00  0.00    +0.000 HD
ENDBRANCH   8  13
BRANCH   4  16
ATOM     16  C   UNL     1     -19.435  44.637 -16.847  0.00  0.00    +0.000 C 
ATOM     17  C   UNL     1     -20.605  45.090 -17.670  0.00  0.00    +0.000 C 
ATOM     18  C   UNL     1     -20.009  46.009 -16.645  0.00  0.00    +0.000 C 
ENDBRANCH   4  16
TORSDOF 2
ENDMDL
