MODEL 1
REMARK VINA RESULT:    -6.677      0.000      0.000
REMARK INTER + INTRA:          -7.136
REMARK INTER:                  -7.067
REMARK INTRA:                  -0.069
REMARK UNBOUND:                -0.069
REMARK  Name = 68652799
REMARK  3 active torsions:
REMARK  status: ('A' for Active; 'I' for Inactive)
REMARK    1  A    between atoms: N_3  and  C_10
REMARK    2  A    between atoms: C_8  and  C_14
REMARK    3  A    between atoms: C_11  and  C_13
REMARK                            x       y       z     vdW  Elec       q    Type
REMARK                         _______ _______ _______ _____ _____    ______ ____
ROOT
ATOM      1  O   UNL     1     -19.436  42.947  -7.153  0.00  0.00    +0.000 OA
ATOM      2  N   UNL     1     -20.551  41.063  -8.018  0.00  0.00    +0.000 N 
ATOM      3  N   UNL     1     -20.098  40.338 -10.268  0.00  0.00    +0.000 NA
ATOM      4  C   UNL     1     -19.611  40.729  -9.069  0.00  0.00    +0.000 A 
ATOM      5  C   UNL     1     -18.261  40.834  -8.776  0.00  0.00    +0.000 A 
ATOM      6  C   UNL     1     -17.813  40.111 -11.026  0.00  0.00    +0.000 A 
ATOM      7  C   UNL     1     -17.352  40.517  -9.779  0.00  0.00    +0.000 A 
ATOM      8  C   UNL     1     -21.876  40.428  -8.094  0.00  0.00    +0.000 C 
ATOM      9  C   UNL     1     -20.238  42.017  -7.030  0.00  0.00    +0.000 C 
ATOM     10  C   UNL     1     -19.183  40.038 -11.218  0.00  0.00    +0.000 A 
ATOM     11  C   UNL     1     -20.990  41.903  -5.724  0.00  0.00    +0.000 C 
ENDROOT
BRANCH   6  14
ATOM     12  O   UNL     1     -17.278  39.628 -13.269  0.00  0.00    +0.000 OA
ATOM     13  N   UNL     1     -15.541  39.642 -11.771  0.00  0.00    +0.000 N 
ATOM     14  C   UNL     1     -16.889  39.776 -12.096  0.00  0.00    +0.000 C 
ATOM     15  H   UNL     1     -15.145  39.750 -10.847  0.00  0.00    +0.000 HD
ATOM     16  H   UNL     1     -14.873  39.414 -12.500  0.00  0.00    +0.000 HD
ENDBRANCH   6  14
TORSDOF 1
ENDMDL
MODEL 2
REMARK VINA RESULT:    -6.676      1.906      5.723
REMARK INTER + INTRA:          -7.135
REMARK INTER:                  -7.069
REMARK INTRA:                  -0.067
REMARK UNBOUND:                -0.069
REMARK  Name = 68652799
REMARK  3 active torsions:
REMARK  status: ('A' for Active; 'I' for Inactive)
REMARK    1  A    between atoms: N_3  and  C_10
REMARK    2  A    between atoms: C_8  and  C_14
REMARK    3  A    between atoms: C_11  and  C_13
REMARK                            x       y       z     vdW  Elec       q    Type
REMARK                         _______ _______ _______ _____ _____    ______ ____
ROOT
ATOM      1  O   UNL     1     -19.603  40.685 -12.591  0.00  0.00    +0.000 OA
ATOM      2  N   UNL     1     -17.934  40.877 -10.941  0.00  0.00    +0.000 N 
ATOM      3  N   UNL     1     -18.414  42.046  -8.892  0.00  0.00    +0.000 NA
ATOM      4  C   UNL     1     -18.796  41.122  -9.802  0.00  0.00    +0.000 A 
ATOM      5  C   UNL     1     -19.968  40.388  -9.718  0.00  0.00    +0.000 A 
ATOM      6  C   UNL     1     -20.443  41.560  -7.672  0.00  0.00    +0.000 A 
ATOM      7  C   UNL     1     -20.802  40.617  -8.629  0.00  0.00    +0.000 A 
ATOM      8  C   UNL     1     -16.505  41.173 -10.761  0.00  0.00    +0.000 C 
ATOM      9  C   UNL     1     -18.459  40.465 -12.183  0.00  0.00    +0.000 C 
ATOM     10  C   UNL     1     -19.250  42.242  -7.847  0.00  0.00    +0.000 A 
ATOM     11  C   UNL     1     -17.512  39.726 -13.099  0.00  0.00    +0.000 C 
ENDROOT
BRANCH   6  14
ATOM     12  O   UNL     1     -22.506  41.547  -6.534  0.00  0.00    +0.000 OA
ATOM     13  N   UNL     1     -20.702  42.386  -5.394  0.00  0.00    +0.000 N 
ATOM     14  C   UNL     1     -21.293  41.825  -6.523  0.00  0.00    +0.000 C 
ATOM     15  H   UNL     1     -19.725  42.636  -5.303  0.00  0.00    +0.000 HD
ATOM     16  H   UNL     1     -21.271  42.576  -4.575  0.00  0.00    +0.000 HD
ENDBRANCH   6  14
TORSDOF 1
ENDMDL
MODEL 3
REMARK VINA RESULT:    -5.462      3.938      5.331
REMARK INTER + INTRA:          -5.850
REMARK INTER:                  -5.791
REMARK INTRA:                  -0.059
REMARK UNBOUND:                -0.069
REMARK  Name = 68652799
REMARK  3 active torsions:
REMARK  status: ('A' for Active; 'I' for Inactive)
REMARK    1  A    between atoms: N_3  and  C_10
REMARK    2  A    between atoms: C_8  and  C_14
REMARK    3  A    between atoms: C_11  and  C_13
REMARK                            x       y       z     vdW  Elec       q    Type
REMARK                         _______ _______ _______ _____ _____    ______ ____
ROOT
ATOM      1  O   UNL     1     -14.939  44.283 -11.778  0.00  0.00    +0.000 OA
ATOM      2  N   UNL     1     -17.161  44.724 -12.416  0.00  0.00    +0.000 N 
ATOM      3  N   UNL     1     -18.683  42.894 -12.775  0.00  0.00    +0.000 NA
ATOM      4  C   UNL     1     -17.753  43.474 -11.984  0.00  0.00    +0.000 A 
ATOM      5  C   UNL     1     -17.324  42.948 -10.777  0.00  0.00    +0.000 A 
ATOM      6  C   UNL     1     -18.845  41.120 -11.141  0.00  0.00    +0.000 A 
ATOM      7  C   UNL     1     -17.886  41.748 -10.355  0.00  0.00    +0.000 A 
ATOM      8  C   UNL     1     -17.969  45.557 -13.321  0.00  0.00    +0.000 C 
ATOM      9  C   UNL     1     -15.844  45.074 -12.060  0.00  0.00    +0.000 C 
ATOM     10  C   UNL     1     -19.207  41.729 -12.332  0.00  0.00    +0.000 A 
ATOM     11  C   UNL     1     -15.515  46.549 -12.066  0.00  0.00    +0.000 C 
ENDROOT
BRANCH   6  14
ATOM     12  O   UNL     1     -19.261  38.812 -11.367  0.00  0.00    +0.000 OA
ATOM     13  N   UNL     1     -20.237  39.869  -9.581  0.00  0.00    +0.000 N 
ATOM     14  C   UNL     1     -19.450  39.865 -10.730  0.00  0.00    +0.000 C 
ATOM     15  H   UNL     1     -20.435  40.677  -9.006  0.00  0.00    +0.000 HD
ATOM     16  H   UNL     1     -20.666  39.004  -9.267  0.00  0.00    +0.000 HD
ENDBRANCH   6  14
TORSDOF 1
ENDMDL
MODEL 4
REMARK VINA RESULT:    -5.326      4.583      6.003
REMARK INTER + INTRA:          -5.706
REMARK INTER:                  -5.639
REMARK INTRA:                  -0.067
REMARK UNBOUND:                -0.069
REMARK  Name = 68652799
REMARK  3 active torsions:
REMARK  status: ('A' for Active; 'I' for Inactive)
REMARK    1  A    between atoms: N_3  and  C_10
REMARK    2  A    between atoms: C_8  and  C_14
REMARK    3  A    between atoms: C_11  and  C_13
REMARK                            x       y       z     vdW  Elec       q    Type
REMARK                         _______ _______ _______ _____ _____    ______ ____
ROOT
ATOM      1  O   UNL     1     -17.063  45.540 -14.365  0.00  0.00    +0.000 OA
ATOM      2  N   UNL     1     -18.967  44.231 -14.813  0.00  0.00    +0.000 N 
ATOM      3  N   UNL     1     -19.026  41.931 -14.104  0.00  0.00    +0.000 NA
ATOM      4  C   UNL     1     -18.770  43.222 -13.792  0.00  0.00    +0.000 A 
ATOM      5  C   UNL     1     -18.327  43.647 -12.550  0.00  0.00    +0.000 A 
ATOM      6  C   UNL     1     -18.386  41.347 -11.847  0.00  0.00    +0.000 A 
ATOM      7  C   UNL     1     -18.134  42.685 -11.565  0.00  0.00    +0.000 A 
ATOM      8  C   UNL     1     -19.941  43.917 -15.870  0.00  0.00    +0.000 C 
ATOM      9  C   UNL     1     -18.195  45.410 -14.838  0.00  0.00    +0.000 C 
ATOM     10  C   UNL     1     -18.827  41.025 -13.120  0.00  0.00    +0.000 A 
ATOM     11  C   UNL     1     -18.806  46.597 -15.545  0.00  0.00    +0.000 C 
ENDROOT
BRANCH   6  14
ATOM     12  O   UNL     1     -18.752  39.209 -10.927  0.00  0.00    +0.000 OA
ATOM     13  N   UNL     1     -17.338  40.603  -9.777  0.00  0.00    +0.000 N 
ATOM     14  C   UNL     1     -18.192  40.318 -10.840  0.00  0.00    +0.000 C 
ATOM     15  H   UNL     1     -16.843  41.474  -9.637  0.00  0.00    +0.000 HD
ATOM     16  H   UNL     1     -17.180  39.899  -9.063  0.00  0.00    +0.000 HD
ENDBRANCH   6  14
TORSDOF 1
ENDMDL
MODEL 5
REMARK VINA RESULT:    -5.205      4.107      5.639
REMARK INTER + INTRA:          -5.578
REMARK INTER:                  -5.520
REMARK INTRA:                  -0.058
REMARK UNBOUND:                -0.069
REMARK  Name = 68652799
REMARK  3 active torsions:
REMARK  status: ('A' for Active; 'I' for Inactive)
REMARK    1  A    between atoms: N_3  and  C_10
REMARK    2  A    between atoms: C_8  and  C_14
REMARK    3  A    between atoms: C_11  and  C_13
REMARK                            x       y       z     vdW  Elec       q    Type
REMARK                         _______ _______ _______ _____ _____    ______ ____
ROOT
ATOM      1  O   UNL     1     -18.848  45.868 -13.007  0.00  0.00    +0.000 OA
ATOM      2  N   UNL     1     -16.890  44.696 -12.428  0.00  0.00    +0.000 N 
ATOM      3  N   UNL     1     -17.025  42.816 -10.930  0.00  0.00    +0.000 NA
ATOM      4  C   UNL     1     -17.507  43.448 -12.024  0.00  0.00    +0.000 A 
ATOM      5  C   UNL     1     -18.561  42.979 -12.791  0.00  0.00    +0.000 A 
ATOM      6  C   UNL     1     -18.692  41.103 -11.291  0.00  0.00    +0.000 A 
ATOM      7  C   UNL     1     -19.159  41.783 -12.410  0.00  0.00    +0.000 A 
ATOM      8  C   UNL     1     -15.489  44.897 -12.030  0.00  0.00    +0.000 C 
ATOM      9  C   UNL     1     -17.629  45.699 -13.087  0.00  0.00    +0.000 C 
ATOM     10  C   UNL     1     -17.633  41.656 -10.591  0.00  0.00    +0.000 A 
ATOM     11  C   UNL     1     -16.836  46.670 -13.932  0.00  0.00    +0.000 C 
ENDROOT
BRANCH   6  14
ATOM     12  O   UNL     1     -19.212  38.820 -11.554  0.00  0.00    +0.000 OA
ATOM     13  N   UNL     1     -19.966  39.838  -9.642  0.00  0.00    +0.000 N 
ATOM     14  C   UNL     1     -19.298  39.853 -10.865  0.00  0.00    +0.000 C 
ATOM     15  H   UNL     1     -20.076  40.630  -9.022  0.00  0.00    +0.000 HD
ATOM     16  H   UNL     1     -20.393  38.976  -9.318  0.00  0.00    +0.000 HD
ENDBRANCH   6  14
TORSDOF 1
ENDMDL
