MODEL 1
REMARK VINA RESULT:    -5.455      0.000      0.000
REMARK INTER + INTRA:          -6.259
REMARK INTER:                  -6.093
REMARK INTRA:                  -0.165
REMARK UNBOUND:                -0.165
REMARK  Name = 68699848
REMARK  5 active torsions:
REMARK  status: ('A' for Active; 'I' for Inactive)
REMARK    1  A    between atoms: N_2  and  C_13
REMARK    2  A    between atoms: N_2  and  C_14
REMARK    3  A    between atoms: C_5  and  C_8
REMARK    4  A    between atoms: C_6  and  C_12
REMARK    5  A    between atoms: C_8  and  C_10
REMARK                            x       y       z     vdW  Elec       q    Type
REMARK                         _______ _______ _______ _____ _____    ______ ____
ROOT
ATOM      1  N   UNL     1     -18.207  40.436 -12.399  0.00  0.00    +0.000 N 
ATOM      2  N   UNL     1     -19.169  41.981 -13.916  0.00  0.00    +0.000 NA
ATOM      3  C   UNL     1     -18.202  44.107 -12.380  0.00  0.00    +0.000 A 
ATOM      4  C   UNL     1     -17.953  42.794 -11.990  0.00  0.00    +0.000 A 
ATOM      5  C   UNL     1     -18.455  41.777 -12.786  0.00  0.00    +0.000 A 
ATOM      6  C   UNL     1     -18.933  44.357 -13.535  0.00  0.00    +0.000 A 
ATOM      7  C   UNL     1     -19.389  43.269 -14.262  0.00  0.00    +0.000 A 
ATOM      8  C   UNL     1     -19.136  39.746 -11.532  0.00  0.00    +0.000 C 
ATOM      9  C   UNL     1     -17.027  39.748 -12.874  0.00  0.00    +0.000 C 
ENDROOT
BRANCH   4  12
ATOM     10  O   UNL     1     -17.755  42.373  -9.682  0.00  0.00    +0.000 OA
ATOM     11  N   UNL     1     -15.812  42.394 -10.900  0.00  0.00    +0.000 N 
ATOM     12  C   UNL     1     -17.191  42.514 -10.778  0.00  0.00    +0.000 C 
ATOM     13  H   UNL     1     -15.232  42.194 -10.092  0.00  0.00    +0.000 HD
ATOM     14  H   UNL     1     -15.337  42.502 -11.791  0.00  0.00    +0.000 HD
ENDBRANCH   4  12
BRANCH   3  15
ATOM     15  C   UNL     1     -17.699  45.263 -11.579  0.00  0.00    +0.000 C 
ATOM     16  C   UNL     1     -18.194  46.600 -12.119  0.00  0.00    +0.000 C 
ENDBRANCH   3  15
TORSDOF 2
ENDMDL
MODEL 2
REMARK VINA RESULT:    -5.304      2.657      4.842
REMARK INTER + INTRA:          -6.090
REMARK INTER:                  -5.959
REMARK INTRA:                  -0.131
REMARK UNBOUND:                -0.165
REMARK  Name = 68699848
REMARK  5 active torsions:
REMARK  status: ('A' for Active; 'I' for Inactive)
REMARK    1  A    between atoms: N_2  and  C_13
REMARK    2  A    between atoms: N_2  and  C_14
REMARK    3  A    between atoms: C_5  and  C_8
REMARK    4  A    between atoms: C_6  and  C_12
REMARK    5  A    between atoms: C_8  and  C_10
REMARK                            x       y       z     vdW  Elec       q    Type
REMARK                         _______ _______ _______ _____ _____    ______ ____
ROOT
ATOM      1  N   UNL     1     -17.251  42.037 -11.421  0.00  0.00    +0.000 N 
ATOM      2  N   UNL     1     -17.785  42.849  -9.261  0.00  0.00    +0.000 NA
ATOM      3  C   UNL     1     -19.771  40.898  -9.008  0.00  0.00    +0.000 A 
ATOM      4  C   UNL     1     -19.007  40.970 -10.168  0.00  0.00    +0.000 A 
ATOM      5  C   UNL     1     -18.036  41.955 -10.244  0.00  0.00    +0.000 A 
ATOM      6  C   UNL     1     -19.544  41.800  -7.975  0.00  0.00    +0.000 A 
ATOM      7  C   UNL     1     -18.547  42.747  -8.149  0.00  0.00    +0.000 A 
ATOM      8  C   UNL     1     -17.683  42.863 -12.527  0.00  0.00    +0.000 C 
ATOM      9  C   UNL     1     -16.011  41.300 -11.522  0.00  0.00    +0.000 C 
ENDROOT
BRANCH   4  12
ATOM     10  O   UNL     1     -18.689  38.918 -11.280  0.00  0.00    +0.000 OA
ATOM     11  N   UNL     1     -20.099  40.427 -12.276  0.00  0.00    +0.000 N 
ATOM     12  C   UNL     1     -19.235  40.033 -11.263  0.00  0.00    +0.000 C 
ATOM     13  H   UNL     1     -20.300  39.814 -13.060  0.00  0.00    +0.000 HD
ATOM     14  H   UNL     1     -20.557  41.334 -12.274  0.00  0.00    +0.000 HD
ENDBRANCH   4  12
BRANCH   3  15
ATOM     15  C   UNL     1     -20.840  39.867  -8.844  0.00  0.00    +0.000 C 
ATOM     16  C   UNL     1     -22.016  40.379  -8.019  0.00  0.00    +0.000 C 
ENDBRANCH   3  15
TORSDOF 2
ENDMDL
MODEL 3
REMARK VINA RESULT:    -5.237      1.920      3.345
REMARK INTER + INTRA:          -6.014
REMARK INTER:                  -5.845
REMARK INTRA:                  -0.169
REMARK UNBOUND:                -0.165
REMARK  Name = 68699848
REMARK  5 active torsions:
REMARK  status: ('A' for Active; 'I' for Inactive)
REMARK    1  A    between atoms: N_2  and  C_13
REMARK    2  A    between atoms: N_2  and  C_14
REMARK    3  A    between atoms: C_5  and  C_8
REMARK    4  A    between atoms: C_6  and  C_12
REMARK    5  A    between atoms: C_8  and  C_10
REMARK                            x       y       z     vdW  Elec       q    Type
REMARK                         _______ _______ _______ _____ _____    ______ ____
ROOT
ATOM      1  N   UNL     1     -17.128  41.082 -10.832  0.00  0.00    +0.000 N 
ATOM      2  N   UNL     1     -17.160  43.424 -11.183  0.00  0.00    +0.000 NA
ATOM      3  C   UNL     1     -18.944  43.091 -13.310  0.00  0.00    +0.000 A 
ATOM      4  C   UNL     1     -18.485  41.984 -12.603  0.00  0.00    +0.000 A 
ATOM      5  C   UNL     1     -17.602  42.203 -11.559  0.00  0.00    +0.000 A 
ATOM      6  C   UNL     1     -18.512  44.364 -12.954  0.00  0.00    +0.000 A 
ATOM      7  C   UNL     1     -17.628  44.476 -11.893  0.00  0.00    +0.000 A 
ATOM      8  C   UNL     1     -15.923  40.400 -11.251  0.00  0.00    +0.000 C 
ATOM      9  C   UNL     1     -17.843  40.617  -9.665  0.00  0.00    +0.000 C 
ENDROOT
BRANCH   4  12
ATOM     10  O   UNL     1     -18.268  39.938 -13.750  0.00  0.00    +0.000 OA
ATOM     11  N   UNL     1     -20.098  40.172 -12.387  0.00  0.00    +0.000 N 
ATOM     12  C   UNL     1     -18.926  40.641 -12.966  0.00  0.00    +0.000 C 
ATOM     13  H   UNL     1     -20.449  39.243 -12.597  0.00  0.00    +0.000 HD
ATOM     14  H   UNL     1     -20.643  40.733 -11.740  0.00  0.00    +0.000 HD
ENDBRANCH   4  12
BRANCH   3  15
ATOM     15  C   UNL     1     -19.897  42.944 -14.450  0.00  0.00    +0.000 C 
ATOM     16  C   UNL     1     -19.547  43.862 -15.617  0.00  0.00    +0.000 C 
ENDBRANCH   3  15
TORSDOF 2
ENDMDL
MODEL 4
REMARK VINA RESULT:    -4.562      3.605      5.823
REMARK INTER + INTRA:          -5.261
REMARK INTER:                  -5.079
REMARK INTRA:                  -0.182
REMARK UNBOUND:                -0.165
REMARK  Name = 68699848
REMARK  5 active torsions:
REMARK  status: ('A' for Active; 'I' for Inactive)
REMARK    1  A    between atoms: N_2  and  C_13
REMARK    2  A    between atoms: N_2  and  C_14
REMARK    3  A    between atoms: C_5  and  C_8
REMARK    4  A    between atoms: C_6  and  C_12
REMARK    5  A    between atoms: C_8  and  C_10
REMARK                            x       y       z     vdW  Elec       q    Type
REMARK                         _______ _______ _______ _____ _____    ______ ____
ROOT
ATOM      1  N   UNL     1     -19.642  45.607 -17.239  0.00  0.00    +0.000 N 
ATOM      2  N   UNL     1     -18.162  45.960 -15.422  0.00  0.00    +0.000 NA
ATOM      3  C   UNL     1     -19.037  43.585 -14.235  0.00  0.00    +0.000 A 
ATOM      4  C   UNL     1     -19.572  43.995 -15.452  0.00  0.00    +0.000 A 
ATOM      5  C   UNL     1     -19.105  45.179 -15.998  0.00  0.00    +0.000 A 
ATOM      6  C   UNL     1     -18.067  44.360 -13.612  0.00  0.00    +0.000 A 
ATOM      7  C   UNL     1     -17.666  45.528 -14.241  0.00  0.00    +0.000 A 
ATOM      8  C   UNL     1     -20.812  46.457 -17.270  0.00  0.00    +0.000 C 
ATOM      9  C   UNL     1     -19.021  45.201 -18.479  0.00  0.00    +0.000 C 
ENDROOT
BRANCH   4  12
ATOM     10  O   UNL     1     -20.287  42.309 -16.934  0.00  0.00    +0.000 OA
ATOM     11  N   UNL     1     -21.920  43.447 -15.795  0.00  0.00    +0.000 N 
ATOM     12  C   UNL     1     -20.593  43.194 -16.119  0.00  0.00    +0.000 C 
ATOM     13  H   UNL     1     -22.672  42.917 -16.222  0.00  0.00    +0.000 HD
ATOM     14  H   UNL     1     -22.186  44.164 -15.127  0.00  0.00    +0.000 HD
ENDBRANCH   4  12
BRANCH   3  15
ATOM     15  C   UNL     1     -19.485  42.321 -13.577  0.00  0.00    +0.000 C 
ATOM     16  C   UNL     1     -18.315  41.415 -13.208  0.00  0.00    +0.000 C 
ENDBRANCH   3  15
TORSDOF 2
ENDMDL
MODEL 5
REMARK VINA RESULT:    -4.245      2.300      3.351
REMARK INTER + INTRA:          -4.906
REMARK INTER:                  -4.792
REMARK INTRA:                  -0.115
REMARK UNBOUND:                -0.165
REMARK  Name = 68699848
REMARK  5 active torsions:
REMARK  status: ('A' for Active; 'I' for Inactive)
REMARK    1  A    between atoms: N_2  and  C_13
REMARK    2  A    between atoms: N_2  and  C_14
REMARK    3  A    between atoms: C_5  and  C_8
REMARK    4  A    between atoms: C_6  and  C_12
REMARK    5  A    between atoms: C_8  and  C_10
REMARK                            x       y       z     vdW  Elec       q    Type
REMARK                         _______ _______ _______ _____ _____    ______ ____
ROOT
ATOM      1  N   UNL     1     -17.969  41.090 -11.942  0.00  0.00    +0.000 N 
ATOM      2  N   UNL     1     -15.915  42.226 -11.613  0.00  0.00    +0.000 NA
ATOM      3  C   UNL     1     -16.715  44.213 -13.409  0.00  0.00    +0.000 A 
ATOM      4  C   UNL     1     -17.559  43.143 -13.130  0.00  0.00    +0.000 A 
ATOM      5  C   UNL     1     -17.116  42.185 -12.234  0.00  0.00    +0.000 A 
ATOM      6  C   UNL     1     -15.472  44.290 -12.791  0.00  0.00    +0.000 A 
ATOM      7  C   UNL     1     -15.123  43.280 -11.908  0.00  0.00    +0.000 A 
ATOM      8  C   UNL     1     -17.898  39.883 -12.735  0.00  0.00    +0.000 C 
ATOM      9  C   UNL     1     -18.909  41.172 -10.847  0.00  0.00    +0.000 C 
ENDROOT
BRANCH   4  12
ATOM     10  O   UNL     1     -19.039  42.330 -14.772  0.00  0.00    +0.000 OA
ATOM     11  N   UNL     1     -19.912  43.769 -13.215  0.00  0.00    +0.000 N 
ATOM     12  C   UNL     1     -18.866  43.046 -13.773  0.00  0.00    +0.000 C 
ATOM     13  H   UNL     1     -20.843  43.734 -13.616  0.00  0.00    +0.000 HD
ATOM     14  H   UNL     1     -19.787  44.354 -12.394  0.00  0.00    +0.000 HD
ENDBRANCH   4  12
BRANCH   3  15
ATOM     15  C   UNL     1     -17.115  45.290 -14.364  0.00  0.00    +0.000 C 
ATOM     16  C   UNL     1     -15.924  46.123 -14.827  0.00  0.00    +0.000 C 
ENDBRANCH   3  15
TORSDOF 2
ENDMDL
