MODEL 1
REMARK VINA RESULT:    -5.572      0.000      0.000
REMARK INTER + INTRA:          -6.917
REMARK INTER:                  -6.549
REMARK INTRA:                  -0.368
REMARK UNBOUND:                -0.368
REMARK  Name = 68695914
REMARK  5 active torsions:
REMARK  status: ('A' for Active; 'I' for Inactive)
REMARK    1  A    between atoms: N_2  and  C_10
REMARK    2  A    between atoms: C_5  and  C_7
REMARK    3  A    between atoms: C_6  and  C_13
REMARK    4  A    between atoms: C_7  and  C_11
REMARK    5  A    between atoms: C_10  and  C_14
REMARK                            x       y       z     vdW  Elec       q    Type
REMARK                         _______ _______ _______ _____ _____    ______ ____
ROOT
ATOM      1  N   UNL     1     -19.337  42.500 -14.537  0.00  0.00    +0.000 N 
ATOM      2  N   UNL     1     -18.412  44.032 -12.984  0.00  0.00    +0.000 NA
ATOM      3  C   UNL     1     -17.801  41.922 -11.255  0.00  0.00    +0.000 A 
ATOM      4  C   UNL     1     -18.422  41.669 -12.473  0.00  0.00    +0.000 A 
ATOM      5  C   UNL     1     -18.704  42.749 -13.294  0.00  0.00    +0.000 A 
ATOM      6  C   UNL     1     -17.485  43.229 -10.901  0.00  0.00    +0.000 A 
ATOM      7  C   UNL     1     -17.809  44.239 -11.792  0.00  0.00    +0.000 A 
ATOM      8  H   UNL     1     -19.854  41.630 -14.611  0.00  0.00    +0.000 HD
ENDROOT
BRANCH   4  11
ATOM      9  O   UNL     1     -18.015  39.636 -13.589  0.00  0.00    +0.000 OA
ATOM     10  N   UNL     1     -19.947  39.773 -12.363  0.00  0.00    +0.000 N 
ATOM     11  C   UNL     1     -18.763  40.304 -12.858  0.00  0.00    +0.000 C 
ATOM     12  H   UNL     1     -20.567  40.305 -11.759  0.00  0.00    +0.000 HD
ATOM     13  H   UNL     1     -20.231  38.826 -12.592  0.00  0.00    +0.000 HD
ENDBRANCH   4  11
BRANCH   3  14
ATOM     14  C   UNL     1     -17.462  40.818 -10.309  0.00  0.00    +0.000 C 
ATOM     15  C   UNL     1     -18.391  40.785  -9.100  0.00  0.00    +0.000 C 
ENDBRANCH   3  14
BRANCH   1  16
ATOM     16  C   UNL     1     -19.670  43.542 -15.453  0.00  0.00    +0.000 C 
ATOM     17  C   UNL     1     -21.033  43.284 -16.065  0.00  0.00    +0.000 C 
ENDBRANCH   1  16
TORSDOF 3
ENDMDL
MODEL 2
REMARK VINA RESULT:    -4.962      3.048      4.837
REMARK INTER + INTRA:          -6.200
REMARK INTER:                  -5.876
REMARK INTRA:                  -0.324
REMARK UNBOUND:                -0.368
REMARK  Name = 68695914
REMARK  5 active torsions:
REMARK  status: ('A' for Active; 'I' for Inactive)
REMARK    1  A    between atoms: N_2  and  C_10
REMARK    2  A    between atoms: C_5  and  C_7
REMARK    3  A    between atoms: C_6  and  C_13
REMARK    4  A    between atoms: C_7  and  C_11
REMARK    5  A    between atoms: C_10  and  C_14
REMARK                            x       y       z     vdW  Elec       q    Type
REMARK                         _______ _______ _______ _____ _____    ______ ____
ROOT
ATOM      1  N   UNL     1     -14.204  41.753 -10.925  0.00  0.00    +0.000 N 
ATOM      2  N   UNL     1     -14.926  43.766 -11.945  0.00  0.00    +0.000 NA
ATOM      3  C   UNL     1     -17.485  42.692 -12.274  0.00  0.00    +0.000 A 
ATOM      4  C   UNL     1     -16.483  41.937 -11.675  0.00  0.00    +0.000 A 
ATOM      5  C   UNL     1     -15.231  42.515 -11.536  0.00  0.00    +0.000 A 
ATOM      6  C   UNL     1     -17.209  43.984 -12.710  0.00  0.00    +0.000 A 
ATOM      7  C   UNL     1     -15.925  44.470 -12.524  0.00  0.00    +0.000 A 
ATOM      8  H   UNL     1     -14.323  40.747 -10.943  0.00  0.00    +0.000 HD
ENDROOT
BRANCH   4  11
ATOM      9  O   UNL     1     -16.417  39.593 -11.888  0.00  0.00    +0.000 OA
ATOM     10  N   UNL     1     -17.391  40.431  -9.990  0.00  0.00    +0.000 N 
ATOM     11  C   UNL     1     -16.755  40.580 -11.216  0.00  0.00    +0.000 C 
ATOM     12  H   UNL     1     -17.668  41.229  -9.425  0.00  0.00    +0.000 HD
ATOM     13  H   UNL     1     -17.600  39.511  -9.617  0.00  0.00    +0.000 HD
ENDBRANCH   4  11
BRANCH   3  14
ATOM     14  C   UNL     1     -18.862  42.147 -12.465  0.00  0.00    +0.000 C 
ATOM     15  C   UNL     1     -19.503  42.632 -13.762  0.00  0.00    +0.000 C 
ENDBRANCH   3  14
BRANCH   1  16
ATOM     16  C   UNL     1     -12.882  42.257 -10.735  0.00  0.00    +0.000 C 
ATOM     17  C   UNL     1     -11.870  41.141 -10.901  0.00  0.00    +0.000 C 
ENDBRANCH   1  16
TORSDOF 3
ENDMDL
MODEL 3
REMARK VINA RESULT:    -4.955      1.661      2.086
REMARK INTER + INTRA:          -6.192
REMARK INTER:                  -5.834
REMARK INTRA:                  -0.358
REMARK UNBOUND:                -0.368
REMARK  Name = 68695914
REMARK  5 active torsions:
REMARK  status: ('A' for Active; 'I' for Inactive)
REMARK    1  A    between atoms: N_2  and  C_10
REMARK    2  A    between atoms: C_5  and  C_7
REMARK    3  A    between atoms: C_6  and  C_13
REMARK    4  A    between atoms: C_7  and  C_11
REMARK    5  A    between atoms: C_10  and  C_14
REMARK                            x       y       z     vdW  Elec       q    Type
REMARK                         _______ _______ _______ _____ _____    ______ ____
ROOT
ATOM      1  N   UNL     1     -19.794  42.628 -15.411  0.00  0.00    +0.000 N 
ATOM      2  N   UNL     1     -18.955  44.732 -14.715  0.00  0.00    +0.000 NA
ATOM      3  C   UNL     1     -17.931  43.566 -12.391  0.00  0.00    +0.000 A 
ATOM      4  C   UNL     1     -18.611  42.788 -13.321  0.00  0.00    +0.000 A 
ATOM      5  C   UNL     1     -19.099  43.414 -14.456  0.00  0.00    +0.000 A 
ATOM      6  C   UNL     1     -17.763  44.927 -12.621  0.00  0.00    +0.000 A 
ATOM      7  C   UNL     1     -18.289  45.457 -13.788  0.00  0.00    +0.000 A 
ATOM      8  H   UNL     1     -20.195  41.761 -15.070  0.00  0.00    +0.000 HD
ENDROOT
BRANCH   4  11
ATOM      9  O   UNL     1     -19.898  40.903 -12.741  0.00  0.00    +0.000 OA
ATOM     10  N   UNL     1     -17.707  40.526 -13.300  0.00  0.00    +0.000 N 
ATOM     11  C   UNL     1     -18.799  41.359 -13.093  0.00  0.00    +0.000 C 
ATOM     12  H   UNL     1     -16.803  40.884 -13.594  0.00  0.00    +0.000 HD
ATOM     13  H   UNL     1     -17.782  39.524 -13.163  0.00  0.00    +0.000 HD
ENDBRANCH   4  11
BRANCH   3  14
ATOM     14  C   UNL     1     -17.373  42.973 -11.139  0.00  0.00    +0.000 C 
ATOM     15  C   UNL     1     -15.854  42.844 -11.186  0.00  0.00    +0.000 C 
ENDBRANCH   3  14
BRANCH   1  16
ATOM     16  C   UNL     1     -20.335  43.177 -16.611  0.00  0.00    +0.000 C 
ATOM     17  C   UNL     1     -21.826  43.404 -16.456  0.00  0.00    +0.000 C 
ENDBRANCH   1  16
TORSDOF 3
ENDMDL
MODEL 4
REMARK VINA RESULT:    -4.925      2.125      4.744
REMARK INTER + INTRA:          -6.157
REMARK INTER:                  -5.803
REMARK INTRA:                  -0.354
REMARK UNBOUND:                -0.368
REMARK  Name = 68695914
REMARK  5 active torsions:
REMARK  status: ('A' for Active; 'I' for Inactive)
REMARK    1  A    between atoms: N_2  and  C_10
REMARK    2  A    between atoms: C_5  and  C_7
REMARK    3  A    between atoms: C_6  and  C_13
REMARK    4  A    between atoms: C_7  and  C_11
REMARK    5  A    between atoms: C_10  and  C_14
REMARK                            x       y       z     vdW  Elec       q    Type
REMARK                         _______ _______ _______ _____ _____    ______ ____
ROOT
ATOM      1  N   UNL     1     -19.746  41.639 -13.446  0.00  0.00    +0.000 N 
ATOM      2  N   UNL     1     -18.270  43.329 -12.683  0.00  0.00    +0.000 NA
ATOM      3  C   UNL     1     -18.821  44.852 -14.962  0.00  0.00    +0.000 A 
ATOM      4  C   UNL     1     -19.433  43.616 -14.783  0.00  0.00    +0.000 A 
ATOM      5  C   UNL     1     -19.126  42.900 -13.637  0.00  0.00    +0.000 A 
ATOM      6  C   UNL     1     -17.933  45.327 -14.002  0.00  0.00    +0.000 A 
ATOM      7  C   UNL     1     -17.694  44.534 -12.891  0.00  0.00    +0.000 A 
ATOM      8  H   UNL     1     -20.090  41.179 -14.282  0.00  0.00    +0.000 HD
ENDROOT
BRANCH   4  11
ATOM      9  O   UNL     1     -19.989  42.317 -16.667  0.00  0.00    +0.000 OA
ATOM     10  N   UNL     1     -21.689  43.508 -15.695  0.00  0.00    +0.000 N 
ATOM     11  C   UNL     1     -20.364  43.102 -15.782  0.00  0.00    +0.000 C 
ATOM     12  H   UNL     1     -22.012  44.145 -14.972  0.00  0.00    +0.000 HD
ATOM     13  H   UNL     1     -22.382  43.177 -16.358  0.00  0.00    +0.000 HD
ENDBRANCH   4  11
BRANCH   3  14
ATOM     14  C   UNL     1     -19.093  45.688 -16.168  0.00  0.00    +0.000 C 
ATOM     15  C   UNL     1     -19.205  47.172 -15.831  0.00  0.00    +0.000 C 
ENDBRANCH   3  14
BRANCH   1  16
ATOM     16  C   UNL     1     -19.497  40.826 -12.301  0.00  0.00    +0.000 C 
ATOM     17  C   UNL     1     -18.526  39.715 -12.652  0.00  0.00    +0.000 C 
ENDBRANCH   1  16
TORSDOF 3
ENDMDL
MODEL 5
REMARK VINA RESULT:    -4.692      2.735      4.123
REMARK INTER + INTRA:          -5.883
REMARK INTER:                  -5.570
REMARK INTRA:                  -0.314
REMARK UNBOUND:                -0.368
REMARK  Name = 68695914
REMARK  5 active torsions:
REMARK  status: ('A' for Active; 'I' for Inactive)
REMARK    1  A    between atoms: N_2  and  C_10
REMARK    2  A    between atoms: C_5  and  C_7
REMARK    3  A    between atoms: C_6  and  C_13
REMARK    4  A    between atoms: C_7  and  C_11
REMARK    5  A    between atoms: C_10  and  C_14
REMARK                            x       y       z     vdW  Elec       q    Type
REMARK                         _______ _______ _______ _____ _____    ______ ____
ROOT
ATOM      1  N   UNL     1     -20.084  43.964 -15.966  0.00  0.00    +0.000 N 
ATOM      2  N   UNL     1     -19.829  42.330 -14.269  0.00  0.00    +0.000 NA
ATOM      3  C   UNL     1     -17.942  43.944 -12.985  0.00  0.00    +0.000 A 
ATOM      4  C   UNL     1     -18.540  44.373 -14.166  0.00  0.00    +0.000 A 
ATOM      5  C   UNL     1     -19.469  43.536 -14.763  0.00  0.00    +0.000 A 
ATOM      6  C   UNL     1     -18.286  42.709 -12.447  0.00  0.00    +0.000 A 
ATOM      7  C   UNL     1     -19.226  41.947 -13.121  0.00  0.00    +0.000 A 
ATOM      8  H   UNL     1     -19.582  44.665 -16.500  0.00  0.00    +0.000 HD
ENDROOT
BRANCH   4  11
ATOM      9  O   UNL     1     -18.866  46.678 -14.517  0.00  0.00    +0.000 OA
ATOM     10  N   UNL     1     -17.056  45.721 -15.548  0.00  0.00    +0.000 N 
ATOM     11  C   UNL     1     -18.188  45.664 -14.745  0.00  0.00    +0.000 C 
ATOM     12  H   UNL     1     -16.487  44.902 -15.739  0.00  0.00    +0.000 HD
ATOM     13  H   UNL     1     -16.760  46.594 -15.972  0.00  0.00    +0.000 HD
ENDBRANCH   4  11
BRANCH   3  14
ATOM     14  C   UNL     1     -16.931  44.783 -12.276  0.00  0.00    +0.000 C 
ATOM     15  C   UNL     1     -17.572  45.759 -11.295  0.00  0.00    +0.000 C 
ENDBRANCH   3  14
BRANCH   1  16
ATOM     16  C   UNL     1     -21.051  43.176 -16.658  0.00  0.00    +0.000 C 
ATOM     17  C   UNL     1     -22.424  43.809 -16.536  0.00  0.00    +0.000 C 
ENDBRANCH   1  16
TORSDOF 3
ENDMDL
