MODEL 1
REMARK VINA RESULT:    -6.226      0.000      0.000
REMARK INTER + INTRA:          -7.250
REMARK INTER:                  -7.317
REMARK INTRA:                   0.068
REMARK UNBOUND:                 0.068
REMARK  Name = 68757947
REMARK  4 active torsions:
REMARK  status: ('A' for Active; 'I' for Inactive)
REMARK    1  A    between atoms: N_2  and  C_5
REMARK    2  A    between atoms: N_2  and  C_8
REMARK    3  A    between atoms: N_2  and  C_9
REMARK    4  A    between atoms: C_10  and  C_12
REMARK                            x       y       z     vdW  Elec       q    Type
REMARK                         _______ _______ _______ _____ _____    ______ ____
ROOT
ATOM      1  N   UNL     1     -18.102  41.997  -8.821  0.00  0.00    +0.000 NA
ATOM      2  C   UNL     1     -18.272  41.291  -9.962  0.00  0.00    +0.000 A 
ATOM      3  C   UNL     1     -19.387  40.515 -10.235  0.00  0.00    +0.000 A 
ATOM      4  C   UNL     1     -20.392  40.462  -9.276  0.00  0.00    +0.000 A 
ATOM      5  C   UNL     1     -19.099  41.920  -7.913  0.00  0.00    +0.000 A 
ATOM      6  C   UNL     1     -20.254  41.175  -8.090  0.00  0.00    +0.000 A 
ENDROOT
BRANCH   3   9
ATOM      7  O   UNL     1     -19.298  38.544 -11.521  0.00  0.00    +0.000 OA
ATOM      8  N   UNL     1     -19.984  40.450 -12.595  0.00  0.00    +0.000 N 
ATOM      9  C   UNL     1     -19.539  39.762 -11.472  0.00  0.00    +0.000 C 
ATOM     10  H   UNL     1     -20.195  41.443 -12.572  0.00  0.00    +0.000 HD
ATOM     11  H   UNL     1     -20.115  39.973 -13.481  0.00  0.00    +0.000 HD
ENDBRANCH   3   9
BRANCH   2  12
ATOM     12  N   UNL     1     -17.241  41.349 -10.933  0.00  0.00    +0.000 N 
ATOM     13  C   UNL     1     -16.403  40.183 -11.172  0.00  0.00    +0.000 C 
BRANCH  12  14
ATOM     14  C   UNL     1     -16.973  42.570 -11.717  0.00  0.00    +0.000 C 
ATOM     15  C   UNL     1     -17.383  42.677 -13.157  0.00  0.00    +0.000 C 
ATOM     16  C   UNL     1     -18.082  43.499 -12.115  0.00  0.00    +0.000 C 
ENDBRANCH  12  14
ENDBRANCH   2  12
TORSDOF 3
ENDMDL
MODEL 2
REMARK VINA RESULT:    -5.139      1.573      2.104
REMARK INTER + INTRA:          -5.973
REMARK INTER:                  -6.332
REMARK INTRA:                   0.359
REMARK UNBOUND:                 0.068
REMARK  Name = 68757947
REMARK  4 active torsions:
REMARK  status: ('A' for Active; 'I' for Inactive)
REMARK    1  A    between atoms: N_2  and  C_5
REMARK    2  A    between atoms: N_2  and  C_8
REMARK    3  A    between atoms: N_2  and  C_9
REMARK    4  A    between atoms: C_10  and  C_12
REMARK                            x       y       z     vdW  Elec       q    Type
REMARK                         _______ _______ _______ _____ _____    ______ ____
ROOT
ATOM      1  N   UNL     1     -18.032  42.363  -9.232  0.00  0.00    +0.000 NA
ATOM      2  C   UNL     1     -18.138  42.061 -10.545  0.00  0.00    +0.000 A 
ATOM      3  C   UNL     1     -18.883  41.004 -11.041  0.00  0.00    +0.000 A 
ATOM      4  C   UNL     1     -19.564  40.206 -10.129  0.00  0.00    +0.000 A 
ATOM      5  C   UNL     1     -18.708  41.565  -8.376  0.00  0.00    +0.000 A 
ATOM      6  C   UNL     1     -19.480  40.484  -8.770  0.00  0.00    +0.000 A 
ENDROOT
BRANCH   3   9
ATOM      7  O   UNL     1     -19.809  41.265 -13.191  0.00  0.00    +0.000 OA
ATOM      8  N   UNL     1     -18.083  39.770 -12.983  0.00  0.00    +0.000 N 
ATOM      9  C   UNL     1     -18.974  40.701 -12.462  0.00  0.00    +0.000 C 
ATOM     10  H   UNL     1     -17.389  39.306 -12.405  0.00  0.00    +0.000 HD
ATOM     11  H   UNL     1     -18.098  39.527 -13.968  0.00  0.00    +0.000 HD
ENDBRANCH   3   9
BRANCH   2  12
ATOM     12  N   UNL     1     -17.438  42.879 -11.469  0.00  0.00    +0.000 N 
ATOM     13  C   UNL     1     -18.055  44.096 -11.972  0.00  0.00    +0.000 C 
BRANCH  12  14
ATOM     14  C   UNL     1     -16.089  42.531 -11.955  0.00  0.00    +0.000 C 
ATOM     15  C   UNL     1     -15.220  43.547 -12.636  0.00  0.00    +0.000 C 
ATOM     16  C   UNL     1     -14.857  43.044 -11.270  0.00  0.00    +0.000 C 
ENDBRANCH  12  14
ENDBRANCH   2  12
TORSDOF 3
ENDMDL
MODEL 3
REMARK VINA RESULT:    -4.771      6.625      8.302
REMARK INTER + INTRA:          -5.540
REMARK INTER:                  -5.503
REMARK INTRA:                  -0.037
REMARK UNBOUND:                 0.068
REMARK  Name = 68757947
REMARK  4 active torsions:
REMARK  status: ('A' for Active; 'I' for Inactive)
REMARK    1  A    between atoms: N_2  and  C_5
REMARK    2  A    between atoms: N_2  and  C_8
REMARK    3  A    between atoms: N_2  and  C_9
REMARK    4  A    between atoms: C_10  and  C_12
REMARK                            x       y       z     vdW  Elec       q    Type
REMARK                         _______ _______ _______ _____ _____    ______ ____
ROOT
ATOM      1  N   UNL     1     -21.698  46.505 -17.780  0.00  0.00    +0.000 NA
ATOM      2  C   UNL     1     -21.018  45.413 -17.366  0.00  0.00    +0.000 A 
ATOM      3  C   UNL     1     -21.617  44.272 -16.859  0.00  0.00    +0.000 A 
ATOM      4  C   UNL     1     -23.004  44.249 -16.773  0.00  0.00    +0.000 A 
ATOM      5  C   UNL     1     -23.045  46.447 -17.681  0.00  0.00    +0.000 A 
ATOM      6  C   UNL     1     -23.739  45.354 -17.190  0.00  0.00    +0.000 A 
ENDROOT
BRANCH   3   9
ATOM      7  O   UNL     1     -20.457  42.254 -17.224  0.00  0.00    +0.000 OA
ATOM      8  N   UNL     1     -20.573  43.003 -15.060  0.00  0.00    +0.000 N 
ATOM      9  C   UNL     1     -20.856  43.111 -16.417  0.00  0.00    +0.000 C 
ATOM     10  H   UNL     1     -20.883  43.698 -14.388  0.00  0.00    +0.000 HD
ATOM     11  H   UNL     1     -20.040  42.219 -14.699  0.00  0.00    +0.000 HD
ENDBRANCH   3   9
BRANCH   2  12
ATOM     12  N   UNL     1     -19.603  45.445 -17.454  0.00  0.00    +0.000 N 
ATOM     13  C   UNL     1     -18.806  45.660 -16.256  0.00  0.00    +0.000 C 
BRANCH  12  14
ATOM     14  C   UNL     1     -18.896  45.276 -18.738  0.00  0.00    +0.000 C 
ATOM     15  C   UNL     1     -18.413  43.930 -19.192  0.00  0.00    +0.000 C 
ATOM     16  C   UNL     1     -19.551  44.598 -19.906  0.00  0.00    +0.000 C 
ENDBRANCH  12  14
ENDBRANCH   2  12
TORSDOF 3
ENDMDL
MODEL 4
REMARK VINA RESULT:    -4.172      2.310      3.092
REMARK INTER + INTRA:          -4.836
REMARK INTER:                  -5.258
REMARK INTRA:                   0.423
REMARK UNBOUND:                 0.068
REMARK  Name = 68757947
REMARK  4 active torsions:
REMARK  status: ('A' for Active; 'I' for Inactive)
REMARK    1  A    between atoms: N_2  and  C_5
REMARK    2  A    between atoms: N_2  and  C_8
REMARK    3  A    between atoms: N_2  and  C_9
REMARK    4  A    between atoms: C_10  and  C_12
REMARK                            x       y       z     vdW  Elec       q    Type
REMARK                         _______ _______ _______ _____ _____    ______ ____
ROOT
ATOM      1  N   UNL     1     -17.466  41.776 -10.389  0.00  0.00    +0.000 NA
ATOM      2  C   UNL     1     -17.880  42.379 -11.527  0.00  0.00    +0.000 A 
ATOM      3  C   UNL     1     -18.916  41.912 -12.320  0.00  0.00    +0.000 A 
ATOM      4  C   UNL     1     -19.570  40.753 -11.918  0.00  0.00    +0.000 A 
ATOM      5  C   UNL     1     -18.126  40.652 -10.032  0.00  0.00    +0.000 A 
ATOM      6  C   UNL     1     -19.174  40.105 -10.754  0.00  0.00    +0.000 A 
ENDROOT
BRANCH   3   9
ATOM      7  O   UNL     1     -20.114  43.551 -13.514  0.00  0.00    +0.000 OA
ATOM      8  N   UNL     1     -18.821  42.112 -14.746  0.00  0.00    +0.000 N 
ATOM      9  C   UNL     1     -19.336  42.582 -13.543  0.00  0.00    +0.000 C 
ATOM     10  H   UNL     1     -18.178  41.328 -14.788  0.00  0.00    +0.000 HD
ATOM     11  H   UNL     1     -19.075  42.546 -15.627  0.00  0.00    +0.000 HD
ENDBRANCH   3   9
BRANCH   2  12
ATOM     12  N   UNL     1     -17.206  43.559 -11.931  0.00  0.00    +0.000 N 
ATOM     13  C   UNL     1     -16.123  43.480 -12.900  0.00  0.00    +0.000 C 
BRANCH  12  14
ATOM     14  C   UNL     1     -17.558  44.885 -11.388  0.00  0.00    +0.000 C 
ATOM     15  C   UNL     1     -16.779  46.112 -11.761  0.00  0.00    +0.000 C 
ATOM     16  C   UNL     1     -18.186  45.939 -12.252  0.00  0.00    +0.000 C 
ENDBRANCH  12  14
ENDBRANCH   2  12
TORSDOF 3
ENDMDL
MODEL 5
REMARK VINA RESULT:    -4.066     13.668     14.608
REMARK INTER + INTRA:          -4.711
REMARK INTER:                  -4.666
REMARK INTRA:                  -0.045
REMARK UNBOUND:                 0.068
REMARK  Name = 68757947
REMARK  4 active torsions:
REMARK  status: ('A' for Active; 'I' for Inactive)
REMARK    1  A    between atoms: N_2  and  C_5
REMARK    2  A    between atoms: N_2  and  C_8
REMARK    3  A    between atoms: N_2  and  C_9
REMARK    4  A    between atoms: C_10  and  C_12
REMARK                            x       y       z     vdW  Elec       q    Type
REMARK                         _______ _______ _______ _____ _____    ______ ____
ROOT
ATOM      1  N   UNL     1     -33.119  42.615 -14.905  0.00  0.00    +0.000 NA
ATOM      2  C   UNL     1     -32.241  43.538 -15.358  0.00  0.00    +0.000 A 
ATOM      3  C   UNL     1     -31.735  44.572 -14.586  0.00  0.00    +0.000 A 
ATOM      4  C   UNL     1     -32.157  44.663 -13.265  0.00  0.00    +0.000 A 
ATOM      5  C   UNL     1     -33.506  42.736 -13.616  0.00  0.00    +0.000 A 
ATOM      6  C   UNL     1     -33.059  43.732 -12.762  0.00  0.00    +0.000 A 
ENDROOT
BRANCH   3   9
ATOM      7  O   UNL     1     -31.184  46.582 -15.683  0.00  0.00    +0.000 OA
ATOM      8  N   UNL     1     -29.437  45.312 -14.912  0.00  0.00    +0.000 N 
ATOM      9  C   UNL     1     -30.793  45.554 -15.104  0.00  0.00    +0.000 C 
ATOM     10  H   UNL     1     -29.100  44.482 -14.434  0.00  0.00    +0.000 HD
ATOM     11  H   UNL     1     -28.738  45.967 -15.246  0.00  0.00    +0.000 HD
ENDBRANCH   3   9
BRANCH   2  12
ATOM     12  N   UNL     1     -31.818  43.440 -16.707  0.00  0.00    +0.000 N 
ATOM     13  C   UNL     1     -32.515  44.189 -17.742  0.00  0.00    +0.000 C 
BRANCH  12  14
ATOM     14  C   UNL     1     -30.686  42.584 -17.111  0.00  0.00    +0.000 C 
ATOM     15  C   UNL     1     -30.867  41.113 -17.350  0.00  0.00    +0.000 C 
ATOM     16  C   UNL     1     -30.584  42.031 -18.502  0.00  0.00    +0.000 C 
ENDBRANCH  12  14
ENDBRANCH   2  12
TORSDOF 3
ENDMDL
