MODEL 1
REMARK VINA RESULT:    -6.025      0.000      0.000
REMARK INTER + INTRA:          -7.152
REMARK INTER:                  -7.081
REMARK INTRA:                  -0.071
REMARK UNBOUND:                -0.071
REMARK  Name = 68756739
REMARK  4 active torsions:
REMARK  status: ('A' for Active; 'I' for Inactive)
REMARK    1  A    between atoms: N_2  and  C_5
REMARK    2  A    between atoms: N_2  and  C_9
REMARK    3  A    between atoms: N_2  and  C_10
REMARK    4  A    between atoms: C_11  and  C_13
REMARK                            x       y       z     vdW  Elec       q    Type
REMARK                         _______ _______ _______ _____ _____    ______ ____
ROOT
ATOM      1  N   UNL     1     -19.590  41.983 -12.412  0.00  0.00    +0.000 NA
ATOM      2  C   UNL     1     -18.578  41.225 -11.936  0.00  0.00    +0.000 A 
ATOM      3  C   UNL     1     -17.245  41.415 -12.264  0.00  0.00    +0.000 A 
ATOM      4  C   UNL     1     -16.931  42.450 -13.137  0.00  0.00    +0.000 A 
ATOM      5  C   UNL     1     -19.247  42.980 -13.259  0.00  0.00    +0.000 A 
ATOM      6  C   UNL     1     -17.946  43.252 -13.649  0.00  0.00    +0.000 A 
ENDROOT
BRANCH   3   9
ATOM      7  O   UNL     1     -16.118  39.364 -11.993  0.00  0.00    +0.000 OA
ATOM      8  N   UNL     1     -15.209  41.190 -10.944  0.00  0.00    +0.000 N 
ATOM      9  C   UNL     1     -16.176  40.579 -11.735  0.00  0.00    +0.000 C 
ATOM     10  H   UNL     1     -14.440  40.656 -10.554  0.00  0.00    +0.000 HD
ATOM     11  H   UNL     1     -15.238  42.181 -10.727  0.00  0.00    +0.000 HD
ENDBRANCH   3   9
BRANCH   2  12
ATOM     12  N   UNL     1     -18.908  40.165 -11.044  0.00  0.00    +0.000 N 
ATOM     13  C   UNL     1     -19.457  38.934 -11.624  0.00  0.00    +0.000 C 
BRANCH  12  14
ATOM     14  C   UNL     1     -18.748  40.222  -9.621  0.00  0.00    +0.000 C 
ATOM     15  C   UNL     1     -20.096  40.213  -8.870  0.00  0.00    +0.000 C 
ATOM     16  C   UNL     1     -18.557  41.663  -9.103  0.00  0.00    +0.000 C 
ATOM     17  C   UNL     1     -19.497  41.287  -7.938  0.00  0.00    +0.000 C 
ENDBRANCH  12  14
ENDBRANCH   2  12
TORSDOF 3
ENDMDL
MODEL 2
REMARK VINA RESULT:    -5.325      1.730      2.148
REMARK INTER + INTRA:          -6.329
REMARK INTER:                  -6.159
REMARK INTRA:                  -0.171
REMARK UNBOUND:                -0.071
REMARK  Name = 68756739
REMARK  4 active torsions:
REMARK  status: ('A' for Active; 'I' for Inactive)
REMARK    1  A    between atoms: N_2  and  C_5
REMARK    2  A    between atoms: N_2  and  C_9
REMARK    3  A    between atoms: N_2  and  C_10
REMARK    4  A    between atoms: C_11  and  C_13
REMARK                            x       y       z     vdW  Elec       q    Type
REMARK                         _______ _______ _______ _____ _____    ______ ____
ROOT
ATOM      1  N   UNL     1     -19.391  41.865 -14.057  0.00  0.00    +0.000 NA
ATOM      2  C   UNL     1     -18.360  41.865 -13.184  0.00  0.00    +0.000 A 
ATOM      3  C   UNL     1     -17.591  42.979 -12.890  0.00  0.00    +0.000 A 
ATOM      4  C   UNL     1     -17.900  44.171 -13.535  0.00  0.00    +0.000 A 
ATOM      5  C   UNL     1     -19.662  43.042 -14.665  0.00  0.00    +0.000 A 
ATOM      6  C   UNL     1     -18.954  44.212 -14.442  0.00  0.00    +0.000 A 
ENDROOT
BRANCH   3   9
ATOM      7  O   UNL     1     -16.675  43.060 -10.722  0.00  0.00    +0.000 OA
ATOM      8  N   UNL     1     -15.202  42.765 -12.455  0.00  0.00    +0.000 N 
ATOM      9  C   UNL     1     -16.483  42.947 -11.944  0.00  0.00    +0.000 C 
ATOM     10  H   UNL     1     -14.396  42.730 -11.841  0.00  0.00    +0.000 HD
ATOM     11  H   UNL     1     -15.028  42.665 -13.450  0.00  0.00    +0.000 HD
ENDBRANCH   3   9
BRANCH   2  12
ATOM     12  N   UNL     1     -18.048  40.639 -12.529  0.00  0.00    +0.000 N 
ATOM     13  C   UNL     1     -16.924  39.855 -13.054  0.00  0.00    +0.000 C 
BRANCH  12  14
ATOM     14  C   UNL     1     -18.760  40.118 -11.400  0.00  0.00    +0.000 C 
ATOM     15  C   UNL     1     -19.661  41.173 -10.726  0.00  0.00    +0.000 C 
ATOM     16  C   UNL     1     -17.914  40.127 -10.109  0.00  0.00    +0.000 C 
ATOM     17  C   UNL     1     -19.183  40.606  -9.373  0.00  0.00    +0.000 C 
ENDBRANCH  12  14
ENDBRANCH   2  12
TORSDOF 3
ENDMDL
MODEL 3
REMARK VINA RESULT:    -5.104      2.724      3.722
REMARK INTER + INTRA:          -6.069
REMARK INTER:                  -5.880
REMARK INTRA:                  -0.190
REMARK UNBOUND:                -0.071
REMARK  Name = 68756739
REMARK  4 active torsions:
REMARK  status: ('A' for Active; 'I' for Inactive)
REMARK    1  A    between atoms: N_2  and  C_5
REMARK    2  A    between atoms: N_2  and  C_9
REMARK    3  A    between atoms: N_2  and  C_10
REMARK    4  A    between atoms: C_11  and  C_13
REMARK                            x       y       z     vdW  Elec       q    Type
REMARK                         _______ _______ _______ _____ _____    ______ ____
ROOT
ATOM      1  N   UNL     1     -19.579  42.465 -14.930  0.00  0.00    +0.000 NA
ATOM      2  C   UNL     1     -18.755  42.838 -13.926  0.00  0.00    +0.000 A 
ATOM      3  C   UNL     1     -18.225  44.111 -13.789  0.00  0.00    +0.000 A 
ATOM      4  C   UNL     1     -18.563  45.062 -14.745  0.00  0.00    +0.000 A 
ATOM      5  C   UNL     1     -19.885  43.416 -15.841  0.00  0.00    +0.000 A 
ATOM      6  C   UNL     1     -19.408  44.716 -15.794  0.00  0.00    +0.000 A 
ENDROOT
BRANCH   3   9
ATOM      7  O   UNL     1     -17.781  44.741 -11.564  0.00  0.00    +0.000 OA
ATOM      8  N   UNL     1     -15.972  44.522 -12.957  0.00  0.00    +0.000 N 
ATOM      9  C   UNL     1     -17.337  44.483 -12.696  0.00  0.00    +0.000 C 
ATOM     10  H   UNL     1     -15.309  44.770 -12.231  0.00  0.00    +0.000 HD
ATOM     11  H   UNL     1     -15.592  44.309 -13.874  0.00  0.00    +0.000 HD
ENDBRANCH   3   9
BRANCH   2  12
ATOM     12  N   UNL     1     -18.411  41.857 -12.952  0.00  0.00    +0.000 N 
ATOM     13  C   UNL     1     -19.456  41.439 -12.011  0.00  0.00    +0.000 C 
BRANCH  12  14
ATOM     14  C   UNL     1     -17.116  41.258 -12.825  0.00  0.00    +0.000 C 
ATOM     15  C   UNL     1     -17.151  39.724 -12.984  0.00  0.00    +0.000 C 
ATOM     16  C   UNL     1     -16.714  41.020 -11.354  0.00  0.00    +0.000 C 
ATOM     17  C   UNL     1     -16.154  39.656 -11.809  0.00  0.00    +0.000 C 
ENDBRANCH  12  14
ENDBRANCH   2  12
TORSDOF 3
ENDMDL
MODEL 4
REMARK VINA RESULT:    -4.981      6.449      8.750
REMARK INTER + INTRA:          -5.926
REMARK INTER:                  -5.707
REMARK INTRA:                  -0.219
REMARK UNBOUND:                -0.071
REMARK  Name = 68756739
REMARK  4 active torsions:
REMARK  status: ('A' for Active; 'I' for Inactive)
REMARK    1  A    between atoms: N_2  and  C_5
REMARK    2  A    between atoms: N_2  and  C_9
REMARK    3  A    between atoms: N_2  and  C_10
REMARK    4  A    between atoms: C_11  and  C_13
REMARK                            x       y       z     vdW  Elec       q    Type
REMARK                         _______ _______ _______ _____ _____    ______ ____
ROOT
ATOM      1  N   UNL     1     -21.471  46.482 -17.927  0.00  0.00    +0.000 NA
ATOM      2  C   UNL     1     -20.883  45.345 -17.496  0.00  0.00    +0.000 A 
ATOM      3  C   UNL     1     -21.570  44.274 -16.947  0.00  0.00    +0.000 A 
ATOM      4  C   UNL     1     -22.952  44.379 -16.833  0.00  0.00    +0.000 A 
ATOM      5  C   UNL     1     -22.816  46.548 -17.800  0.00  0.00    +0.000 A 
ATOM      6  C   UNL     1     -23.595  45.534 -17.265  0.00  0.00    +0.000 A 
ENDROOT
BRANCH   3   9
ATOM      7  O   UNL     1     -20.666  42.124 -17.270  0.00  0.00    +0.000 OA
ATOM      8  N   UNL     1     -20.534  42.993 -15.152  0.00  0.00    +0.000 N 
ATOM      9  C   UNL     1     -20.907  43.061 -16.490  0.00  0.00    +0.000 C 
ATOM     10  H   UNL     1     -20.065  42.174 -14.781  0.00  0.00    +0.000 HD
ATOM     11  H   UNL     1     -20.718  43.751 -14.502  0.00  0.00    +0.000 HD
ENDBRANCH   3   9
BRANCH   2  12
ATOM     12  N   UNL     1     -19.467  45.246 -17.614  0.00  0.00    +0.000 N 
ATOM     13  C   UNL     1     -18.652  45.945 -16.615  0.00  0.00    +0.000 C 
BRANCH  12  14
ATOM     14  C   UNL     1     -18.787  44.519 -18.645  0.00  0.00    +0.000 C 
ATOM     15  C   UNL     1     -17.507  45.231 -19.129  0.00  0.00    +0.000 C 
ATOM     16  C   UNL     1     -19.374  44.787 -20.047  0.00  0.00    +0.000 C 
ATOM     17  C   UNL     1     -17.920  44.835 -20.562  0.00  0.00    +0.000 C 
ENDBRANCH  12  14
ENDBRANCH   2  12
TORSDOF 3
ENDMDL
MODEL 5
REMARK VINA RESULT:    -4.732      6.280      7.929
REMARK INTER + INTRA:          -5.632
REMARK INTER:                  -5.401
REMARK INTRA:                  -0.232
REMARK UNBOUND:                -0.071
REMARK  Name = 68756739
REMARK  4 active torsions:
REMARK  status: ('A' for Active; 'I' for Inactive)
REMARK    1  A    between atoms: N_2  and  C_5
REMARK    2  A    between atoms: N_2  and  C_9
REMARK    3  A    between atoms: N_2  and  C_10
REMARK    4  A    between atoms: C_11  and  C_13
REMARK                            x       y       z     vdW  Elec       q    Type
REMARK                         _______ _______ _______ _____ _____    ______ ____
ROOT
ATOM      1  N   UNL     1     -21.668  46.534 -17.608  0.00  0.00    +0.000 NA
ATOM      2  C   UNL     1     -20.975  45.450 -17.193  0.00  0.00    +0.000 A 
ATOM      3  C   UNL     1     -21.562  44.264 -16.783  0.00  0.00    +0.000 A 
ATOM      4  C   UNL     1     -22.950  44.186 -16.799  0.00  0.00    +0.000 A 
ATOM      5  C   UNL     1     -23.015  46.421 -17.611  0.00  0.00    +0.000 A 
ATOM      6  C   UNL     1     -23.698  45.281 -17.219  0.00  0.00    +0.000 A 
ENDROOT
BRANCH   3   9
ATOM      7  O   UNL     1     -20.336  42.287 -17.150  0.00  0.00    +0.000 OA
ATOM      8  N   UNL     1     -20.555  42.978 -14.974  0.00  0.00    +0.000 N 
ATOM      9  C   UNL     1     -20.788  43.113 -16.339  0.00  0.00    +0.000 C 
ATOM     10  H   UNL     1     -20.018  42.198 -14.611  0.00  0.00    +0.000 HD
ATOM     11  H   UNL     1     -20.912  43.645 -14.299  0.00  0.00    +0.000 HD
ENDBRANCH   3   9
BRANCH   2  12
ATOM     12  N   UNL     1     -19.554  45.539 -17.177  0.00  0.00    +0.000 N 
ATOM     13  C   UNL     1     -18.841  45.254 -18.427  0.00  0.00    +0.000 C 
BRANCH  12  14
ATOM     14  C   UNL     1     -18.775  45.880 -16.023  0.00  0.00    +0.000 C 
ATOM     15  C   UNL     1     -19.031  47.322 -15.538  0.00  0.00    +0.000 C 
ATOM     16  C   UNL     1     -17.346  46.337 -16.386  0.00  0.00    +0.000 C 
ATOM     17  C   UNL     1     -17.509  47.435 -15.314  0.00  0.00    +0.000 C 
ENDBRANCH  12  14
ENDBRANCH   2  12
TORSDOF 3
ENDMDL
