MODEL 1
REMARK VINA RESULT:    -6.815      0.000      0.000
REMARK INTER + INTRA:          -6.815
REMARK INTER:                  -6.815
REMARK INTRA:                   0.000
REMARK UNBOUND:                 0.000
REMARK  Name = 68790144
REMARK  0 active torsions:
REMARK  status: ('A' for Active; 'I' for Inactive)
REMARK                            x       y       z     vdW  Elec       q    Type
REMARK                         _______ _______ _______ _____ _____    ______ ____
ROOT
ATOM      1  O   UNL     1     -19.787  38.212 -11.568  0.00  0.00    +0.000 OA
ATOM      2  N   UNL     1     -16.846  40.775 -10.537  0.00  0.00    +0.000 N 
ATOM      3  N   UNL     1     -18.087  41.478  -8.696  0.00  0.00    +0.000 NA
ATOM      4  N   UNL     1     -18.768  39.932 -12.699  0.00  0.00    +0.000 NA
ATOM      5  C   UNL     1     -18.050  40.770  -9.858  0.00  0.00    +0.000 A 
ATOM      6  C   UNL     1     -19.187  40.074 -10.292  0.00  0.00    +0.000 A 
ATOM      7  C   UNL     1     -16.538  39.910 -11.648  0.00  0.00    +0.000 C 
ATOM      8  C   UNL     1     -20.343  40.077  -9.503  0.00  0.00    +0.000 A 
ATOM      9  C   UNL     1     -19.249  39.315 -11.568  0.00  0.00    +0.000 C 
ATOM     10  C   UNL     1     -17.505  40.201 -12.754  0.00  0.00    +0.000 C 
ATOM     11  C   UNL     1     -20.367  40.789  -8.314  0.00  0.00    +0.000 A 
ATOM     12  C   UNL     1     -19.223  41.472  -7.961  0.00  0.00    +0.000 A 
ATOM     13  H   UNL     1     -16.092  41.313 -10.122  0.00  0.00    +0.000 HD
ENDROOT
TORSDOF 0
ENDMDL
MODEL 2
REMARK VINA RESULT:    -6.263      1.954      2.660
REMARK INTER + INTRA:          -6.263
REMARK INTER:                  -6.263
REMARK INTRA:                   0.000
REMARK UNBOUND:                 0.000
REMARK  Name = 68790144
REMARK  0 active torsions:
REMARK  status: ('A' for Active; 'I' for Inactive)
REMARK                            x       y       z     vdW  Elec       q    Type
REMARK                         _______ _______ _______ _____ _____    ______ ____
ROOT
ATOM      1  O   UNL     1     -17.131  42.743 -10.865  0.00  0.00    +0.000 OA
ATOM      2  N   UNL     1     -19.602  39.562 -11.115  0.00  0.00    +0.000 N 
ATOM      3  N   UNL     1     -20.532  40.107  -9.050  0.00  0.00    +0.000 NA
ATOM      4  N   UNL     1     -16.737  40.496 -11.130  0.00  0.00    +0.000 NA
ATOM      5  C   UNL     1     -19.548  40.327  -9.964  0.00  0.00    +0.000 A 
ATOM      6  C   UNL     1     -18.569  41.301  -9.722  0.00  0.00    +0.000 A 
ATOM      7  C   UNL     1     -18.801  39.804 -12.289  0.00  0.00    +0.000 C 
ATOM      8  C   UNL     1     -18.634  42.070  -8.554  0.00  0.00    +0.000 A 
ATOM      9  C   UNL     1     -17.435  41.575 -10.642  0.00  0.00    +0.000 C 
ATOM     10  C   UNL     1     -17.358  39.673 -11.910  0.00  0.00    +0.000 C 
ATOM     11  C   UNL     1     -19.647  41.848  -7.635  0.00  0.00    +0.000 A 
ATOM     12  C   UNL     1     -20.561  40.858  -7.925  0.00  0.00    +0.000 A 
ATOM     13  H   UNL     1     -20.361  38.892 -11.180  0.00  0.00    +0.000 HD
ENDROOT
TORSDOF 0
ENDMDL
MODEL 3
REMARK VINA RESULT:    -5.665      2.723      4.458
REMARK INTER + INTRA:          -5.665
REMARK INTER:                  -5.665
REMARK INTRA:                   0.000
REMARK UNBOUND:                 0.000
REMARK  Name = 68790144
REMARK  0 active torsions:
REMARK  status: ('A' for Active; 'I' for Inactive)
REMARK                            x       y       z     vdW  Elec       q    Type
REMARK                         _______ _______ _______ _____ _____    ______ ____
ROOT
ATOM      1  O   UNL     1     -16.405  41.658 -10.934  0.00  0.00    +0.000 OA
ATOM      2  N   UNL     1     -19.803  40.249 -12.593  0.00  0.00    +0.000 N 
ATOM      3  N   UNL     1     -19.895  42.097 -14.005  0.00  0.00    +0.000 NA
ATOM      4  N   UNL     1     -18.440  41.085 -10.038  0.00  0.00    +0.000 NA
ATOM      5  C   UNL     1     -19.319  41.499 -12.928  0.00  0.00    +0.000 A 
ATOM      6  C   UNL     1     -18.281  42.143 -12.239  0.00  0.00    +0.000 A 
ATOM      7  C   UNL     1     -19.176  39.363 -11.643  0.00  0.00    +0.000 C 
ATOM      8  C   UNL     1     -17.815  43.383 -12.692  0.00  0.00    +0.000 A 
ATOM      9  C   UNL     1     -17.626  41.584 -11.027  0.00  0.00    +0.000 C 
ATOM     10  C   UNL     1     -19.156  40.042 -10.309  0.00  0.00    +0.000 C 
ATOM     11  C   UNL     1     -18.400  43.978 -13.799  0.00  0.00    +0.000 A 
ATOM     12  C   UNL     1     -19.433  43.302 -14.412  0.00  0.00    +0.000 A 
ATOM     13  H   UNL     1     -20.554  39.883 -13.168  0.00  0.00    +0.000 HD
ENDROOT
TORSDOF 0
ENDMDL
MODEL 4
REMARK VINA RESULT:    -5.389      2.330      3.773
REMARK INTER + INTRA:          -5.389
REMARK INTER:                  -5.389
REMARK INTRA:                   0.000
REMARK UNBOUND:                 0.000
REMARK  Name = 68790144
REMARK  0 active torsions:
REMARK  status: ('A' for Active; 'I' for Inactive)
REMARK                            x       y       z     vdW  Elec       q    Type
REMARK                         _______ _______ _______ _____ _____    ______ ____
ROOT
ATOM      1  O   UNL     1     -19.919  41.829 -13.354  0.00  0.00    +0.000 OA
ATOM      2  N   UNL     1     -17.459  40.768 -10.337  0.00  0.00    +0.000 N 
ATOM      3  N   UNL     1     -15.920  42.381 -11.008  0.00  0.00    +0.000 NA
ATOM      4  N   UNL     1     -18.956  39.825 -12.777  0.00  0.00    +0.000 NA
ATOM      5  C   UNL     1     -17.056  41.687 -11.288  0.00  0.00    +0.000 A 
ATOM      6  C   UNL     1     -17.759  41.938 -12.475  0.00  0.00    +0.000 A 
ATOM      7  C   UNL     1     -18.742  40.109 -10.337  0.00  0.00    +0.000 C 
ATOM      8  C   UNL     1     -17.306  42.934 -13.348  0.00  0.00    +0.000 A 
ATOM      9  C   UNL     1     -18.981  41.196 -12.881  0.00  0.00    +0.000 C 
ATOM     10  C   UNL     1     -18.860  39.308 -11.596  0.00  0.00    +0.000 C 
ATOM     11  C   UNL     1     -16.155  43.646 -13.048  0.00  0.00    +0.000 A 
ATOM     12  C   UNL     1     -15.501  43.329 -11.877  0.00  0.00    +0.000 A 
ATOM     13  H   UNL     1     -16.871  40.676  -9.516  0.00  0.00    +0.000 HD
ENDROOT
TORSDOF 0
ENDMDL
MODEL 5
REMARK VINA RESULT:    -5.152      2.997      4.001
REMARK INTER + INTRA:          -5.152
REMARK INTER:                  -5.152
REMARK INTRA:                   0.000
REMARK UNBOUND:                 0.000
REMARK  Name = 68790144
REMARK  0 active torsions:
REMARK  status: ('A' for Active; 'I' for Inactive)
REMARK                            x       y       z     vdW  Elec       q    Type
REMARK                         _______ _______ _______ _____ _____    ______ ____
ROOT
ATOM      1  O   UNL     1     -18.113  41.953  -8.984  0.00  0.00    +0.000 OA
ATOM      2  N   UNL     1     -16.586  40.823 -12.544  0.00  0.00    +0.000 N 
ATOM      3  N   UNL     1     -16.321  43.055 -13.152  0.00  0.00    +0.000 NA
ATOM      4  N   UNL     1     -18.940  40.632 -10.671  0.00  0.00    +0.000 NA
ATOM      5  C   UNL     1     -16.841  42.155 -12.274  0.00  0.00    +0.000 A 
ATOM      6  C   UNL     1     -17.568  42.599 -11.160  0.00  0.00    +0.000 A 
ATOM      7  C   UNL     1     -16.846  39.744 -11.623  0.00  0.00    +0.000 C 
ATOM      8  C   UNL     1     -17.720  43.972 -10.937  0.00  0.00    +0.000 A 
ATOM      9  C   UNL     1     -18.207  41.686 -10.178  0.00  0.00    +0.000 C 
ATOM     10  C   UNL     1     -18.314  39.715 -11.334  0.00  0.00    +0.000 C 
ATOM     11  C   UNL     1     -17.176  44.882 -11.830  0.00  0.00    +0.000 A 
ATOM     12  C   UNL     1     -16.496  44.376 -12.917  0.00  0.00    +0.000 A 
ATOM     13  H   UNL     1     -16.045  40.623 -13.378  0.00  0.00    +0.000 HD
ENDROOT
TORSDOF 0
ENDMDL
