MODEL 1
REMARK VINA RESULT:    -6.824      0.000      0.000
REMARK INTER + INTRA:          -7.267
REMARK INTER:                  -7.223
REMARK INTRA:                  -0.044
REMARK UNBOUND:                -0.044
REMARK  Name = 68832818
REMARK  4 active torsions:
REMARK  status: ('A' for Active; 'I' for Inactive)
REMARK    1  A    between atoms: N_2  and  C_11
REMARK    2  A    between atoms: N_2  and  C_12
REMARK    3  A    between atoms: C_5  and  C_10
REMARK    4  A    between atoms: C_8  and  C_13
REMARK                            x       y       z     vdW  Elec       q    Type
REMARK                         _______ _______ _______ _____ _____    ______ ____
ROOT
ATOM      1  N   UNL     1     -18.411  40.314 -10.406  0.00  0.00    +0.000 N 
ATOM      2  N   UNL     1     -18.524  41.798  -8.545  0.00  0.00    +0.000 NA
ATOM      3  C   UNL     1     -21.145  40.958  -8.058  0.00  0.00    +0.000 A 
ATOM      4  C   UNL     1     -19.131  40.870  -9.319  0.00  0.00    +0.000 A 
ATOM      5  C   UNL     1     -20.426  40.420  -9.120  0.00  0.00    +0.000 A 
ATOM      6  C   UNL     1     -20.556  41.915  -7.240  0.00  0.00    +0.000 A 
ATOM      7  C   UNL     1     -19.255  42.298  -7.523  0.00  0.00    +0.000 A 
ATOM      8  C   UNL     1     -22.544  40.492  -7.818  0.00  0.00    +0.000 C 
ATOM      9  C   UNL     1     -19.028  39.318 -11.253  0.00  0.00    +0.000 C 
ATOM     10  C   UNL     1     -17.056  40.742 -10.676  0.00  0.00    +0.000 C 
ENDROOT
BRANCH   6  13
ATOM     11  O   UNL     1     -21.084  42.105  -4.952  0.00  0.00    +0.000 OA
ATOM     12  N   UNL     1     -22.125  43.568  -6.378  0.00  0.00    +0.000 N 
ATOM     13  C   UNL     1     -21.259  42.511  -6.114  0.00  0.00    +0.000 C 
ATOM     14  H   UNL     1     -22.636  44.023  -5.629  0.00  0.00    +0.000 HD
ATOM     15  H   UNL     1     -22.277  43.918  -7.319  0.00  0.00    +0.000 HD
ENDBRANCH   6  13
TORSDOF 1
ENDMDL
MODEL 2
REMARK VINA RESULT:    -5.889      2.819      5.218
REMARK INTER + INTRA:          -6.277
REMARK INTER:                  -6.195
REMARK INTRA:                  -0.082
REMARK UNBOUND:                -0.044
REMARK  Name = 68832818
REMARK  4 active torsions:
REMARK  status: ('A' for Active; 'I' for Inactive)
REMARK    1  A    between atoms: N_2  and  C_11
REMARK    2  A    between atoms: N_2  and  C_12
REMARK    3  A    between atoms: C_5  and  C_10
REMARK    4  A    between atoms: C_8  and  C_13
REMARK                            x       y       z     vdW  Elec       q    Type
REMARK                         _______ _______ _______ _____ _____    ______ ____
ROOT
ATOM      1  N   UNL     1     -20.657  41.345  -7.821  0.00  0.00    +0.000 N 
ATOM      2  N   UNL     1     -18.518  41.943  -8.684  0.00  0.00    +0.000 NA
ATOM      3  C   UNL     1     -18.952  40.262 -10.875  0.00  0.00    +0.000 A 
ATOM      4  C   UNL     1     -19.659  41.231  -8.821  0.00  0.00    +0.000 A 
ATOM      5  C   UNL     1     -19.923  40.385  -9.887  0.00  0.00    +0.000 A 
ATOM      6  C   UNL     1     -17.766  40.979 -10.769  0.00  0.00    +0.000 A 
ATOM      7  C   UNL     1     -17.599  41.798  -9.664  0.00  0.00    +0.000 A 
ATOM      8  C   UNL     1     -19.209  39.358 -12.036  0.00  0.00    +0.000 C 
ATOM      9  C   UNL     1     -21.890  40.599  -7.936  0.00  0.00    +0.000 C 
ATOM     10  C   UNL     1     -20.446  42.205  -6.677  0.00  0.00    +0.000 C 
ENDROOT
BRANCH   6  13
ATOM     11  O   UNL     1     -16.736  41.599 -12.795  0.00  0.00    +0.000 OA
ATOM     12  N   UNL     1     -15.674  39.998 -11.543  0.00  0.00    +0.000 N 
ATOM     13  C   UNL     1     -16.716  40.891 -11.773  0.00  0.00    +0.000 C 
ATOM     14  H   UNL     1     -14.913  39.901 -12.208  0.00  0.00    +0.000 HD
ATOM     15  H   UNL     1     -15.636  39.415 -10.712  0.00  0.00    +0.000 HD
ENDBRANCH   6  13
TORSDOF 1
ENDMDL
MODEL 3
REMARK VINA RESULT:    -5.544      5.306      6.631
REMARK INTER + INTRA:          -5.913
REMARK INTER:                  -5.842
REMARK INTRA:                  -0.071
REMARK UNBOUND:                -0.044
REMARK  Name = 68832818
REMARK  4 active torsions:
REMARK  status: ('A' for Active; 'I' for Inactive)
REMARK    1  A    between atoms: N_2  and  C_11
REMARK    2  A    between atoms: N_2  and  C_12
REMARK    3  A    between atoms: C_5  and  C_10
REMARK    4  A    between atoms: C_8  and  C_13
REMARK                            x       y       z     vdW  Elec       q    Type
REMARK                         _______ _______ _______ _____ _____    ______ ____
ROOT
ATOM      1  N   UNL     1     -19.252  43.773 -14.889  0.00  0.00    +0.000 N 
ATOM      2  N   UNL     1     -19.076  41.645 -13.832  0.00  0.00    +0.000 NA
ATOM      3  C   UNL     1     -16.883  42.574 -12.369  0.00  0.00    +0.000 A 
ATOM      4  C   UNL     1     -18.607  42.905 -13.972  0.00  0.00    +0.000 A 
ATOM      5  C   UNL     1     -17.525  43.413 -13.272  0.00  0.00    +0.000 A 
ATOM      6  C   UNL     1     -17.335  41.270 -12.197  0.00  0.00    +0.000 A 
ATOM      7  C   UNL     1     -18.426  40.858 -12.945  0.00  0.00    +0.000 A 
ATOM      8  C   UNL     1     -15.713  43.094 -11.598  0.00  0.00    +0.000 C 
ATOM      9  C   UNL     1     -18.778  45.127 -15.064  0.00  0.00    +0.000 C 
ATOM     10  C   UNL     1     -20.384  43.306 -15.660  0.00  0.00    +0.000 C 
ENDROOT
BRANCH   6  13
ATOM     11  O   UNL     1     -17.129  40.204 -10.106  0.00  0.00    +0.000 OA
ATOM     12  N   UNL     1     -15.613  39.613 -11.722  0.00  0.00    +0.000 N 
ATOM     13  C   UNL     1     -16.703  40.348 -11.266  0.00  0.00    +0.000 C 
ATOM     14  H   UNL     1     -15.139  38.952 -11.116  0.00  0.00    +0.000 HD
ATOM     15  H   UNL     1     -15.255  39.711 -12.667  0.00  0.00    +0.000 HD
ENDBRANCH   6  13
TORSDOF 1
ENDMDL
MODEL 4
REMARK VINA RESULT:    -5.410      3.014      5.767
REMARK INTER + INTRA:          -5.770
REMARK INTER:                  -5.720
REMARK INTRA:                  -0.050
REMARK UNBOUND:                -0.044
REMARK  Name = 68832818
REMARK  4 active torsions:
REMARK  status: ('A' for Active; 'I' for Inactive)
REMARK    1  A    between atoms: N_2  and  C_11
REMARK    2  A    between atoms: N_2  and  C_12
REMARK    3  A    between atoms: C_5  and  C_10
REMARK    4  A    between atoms: C_8  and  C_13
REMARK                            x       y       z     vdW  Elec       q    Type
REMARK                         _______ _______ _______ _____ _____    ______ ____
ROOT
ATOM      1  N   UNL     1     -20.518  41.239  -8.139  0.00  0.00    +0.000 N 
ATOM      2  N   UNL     1     -19.853  39.875  -9.976  0.00  0.00    +0.000 NA
ATOM      3  C   UNL     1     -17.611  41.503 -10.348  0.00  0.00    +0.000 A 
ATOM      4  C   UNL     1     -19.608  40.943  -9.184  0.00  0.00    +0.000 A 
ATOM      5  C   UNL     1     -18.513  41.780  -9.326  0.00  0.00    +0.000 A 
ATOM      6  C   UNL     1     -17.829  40.414 -11.184  0.00  0.00    +0.000 A 
ATOM      7  C   UNL     1     -18.955  39.638 -10.958  0.00  0.00    +0.000 A 
ATOM      8  C   UNL     1     -16.420  42.388 -10.526  0.00  0.00    +0.000 C 
ATOM      9  C   UNL     1     -20.287  42.373  -7.272  0.00  0.00    +0.000 C 
ATOM     10  C   UNL     1     -21.687  40.411  -7.937  0.00  0.00    +0.000 C 
ENDROOT
BRANCH   6  13
ATOM     11  O   UNL     1     -17.133  40.451 -13.434  0.00  0.00    +0.000 OA
ATOM     12  N   UNL     1     -15.787  39.330 -11.954  0.00  0.00    +0.000 N 
ATOM     13  C   UNL     1     -16.919  40.075 -12.268  0.00  0.00    +0.000 C 
ATOM     14  H   UNL     1     -15.118  39.071 -12.671  0.00  0.00    +0.000 HD
ATOM     15  H   UNL     1     -15.592  39.019 -11.007  0.00  0.00    +0.000 HD
ENDBRANCH   6  13
TORSDOF 1
ENDMDL
MODEL 5
REMARK VINA RESULT:    -5.093      4.666      5.695
REMARK INTER + INTRA:          -5.435
REMARK INTER:                  -5.394
REMARK INTRA:                  -0.041
REMARK UNBOUND:                -0.044
REMARK  Name = 68832818
REMARK  4 active torsions:
REMARK  status: ('A' for Active; 'I' for Inactive)
REMARK    1  A    between atoms: N_2  and  C_11
REMARK    2  A    between atoms: N_2  and  C_12
REMARK    3  A    between atoms: C_5  and  C_10
REMARK    4  A    between atoms: C_8  and  C_13
REMARK                            x       y       z     vdW  Elec       q    Type
REMARK                         _______ _______ _______ _____ _____    ______ ____
ROOT
ATOM      1  N   UNL     1     -15.008  43.424 -11.875  0.00  0.00    +0.000 N 
ATOM      2  N   UNL     1     -15.891  41.308 -11.227  0.00  0.00    +0.000 NA
ATOM      3  C   UNL     1     -18.307  41.956 -12.476  0.00  0.00    +0.000 A 
ATOM      4  C   UNL     1     -16.075  42.492 -11.855  0.00  0.00    +0.000 A 
ATOM      5  C   UNL     1     -17.251  42.860 -12.488  0.00  0.00    +0.000 A 
ATOM      6  C   UNL     1     -18.157  40.729 -11.840  0.00  0.00    +0.000 A 
ATOM      7  C   UNL     1     -16.940  40.455 -11.236  0.00  0.00    +0.000 A 
ATOM      8  C   UNL     1     -19.588  42.325 -13.151  0.00  0.00    +0.000 C 
ATOM      9  C   UNL     1     -15.169  44.699 -12.538  0.00  0.00    +0.000 C 
ATOM     10  C   UNL     1     -13.753  43.109 -11.228  0.00  0.00    +0.000 C 
ENDROOT
BRANCH   6  13
ATOM     11  O   UNL     1     -19.492  39.031 -12.782  0.00  0.00    +0.000 OA
ATOM     12  N   UNL     1     -19.934  39.608 -10.607  0.00  0.00    +0.000 N 
ATOM     13  C   UNL     1     -19.226  39.742 -11.797  0.00  0.00    +0.000 C 
ATOM     14  H   UNL     1     -20.686  38.932 -10.521  0.00  0.00    +0.000 HD
ATOM     15  H   UNL     1     -19.729  40.175  -9.790  0.00  0.00    +0.000 HD
ENDBRANCH   6  13
TORSDOF 1
ENDMDL
