MODEL 1
REMARK VINA RESULT:    -6.860      0.000      0.000
REMARK INTER + INTRA:          -8.518
REMARK INTER:                  -8.063
REMARK INTRA:                  -0.454
REMARK UNBOUND:                -0.454
REMARK  Name = 68926299
REMARK  3 active torsions:
REMARK  status: ('A' for Active; 'I' for Inactive)
REMARK    1  A    between atoms: N_4  and  C_12
REMARK    2  A    between atoms: N_5  and  C_14
REMARK    3  A    between atoms: C_8  and  C_12
REMARK                            x       y       z     vdW  Elec       q    Type
REMARK                         _______ _______ _______ _____ _____    ______ ____
ROOT
ATOM      1  O   UNL     1     -20.218  38.989  -9.617  0.00  0.00    +0.000 OA
ATOM      2  C   UNL     1     -19.853  40.157  -9.713  0.00  0.00    +0.000 C 
ENDROOT
BRANCH   2   5
ATOM      3  N   UNL     1     -17.000  41.182 -12.745  0.00  0.00    +0.000 NA
ATOM      4  N   UNL     1     -15.233  40.590 -11.260  0.00  0.00    +0.000 N 
ATOM      5  C   UNL     1     -18.860  40.514 -10.768  0.00  0.00    +0.000 A 
ATOM      6  C   UNL     1     -17.499  40.383 -10.518  0.00  0.00    +0.000 A 
ATOM      7  C   UNL     1     -19.293  40.977 -12.005  0.00  0.00    +0.000 A 
ATOM      8  C   UNL     1     -16.617  40.728 -11.530  0.00  0.00    +0.000 A 
ATOM      9  C   UNL     1     -18.331  41.295 -12.951  0.00  0.00    +0.000 A 
ATOM     10  H   UNL     1     -14.918  40.678 -10.302  0.00  0.00    +0.000 HD
ATOM     11  H   UNL     1     -14.593  40.848 -12.001  0.00  0.00    +0.000 HD
ENDBRANCH   2   5
BRANCH   2  12
ATOM     12  N   UNL     1     -20.278  41.208  -8.929  0.00  0.00    +0.000 NA
ATOM     13  C   UNL     1     -20.048  41.151  -7.659  0.00  0.00    +0.000 C 
BRANCH  13  14
ATOM     14  N   UNL     1     -20.453  42.192  -6.867  0.00  0.00    +0.000 NA
ATOM     15  N   UNL     1     -22.331  43.357  -5.901  0.00  0.00    +0.000 N 
ATOM     16  N   UNL     1     -22.654  41.523  -7.215  0.00  0.00    +0.000 N 
ATOM     17  C   UNL     1     -21.730  42.376  -6.659  0.00  0.00    +0.000 C 
ATOM     18  H   UNL     1     -21.780  44.060  -5.421  0.00  0.00    +0.000 HD
ATOM     19  H   UNL     1     -23.340  43.408  -5.802  0.00  0.00    +0.000 HD
ATOM     20  H   UNL     1     -22.404  40.747  -7.816  0.00  0.00    +0.000 HD
ATOM     21  H   UNL     1     -23.646  41.658  -7.051  0.00  0.00    +0.000 HD
ENDBRANCH  13  14
ENDBRANCH   2  12
TORSDOF 3
ENDMDL
MODEL 2
REMARK VINA RESULT:    -6.540      1.443      2.352
REMARK INTER + INTRA:          -8.141
REMARK INTER:                  -7.690
REMARK INTRA:                  -0.451
REMARK UNBOUND:                -0.454
REMARK  Name = 68926299
REMARK  3 active torsions:
REMARK  status: ('A' for Active; 'I' for Inactive)
REMARK    1  A    between atoms: N_4  and  C_12
REMARK    2  A    between atoms: N_5  and  C_14
REMARK    3  A    between atoms: C_8  and  C_12
REMARK                            x       y       z     vdW  Elec       q    Type
REMARK                         _______ _______ _______ _____ _____    ______ ____
ROOT
ATOM      1  O   UNL     1     -19.001  39.448  -9.885  0.00  0.00    +0.000 OA
ATOM      2  C   UNL     1     -19.378  40.594 -10.109  0.00  0.00    +0.000 C 
ENDROOT
BRANCH   2   5
ATOM      3  N   UNL     1     -17.672  42.717 -13.420  0.00  0.00    +0.000 NA
ATOM      4  N   UNL     1     -19.695  42.407 -14.641  0.00  0.00    +0.000 N 
ATOM      5  C   UNL     1     -18.785  41.333 -11.262  0.00  0.00    +0.000 A 
ATOM      6  C   UNL     1     -19.525  41.527 -12.422  0.00  0.00    +0.000 A 
ATOM      7  C   UNL     1     -17.489  41.830 -11.178  0.00  0.00    +0.000 A 
ATOM      8  C   UNL     1     -18.928  42.219 -13.464  0.00  0.00    +0.000 A 
ATOM      9  C   UNL     1     -16.984  42.509 -12.276  0.00  0.00    +0.000 A 
ATOM     10  H   UNL     1     -20.406  41.724 -14.867  0.00  0.00    +0.000 HD
ATOM     11  H   UNL     1     -19.252  42.909 -15.401  0.00  0.00    +0.000 HD
ENDBRANCH   2   5
BRANCH   2  12
ATOM     12  N   UNL     1     -20.324  41.294  -9.389  0.00  0.00    +0.000 NA
ATOM     13  C   UNL     1     -20.844  40.723  -8.354  0.00  0.00    +0.000 C 
BRANCH  13  14
ATOM     14  N   UNL     1     -21.776  41.407  -7.621  0.00  0.00    +0.000 NA
ATOM     15  N   UNL     1     -22.160  43.166  -6.015  0.00  0.00    +0.000 N 
ATOM     16  N   UNL     1     -20.052  42.699  -6.744  0.00  0.00    +0.000 N 
ATOM     17  C   UNL     1     -21.383  42.368  -6.827  0.00  0.00    +0.000 C 
ATOM     18  H   UNL     1     -23.166  43.047  -5.971  0.00  0.00    +0.000 HD
ATOM     19  H   UNL     1     -21.750  43.891  -5.436  0.00  0.00    +0.000 HD
ATOM     20  H   UNL     1     -19.325  42.214  -7.258  0.00  0.00    +0.000 HD
ATOM     21  H   UNL     1     -19.742  43.448  -6.134  0.00  0.00    +0.000 HD
ENDBRANCH  13  14
ENDBRANCH   2  12
TORSDOF 3
ENDMDL
MODEL 3
REMARK VINA RESULT:    -6.346      4.258      6.901
REMARK INTER + INTRA:          -7.913
REMARK INTER:                  -7.529
REMARK INTRA:                  -0.385
REMARK UNBOUND:                -0.454
REMARK  Name = 68926299
REMARK  3 active torsions:
REMARK  status: ('A' for Active; 'I' for Inactive)
REMARK    1  A    between atoms: N_4  and  C_12
REMARK    2  A    between atoms: N_5  and  C_14
REMARK    3  A    between atoms: C_8  and  C_12
REMARK                            x       y       z     vdW  Elec       q    Type
REMARK                         _______ _______ _______ _____ _____    ______ ____
ROOT
ATOM      1  O   UNL     1     -18.095  43.801 -13.542  0.00  0.00    +0.000 OA
ATOM      2  C   UNL     1     -18.729  42.773 -13.759  0.00  0.00    +0.000 C 
ENDROOT
BRANCH   2   5
ATOM      3  N   UNL     1     -17.950  39.321 -11.339  0.00  0.00    +0.000 NA
ATOM      4  N   UNL     1     -15.615  39.591 -11.734  0.00  0.00    +0.000 N 
ATOM      5  C   UNL     1     -18.458  41.572 -12.917  0.00  0.00    +0.000 A 
ATOM      6  C   UNL     1     -17.151  41.140 -12.717  0.00  0.00    +0.000 A 
ATOM      7  C   UNL     1     -19.511  40.880 -12.329  0.00  0.00    +0.000 A 
ATOM      8  C   UNL     1     -16.952  40.019 -11.927  0.00  0.00    +0.000 A 
ATOM      9  C   UNL     1     -19.205  39.771 -11.556  0.00  0.00    +0.000 A 
ATOM     10  H   UNL     1     -14.935  39.793 -12.456  0.00  0.00    +0.000 HD
ATOM     11  H   UNL     1     -15.476  38.768 -11.160  0.00  0.00    +0.000 HD
ENDBRANCH   2   5
BRANCH   2  12
ATOM     12  N   UNL     1     -19.699  42.605 -14.724  0.00  0.00    +0.000 NA
ATOM     13  C   UNL     1     -19.956  43.600 -15.508  0.00  0.00    +0.000 C 
BRANCH  13  14
ATOM     14  N   UNL     1     -20.908  43.446 -16.480  0.00  0.00    +0.000 NA
ATOM     15  N   UNL     1     -21.329  43.067 -18.824  0.00  0.00    +0.000 N 
ATOM     16  N   UNL     1     -19.196  43.166 -18.029  0.00  0.00    +0.000 N 
ATOM     17  C   UNL     1     -20.532  43.243 -17.714  0.00  0.00    +0.000 C 
ATOM     18  H   UNL     1     -22.340  43.091 -18.752  0.00  0.00    +0.000 HD
ATOM     19  H   UNL     1     -20.930  42.911 -19.744  0.00  0.00    +0.000 HD
ATOM     20  H   UNL     1     -18.455  43.284 -17.347  0.00  0.00    +0.000 HD
ATOM     21  H   UNL     1     -18.899  43.001 -18.985  0.00  0.00    +0.000 HD
ENDBRANCH  13  14
ENDBRANCH   2  12
TORSDOF 3
ENDMDL
MODEL 4
REMARK VINA RESULT:    -6.210      3.725      6.666
REMARK INTER + INTRA:          -7.753
REMARK INTER:                  -7.300
REMARK INTRA:                  -0.452
REMARK UNBOUND:                -0.454
REMARK  Name = 68926299
REMARK  3 active torsions:
REMARK  status: ('A' for Active; 'I' for Inactive)
REMARK    1  A    between atoms: N_4  and  C_12
REMARK    2  A    between atoms: N_5  and  C_14
REMARK    3  A    between atoms: C_8  and  C_12
REMARK                            x       y       z     vdW  Elec       q    Type
REMARK                         _______ _______ _______ _____ _____    ______ ____
ROOT
ATOM      1  O   UNL     1     -18.295  43.781 -12.722  0.00  0.00    +0.000 OA
ATOM      2  C   UNL     1     -18.692  42.704 -13.156  0.00  0.00    +0.000 C 
ENDROOT
BRANCH   2   5
ATOM      3  N   UNL     1     -18.830  39.335 -10.508  0.00  0.00    +0.000 NA
ATOM      4  N   UNL     1     -18.025  40.714  -8.738  0.00  0.00    +0.000 N 
ATOM      5  C   UNL     1     -18.739  41.532 -12.234  0.00  0.00    +0.000 A 
ATOM      6  C   UNL     1     -18.357  41.673 -10.905  0.00  0.00    +0.000 A 
ATOM      7  C   UNL     1     -19.168  40.295 -12.702  0.00  0.00    +0.000 A 
ATOM      8  C   UNL     1     -18.419  40.554 -10.090  0.00  0.00    +0.000 A 
ATOM      9  C   UNL     1     -19.194  39.238 -11.806  0.00  0.00    +0.000 A 
ATOM     10  H   UNL     1     -17.344  41.429  -8.516  0.00  0.00    +0.000 HD
ATOM     11  H   UNL     1     -18.067  39.891  -8.148  0.00  0.00    +0.000 HD
ENDBRANCH   2   5
BRANCH   2  12
ATOM     12  N   UNL     1     -19.114  42.454 -14.444  0.00  0.00    +0.000 NA
ATOM     13  C   UNL     1     -20.184  43.048 -14.859  0.00  0.00    +0.000 C 
BRANCH  13  14
ATOM     14  N   UNL     1     -20.612  42.820 -16.140  0.00  0.00    +0.000 NA
ATOM     15  N   UNL     1     -20.279  43.311 -18.477  0.00  0.00    +0.000 N 
ATOM     16  N   UNL     1     -18.928  44.237 -16.892  0.00  0.00    +0.000 N 
ATOM     17  C   UNL     1     -20.000  43.411 -17.131  0.00  0.00    +0.000 C 
ATOM     18  H   UNL     1     -21.040  42.733 -18.814  0.00  0.00    +0.000 HD
ATOM     19  H   UNL     1     -19.734  43.815 -19.170  0.00  0.00    +0.000 HD
ATOM     20  H   UNL     1     -18.582  44.445 -15.962  0.00  0.00    +0.000 HD
ATOM     21  H   UNL     1     -18.446  44.693 -17.659  0.00  0.00    +0.000 HD
ENDBRANCH  13  14
ENDBRANCH   2  12
TORSDOF 3
ENDMDL
MODEL 5
REMARK VINA RESULT:    -6.053      3.835      6.912
REMARK INTER + INTRA:          -7.568
REMARK INTER:                  -7.109
REMARK INTRA:                  -0.459
REMARK UNBOUND:                -0.454
REMARK  Name = 68926299
REMARK  3 active torsions:
REMARK  status: ('A' for Active; 'I' for Inactive)
REMARK    1  A    between atoms: N_4  and  C_12
REMARK    2  A    between atoms: N_5  and  C_14
REMARK    3  A    between atoms: C_8  and  C_12
REMARK                            x       y       z     vdW  Elec       q    Type
REMARK                         _______ _______ _______ _____ _____    ______ ____
ROOT
ATOM      1  O   UNL     1     -18.542  43.900 -12.949  0.00  0.00    +0.000 OA
ATOM      2  C   UNL     1     -18.764  42.780 -13.401  0.00  0.00    +0.000 C 
ENDROOT
BRANCH   2   5
ATOM      3  N   UNL     1     -18.137  39.375 -10.871  0.00  0.00    +0.000 NA
ATOM      4  N   UNL     1     -20.212  39.818  -9.787  0.00  0.00    +0.000 N 
ATOM      5  C   UNL     1     -18.546  41.595 -12.520  0.00  0.00    +0.000 A 
ATOM      6  C   UNL     1     -19.490  41.258 -11.557  0.00  0.00    +0.000 A 
ATOM      7  C   UNL     1     -17.397  40.824 -12.660  0.00  0.00    +0.000 A 
ATOM      8  C   UNL     1     -19.240  40.149 -10.764  0.00  0.00    +0.000 A 
ATOM      9  C   UNL     1     -17.242  39.735 -11.818  0.00  0.00    +0.000 A 
ATOM     10  H   UNL     1     -20.781  40.561  -9.403  0.00  0.00    +0.000 HD
ATOM     11  H   UNL     1     -20.022  39.010  -9.207  0.00  0.00    +0.000 HD
ENDBRANCH   2   5
BRANCH   2  12
ATOM     12  N   UNL     1     -19.209  42.490 -14.673  0.00  0.00    +0.000 NA
ATOM     13  C   UNL     1     -20.238  43.132 -15.118  0.00  0.00    +0.000 C 
BRANCH  13  14
ATOM     14  N   UNL     1     -20.686  42.865 -16.383  0.00  0.00    +0.000 NA
ATOM     15  N   UNL     1     -20.426  43.326 -18.737  0.00  0.00    +0.000 N 
ATOM     16  N   UNL     1     -19.075  44.331 -17.200  0.00  0.00    +0.000 N 
ATOM     17  C   UNL     1     -20.120  43.460 -17.400  0.00  0.00    +0.000 C 
ATOM     18  H   UNL     1     -21.173  42.714 -19.045  0.00  0.00    +0.000 HD
ATOM     19  H   UNL     1     -19.918  43.838 -19.451  0.00  0.00    +0.000 HD
ATOM     20  H   UNL     1     -18.716  44.568 -16.283  0.00  0.00    +0.000 HD
ATOM     21  H   UNL     1     -18.628  44.790 -17.987  0.00  0.00    +0.000 HD
ENDBRANCH  13  14
ENDBRANCH   2  12
TORSDOF 3
ENDMDL
