MODEL 1
REMARK VINA RESULT:    -6.171      0.000      0.000
REMARK INTER + INTRA:          -6.171
REMARK INTER:                  -6.171
REMARK INTRA:                   0.000
REMARK UNBOUND:                 0.000
REMARK  Name = 69160252
REMARK  0 active torsions:
REMARK  status: ('A' for Active; 'I' for Inactive)
REMARK                            x       y       z     vdW  Elec       q    Type
REMARK                         _______ _______ _______ _____ _____    ______ ____
ROOT
ATOM      1  O   UNL     1     -19.921  39.413  -9.785  0.00  0.00    +0.000 OA
ATOM      2  N   UNL     1     -18.898  41.129  -8.685  0.00  0.00    +0.000 N 
ATOM      3  N   UNL     1     -18.722  41.033 -13.509  0.00  0.00    +0.000 NA
ATOM      4  N   UNL     1     -18.174  42.280  -8.645  0.00  0.00    +0.000 NA
ATOM      5  N   UNL     1     -19.871  39.294 -12.427  0.00  0.00    +0.000 N 
ATOM      6  C   UNL     1     -18.832  41.045 -11.101  0.00  0.00    +0.000 A 
ATOM      7  C   UNL     1     -18.096  42.216 -11.074  0.00  0.00    +0.000 A 
ATOM      8  C   UNL     1     -19.123  40.488 -12.336  0.00  0.00    +0.000 A 
ATOM      9  C   UNL     1     -19.269  40.451  -9.832  0.00  0.00    +0.000 A 
ATOM     10  C   UNL     1     -17.662  42.812 -12.249  0.00  0.00    +0.000 A 
ATOM     11  C   UNL     1     -17.796  42.794  -9.771  0.00  0.00    +0.000 A 
ATOM     12  C   UNL     1     -18.003  42.180 -13.434  0.00  0.00    +0.000 A 
ATOM     13  H   UNL     1     -19.165  40.772  -7.774  0.00  0.00    +0.000 HD
ATOM     14  H   UNL     1     -19.797  38.618 -11.676  0.00  0.00    +0.000 HD
ATOM     15  H   UNL     1     -20.054  38.941 -13.358  0.00  0.00    +0.000 HD
ENDROOT
TORSDOF 0
ENDMDL
MODEL 2
REMARK VINA RESULT:    -6.142      1.931      3.276
REMARK INTER + INTRA:          -6.142
REMARK INTER:                  -6.142
REMARK INTRA:                   0.000
REMARK UNBOUND:                 0.000
REMARK  Name = 69160252
REMARK  0 active torsions:
REMARK  status: ('A' for Active; 'I' for Inactive)
REMARK                            x       y       z     vdW  Elec       q    Type
REMARK                         _______ _______ _______ _____ _____    ______ ____
ROOT
ATOM      1  O   UNL     1     -18.098  39.761 -13.547  0.00  0.00    +0.000 OA
ATOM      2  N   UNL     1     -16.853  41.623 -13.124  0.00  0.00    +0.000 N 
ATOM      3  N   UNL     1     -19.645  39.854  -9.607  0.00  0.00    +0.000 NA
ATOM      4  N   UNL     1     -16.417  42.632 -12.322  0.00  0.00    +0.000 NA
ATOM      5  N   UNL     1     -19.650  38.730 -11.669  0.00  0.00    +0.000 N 
ATOM      6  C   UNL     1     -18.265  40.706 -11.388  0.00  0.00    +0.000 A 
ATOM      7  C   UNL     1     -17.829  41.727 -10.562  0.00  0.00    +0.000 A 
ATOM      8  C   UNL     1     -19.170  39.794 -10.873  0.00  0.00    +0.000 A 
ATOM      9  C   UNL     1     -17.751  40.637 -12.762  0.00  0.00    +0.000 A 
ATOM     10  C   UNL     1     -18.288  41.831  -9.257  0.00  0.00    +0.000 A 
ATOM     11  C   UNL     1     -16.877  42.681 -11.113  0.00  0.00    +0.000 A 
ATOM     12  C   UNL     1     -19.192  40.871  -8.833  0.00  0.00    +0.000 A 
ATOM     13  H   UNL     1     -16.460  41.636 -14.060  0.00  0.00    +0.000 HD
ATOM     14  H   UNL     1     -19.730  38.872 -12.669  0.00  0.00    +0.000 HD
ATOM     15  H   UNL     1     -20.306  38.095 -11.232  0.00  0.00    +0.000 HD
ENDROOT
TORSDOF 0
ENDMDL
MODEL 3
REMARK VINA RESULT:    -5.900      1.916      4.191
REMARK INTER + INTRA:          -5.900
REMARK INTER:                  -5.900
REMARK INTRA:                   0.000
REMARK UNBOUND:                 0.000
REMARK  Name = 69160252
REMARK  0 active torsions:
REMARK  status: ('A' for Active; 'I' for Inactive)
REMARK                            x       y       z     vdW  Elec       q    Type
REMARK                         _______ _______ _______ _____ _____    ______ ____
ROOT
ATOM      1  O   UNL     1     -17.418  42.268 -13.253  0.00  0.00    +0.000 OA
ATOM      2  N   UNL     1     -18.560  40.297 -13.346  0.00  0.00    +0.000 N 
ATOM      3  N   UNL     1     -18.068  42.494  -9.076  0.00  0.00    +0.000 NA
ATOM      4  N   UNL     1     -19.262  39.277 -12.782  0.00  0.00    +0.000 NA
ATOM      5  N   UNL     1     -17.110  43.533 -10.951  0.00  0.00    +0.000 N 
ATOM      6  C   UNL     1     -18.292  41.428 -11.225  0.00  0.00    +0.000 A 
ATOM      7  C   UNL     1     -19.005  40.398 -10.639  0.00  0.00    +0.000 A 
ATOM      8  C   UNL     1     -17.843  42.454 -10.410  0.00  0.00    +0.000 A 
ATOM      9  C   UNL     1     -18.046  41.389 -12.672  0.00  0.00    +0.000 A 
ATOM     10  C   UNL     1     -19.261  40.393  -9.276  0.00  0.00    +0.000 A 
ATOM     11  C   UNL     1     -19.473  39.324 -11.505  0.00  0.00    +0.000 A 
ATOM     12  C   UNL     1     -18.770  41.463  -8.545  0.00  0.00    +0.000 A 
ATOM     13  H   UNL     1     -18.425  40.206 -14.347  0.00  0.00    +0.000 HD
ATOM     14  H   UNL     1     -16.526  43.365 -11.761  0.00  0.00    +0.000 HD
ATOM     15  H   UNL     1     -16.815  44.253 -10.303  0.00  0.00    +0.000 HD
ENDROOT
TORSDOF 0
ENDMDL
MODEL 4
REMARK VINA RESULT:    -5.815      1.824      2.805
REMARK INTER + INTRA:          -5.815
REMARK INTER:                  -5.815
REMARK INTRA:                   0.000
REMARK UNBOUND:                 0.000
REMARK  Name = 69160252
REMARK  0 active torsions:
REMARK  status: ('A' for Active; 'I' for Inactive)
REMARK                            x       y       z     vdW  Elec       q    Type
REMARK                         _______ _______ _______ _____ _____    ______ ____
ROOT
ATOM      1  O   UNL     1     -17.211  43.684 -11.094  0.00  0.00    +0.000 OA
ATOM      2  N   UNL     1     -17.863  42.739  -9.124  0.00  0.00    +0.000 N 
ATOM      3  N   UNL     1     -18.639  40.318 -13.227  0.00  0.00    +0.000 NA
ATOM      4  N   UNL     1     -18.422  41.742  -8.386  0.00  0.00    +0.000 NA
ATOM      5  N   UNL     1     -17.600  42.418 -13.383  0.00  0.00    +0.000 N 
ATOM      6  C   UNL     1     -18.234  41.558 -11.201  0.00  0.00    +0.000 A 
ATOM      7  C   UNL     1     -18.805  40.536 -10.463  0.00  0.00    +0.000 A 
ATOM      8  C   UNL     1     -18.171  41.409 -12.577  0.00  0.00    +0.000 A 
ATOM      9  C   UNL     1     -17.725  42.743 -10.499  0.00  0.00    +0.000 A 
ATOM     10  C   UNL     1     -19.299  39.399 -11.084  0.00  0.00    +0.000 A 
ATOM     11  C   UNL     1     -18.866  40.702  -9.017  0.00  0.00    +0.000 A 
ATOM     12  C   UNL     1     -19.190  39.343 -12.464  0.00  0.00    +0.000 A 
ATOM     13  H   UNL     1     -17.534  43.527  -8.577  0.00  0.00    +0.000 HD
ATOM     14  H   UNL     1     -17.667  43.380 -13.075  0.00  0.00    +0.000 HD
ATOM     15  H   UNL     1     -17.579  42.246 -14.381  0.00  0.00    +0.000 HD
ENDROOT
TORSDOF 0
ENDMDL
MODEL 5
REMARK VINA RESULT:    -5.613      2.521      3.604
REMARK INTER + INTRA:          -5.613
REMARK INTER:                  -5.613
REMARK INTRA:                   0.000
REMARK UNBOUND:                 0.000
REMARK  Name = 69160252
REMARK  0 active torsions:
REMARK  status: ('A' for Active; 'I' for Inactive)
REMARK                            x       y       z     vdW  Elec       q    Type
REMARK                         _______ _______ _______ _____ _____    ______ ____
ROOT
ATOM      1  O   UNL     1     -19.903  42.255 -14.150  0.00  0.00    +0.000 OA
ATOM      2  N   UNL     1     -18.140  43.699 -14.073  0.00  0.00    +0.000 N 
ATOM      3  N   UNL     1     -17.970  39.688 -11.393  0.00  0.00    +0.000 NA
ATOM      4  N   UNL     1     -16.918  44.095 -13.626  0.00  0.00    +0.000 NA
ATOM      5  N   UNL     1     -19.881  40.034 -12.713  0.00  0.00    +0.000 N 
ATOM      6  C   UNL     1     -18.093  41.679 -12.745  0.00  0.00    +0.000 A 
ATOM      7  C   UNL     1     -16.849  42.069 -12.283  0.00  0.00    +0.000 A 
ATOM      8  C   UNL     1     -18.616  40.485 -12.276  0.00  0.00    +0.000 A 
ATOM      9  C   UNL     1     -18.797  42.540 -13.704  0.00  0.00    +0.000 A 
ATOM     10  C   UNL     1     -16.148  41.287 -11.377  0.00  0.00    +0.000 A 
ATOM     11  C   UNL     1     -16.308  43.326 -12.781  0.00  0.00    +0.000 A 
ATOM     12  C   UNL     1     -16.754  40.110 -10.967  0.00  0.00    +0.000 A 
ATOM     13  H   UNL     1     -18.570  44.340 -14.731  0.00  0.00    +0.000 HD
ATOM     14  H   UNL     1     -20.582  40.723 -12.960  0.00  0.00    +0.000 HD
ATOM     15  H   UNL     1     -20.205  39.151 -12.337  0.00  0.00    +0.000 HD
ENDROOT
TORSDOF 0
ENDMDL
