MODEL 1
REMARK VINA RESULT:    -6.417      0.000      0.000
REMARK INTER + INTRA:          -6.832
REMARK INTER:                  -6.792
REMARK INTRA:                  -0.040
REMARK UNBOUND:                -0.040
REMARK  Name = 6919179
REMARK  1 active torsions:
REMARK  status: ('A' for Active; 'I' for Inactive)
REMARK    1  A    between atoms: C_5  and  C_10
REMARK                            x       y       z     vdW  Elec       q    Type
REMARK                         _______ _______ _______ _____ _____    ______ ____
ROOT
ATOM      1  N   UNL     1     -20.378  42.714  -6.617  0.00  0.00    +0.000 N 
ATOM      2  N   UNL     1     -22.551  43.109  -5.715  0.00  0.00    +0.000 N 
ATOM      3  C   UNL     1     -20.030  41.023  -8.303  0.00  0.00    +0.000 A 
ATOM      4  C   UNL     1     -21.723  42.394  -6.595  0.00  0.00    +0.000 A 
ATOM      5  C   UNL     1     -19.540  42.025  -7.472  0.00  0.00    +0.000 A 
ATOM      6  C   UNL     1     -21.384  40.709  -8.273  0.00  0.00    +0.000 A 
ATOM      7  C   UNL     1     -22.237  41.397  -7.416  0.00  0.00    +0.000 A 
ATOM      8  H   UNL     1     -20.013  43.447  -6.010  0.00  0.00    +0.000 HD
ATOM      9  H   UNL     1     -22.134  43.829  -5.138  0.00  0.00    +0.000 HD
ATOM     10  H   UNL     1     -23.538  43.181  -5.930  0.00  0.00    +0.000 HD
ENDROOT
BRANCH   3  13
ATOM     11  O   UNL     1     -19.559  39.580 -10.104  0.00  0.00    +0.000 OA
ATOM     12  N   UNL     1     -17.760  40.489  -9.011  0.00  0.00    +0.000 N 
ATOM     13  C   UNL     1     -19.129  40.311  -9.195  0.00  0.00    +0.000 C 
ATOM     14  H   UNL     1     -17.334  41.069  -8.300  0.00  0.00    +0.000 HD
ATOM     15  H   UNL     1     -17.108  40.009  -9.623  0.00  0.00    +0.000 HD
ENDBRANCH   3  13
TORSDOF 1
ENDMDL
MODEL 2
REMARK VINA RESULT:    -6.410      1.932      4.281
REMARK INTER + INTRA:          -6.825
REMARK INTER:                  -6.784
REMARK INTRA:                  -0.041
REMARK UNBOUND:                -0.040
REMARK  Name = 6919179
REMARK  1 active torsions:
REMARK  status: ('A' for Active; 'I' for Inactive)
REMARK    1  A    between atoms: C_5  and  C_10
REMARK                            x       y       z     vdW  Elec       q    Type
REMARK                         _______ _______ _______ _____ _____    ______ ____
ROOT
ATOM      1  N   UNL     1     -20.004  40.186  -9.081  0.00  0.00    +0.000 N 
ATOM      2  N   UNL     1     -17.682  40.498  -9.525  0.00  0.00    +0.000 N 
ATOM      3  C   UNL     1     -21.166  41.614  -7.521  0.00  0.00    +0.000 A 
ATOM      4  C   UNL     1     -18.841  40.893  -8.840  0.00  0.00    +0.000 A 
ATOM      5  C   UNL     1     -21.160  40.551  -8.419  0.00  0.00    +0.000 A 
ATOM      6  C   UNL     1     -19.991  42.319  -7.286  0.00  0.00    +0.000 A 
ATOM      7  C   UNL     1     -18.821  41.959  -7.947  0.00  0.00    +0.000 A 
ATOM      8  H   UNL     1     -20.006  39.406  -9.737  0.00  0.00    +0.000 HD
ATOM      9  H   UNL     1     -17.743  39.718 -10.168  0.00  0.00    +0.000 HD
ATOM     10  H   UNL     1     -16.950  41.182  -9.673  0.00  0.00    +0.000 HD
ENDROOT
BRANCH   3  13
ATOM     11  O   UNL     1     -23.378  41.219  -6.814  0.00  0.00    +0.000 OA
ATOM     12  N   UNL     1     -22.431  43.211  -6.184  0.00  0.00    +0.000 N 
ATOM     13  C   UNL     1     -22.394  41.981  -6.836  0.00  0.00    +0.000 C 
ATOM     14  H   UNL     1     -21.674  43.881  -6.151  0.00  0.00    +0.000 HD
ATOM     15  H   UNL     1     -23.274  43.490  -5.692  0.00  0.00    +0.000 HD
ENDBRANCH   3  13
TORSDOF 1
ENDMDL
MODEL 3
REMARK VINA RESULT:    -5.792      2.927      4.150
REMARK INTER + INTRA:          -6.170
REMARK INTER:                  -6.134
REMARK INTRA:                  -0.036
REMARK UNBOUND:                -0.040
REMARK  Name = 6919179
REMARK  1 active torsions:
REMARK  status: ('A' for Active; 'I' for Inactive)
REMARK    1  A    between atoms: C_5  and  C_10
REMARK                            x       y       z     vdW  Elec       q    Type
REMARK                         _______ _______ _______ _____ _____    ______ ____
ROOT
ATOM      1  N   UNL     1     -20.050  39.629 -10.434  0.00  0.00    +0.000 N 
ATOM      2  N   UNL     1     -20.849  40.617  -8.415  0.00  0.00    +0.000 N 
ATOM      3  C   UNL     1     -17.805  40.050 -11.210  0.00  0.00    +0.000 A 
ATOM      4  C   UNL     1     -19.810  40.441  -9.341  0.00  0.00    +0.000 A 
ATOM      5  C   UNL     1     -19.045  39.439 -11.362  0.00  0.00    +0.000 A 
ATOM      6  C   UNL     1     -17.572  40.865 -10.107  0.00  0.00    +0.000 A 
ATOM      7  C   UNL     1     -18.578  41.063  -9.167  0.00  0.00    +0.000 A 
ATOM      8  H   UNL     1     -20.957  39.179 -10.551  0.00  0.00    +0.000 HD
ATOM      9  H   UNL     1     -21.729  40.143  -8.581  0.00  0.00    +0.000 HD
ATOM     10  H   UNL     1     -20.613  40.865  -7.462  0.00  0.00    +0.000 HD
ENDROOT
BRANCH   3  13
ATOM     11  O   UNL     1     -17.018  39.807 -13.416  0.00  0.00    +0.000 OA
ATOM     12  N   UNL     1     -15.456  39.682 -11.743  0.00  0.00    +0.000 N 
ATOM     13  C   UNL     1     -16.762  39.836 -12.200  0.00  0.00    +0.000 C 
ATOM     14  H   UNL     1     -15.167  39.698 -10.773  0.00  0.00    +0.000 HD
ATOM     15  H   UNL     1     -14.706  39.537 -12.412  0.00  0.00    +0.000 HD
ENDBRANCH   3  13
TORSDOF 1
ENDMDL
MODEL 4
REMARK VINA RESULT:    -5.471      2.057      4.865
REMARK INTER + INTRA:          -5.831
REMARK INTER:                  -5.790
REMARK INTRA:                  -0.040
REMARK UNBOUND:                -0.040
REMARK  Name = 6919179
REMARK  1 active torsions:
REMARK  status: ('A' for Active; 'I' for Inactive)
REMARK    1  A    between atoms: C_5  and  C_10
REMARK                            x       y       z     vdW  Elec       q    Type
REMARK                         _______ _______ _______ _____ _____    ______ ____
ROOT
ATOM      1  N   UNL     1     -17.059  40.602 -10.166  0.00  0.00    +0.000 N 
ATOM      2  N   UNL     1     -16.387  39.628 -12.237  0.00  0.00    +0.000 N 
ATOM      3  C   UNL     1     -19.341  40.426  -9.403  0.00  0.00    +0.000 A 
ATOM      4  C   UNL     1     -17.397  39.883 -11.297  0.00  0.00    +0.000 A 
ATOM      5  C   UNL     1     -18.034  40.869  -9.226  0.00  0.00    +0.000 A 
ATOM      6  C   UNL     1     -19.672  39.705 -10.544  0.00  0.00    +0.000 A 
ATOM      7  C   UNL     1     -18.697  39.430 -11.497  0.00  0.00    +0.000 A 
ATOM      8  H   UNL     1     -16.103  40.929 -10.031  0.00  0.00    +0.000 HD
ATOM      9  H   UNL     1     -15.454  39.975 -12.050  0.00  0.00    +0.000 HD
ATOM     10  H   UNL     1     -16.484  38.825 -12.847  0.00  0.00    +0.000 HD
ENDROOT
BRANCH   3  13
ATOM     11  O   UNL     1     -21.535  40.367  -8.547  0.00  0.00    +0.000 OA
ATOM     12  N   UNL     1     -19.947  41.395  -7.250  0.00  0.00    +0.000 N 
ATOM     13  C   UNL     1     -20.351  40.720  -8.399  0.00  0.00    +0.000 C 
ATOM     14  H   UNL     1     -19.005  41.710  -7.054  0.00  0.00    +0.000 HD
ATOM     15  H   UNL     1     -20.630  41.608  -6.530  0.00  0.00    +0.000 HD
ENDBRANCH   3  13
TORSDOF 1
ENDMDL
MODEL 5
REMARK VINA RESULT:    -4.970      3.288      4.337
REMARK INTER + INTRA:          -5.301
REMARK INTER:                  -5.261
REMARK INTRA:                  -0.040
REMARK UNBOUND:                -0.040
REMARK  Name = 6919179
REMARK  1 active torsions:
REMARK  status: ('A' for Active; 'I' for Inactive)
REMARK    1  A    between atoms: C_5  and  C_10
REMARK                            x       y       z     vdW  Elec       q    Type
REMARK                         _______ _______ _______ _____ _____    ______ ____
ROOT
ATOM      1  N   UNL     1     -17.790  41.771  -9.486  0.00  0.00    +0.000 N 
ATOM      2  N   UNL     1     -18.844  40.361  -7.877  0.00  0.00    +0.000 N 
ATOM      3  C   UNL     1     -18.459  41.714 -11.804  0.00  0.00    +0.000 A 
ATOM      4  C   UNL     1     -18.734  40.802  -9.205  0.00  0.00    +0.000 A 
ATOM      5  C   UNL     1     -17.658  42.221 -10.785  0.00  0.00    +0.000 A 
ATOM      6  C   UNL     1     -19.405  40.739 -11.511  0.00  0.00    +0.000 A 
ATOM      7  C   UNL     1     -19.546  40.279 -10.205  0.00  0.00    +0.000 A 
ATOM      8  H   UNL     1     -17.200  42.146  -8.744  0.00  0.00    +0.000 HD
ATOM      9  H   UNL     1     -18.235  40.771  -7.180  0.00  0.00    +0.000 HD
ATOM     10  H   UNL     1     -19.725  39.969  -7.568  0.00  0.00    +0.000 HD
ENDROOT
BRANCH   3  13
ATOM     11  O   UNL     1     -19.141  41.947 -14.046  0.00  0.00    +0.000 OA
ATOM     12  N   UNL     1     -17.188  42.988 -13.447  0.00  0.00    +0.000 N 
ATOM     13  C   UNL     1     -18.303  42.203 -13.164  0.00  0.00    +0.000 C 
ATOM     14  H   UNL     1     -16.466  43.244 -12.785  0.00  0.00    +0.000 HD
ATOM     15  H   UNL     1     -17.057  43.348 -14.387  0.00  0.00    +0.000 HD
ENDBRANCH   3  13
TORSDOF 1
ENDMDL
