MODEL 1
REMARK VINA RESULT:    -5.497      0.000      0.000
REMARK INTER + INTRA:          -6.167
REMARK INTER:                  -5.979
REMARK INTRA:                  -0.188
REMARK UNBOUND:                -0.188
REMARK  Name = 6933883
REMARK  2 active torsions:
REMARK  status: ('A' for Active; 'I' for Inactive)
REMARK    1  A    between atoms: N_3  and  C_4
REMARK    2  A    between atoms: C_5  and  C_9
REMARK                            x       y       z     vdW  Elec       q    Type
REMARK                         _______ _______ _______ _____ _____    ______ ____
ROOT
ATOM      1  N   UNL     1     -21.234  40.089  -8.695  0.00  0.00    +0.000 N 
ATOM      2  C   UNL     1     -21.861  40.826  -7.767  0.00  0.00    +0.000 A 
ATOM      3  C   UNL     1     -21.145  41.732  -6.999  0.00  0.00    +0.000 A 
ATOM      4  C   UNL     1     -19.775  41.857  -7.212  0.00  0.00    +0.000 A 
ATOM      5  C   UNL     1     -19.917  40.189  -8.921  0.00  0.00    +0.000 A 
ATOM      6  C   UNL     1     -19.151  41.080  -8.182  0.00  0.00    +0.000 A 
ATOM      7  H   UNL     1     -21.779  39.429  -9.248  0.00  0.00    +0.000 HD
ENDROOT
BRANCH   2   8
ATOM      8  N   UNL     1     -23.242  40.642  -7.613  0.00  0.00    +0.000 N 
ATOM      9  H   UNL     1     -23.631  40.646  -6.678  0.00  0.00    +0.000 HD
ATOM     10  H   UNL     1     -23.714  40.055  -8.291  0.00  0.00    +0.000 HD
ENDBRANCH   2   8
BRANCH   3  12
ATOM     11  O   UNL     1     -22.945  42.963  -6.079  0.00  0.00    +0.000 OA
ATOM     12  C   UNL     1     -21.786  42.553  -5.982  0.00  0.00    +0.000 C 
ENDBRANCH   3  12
TORSDOF 2
ENDMDL
MODEL 2
REMARK VINA RESULT:    -5.043      3.696      4.902
REMARK INTER + INTRA:          -5.674
REMARK INTER:                  -5.466
REMARK INTRA:                  -0.208
REMARK UNBOUND:                -0.188
REMARK  Name = 6933883
REMARK  2 active torsions:
REMARK  status: ('A' for Active; 'I' for Inactive)
REMARK    1  A    between atoms: N_3  and  C_4
REMARK    2  A    between atoms: C_5  and  C_9
REMARK                            x       y       z     vdW  Elec       q    Type
REMARK                         _______ _______ _______ _____ _____    ______ ____
ROOT
ATOM      1  N   UNL     1     -20.362  39.763  -9.764  0.00  0.00    +0.000 N 
ATOM      2  C   UNL     1     -19.278  39.764 -10.554  0.00  0.00    +0.000 A 
ATOM      3  C   UNL     1     -18.153  40.489 -10.189  0.00  0.00    +0.000 A 
ATOM      4  C   UNL     1     -18.175  41.208  -8.997  0.00  0.00    +0.000 A 
ATOM      5  C   UNL     1     -20.410  40.444  -8.612  0.00  0.00    +0.000 A 
ATOM      6  C   UNL     1     -19.313  41.187  -8.197  0.00  0.00    +0.000 A 
ATOM      7  H   UNL     1     -21.177  39.223 -10.051  0.00  0.00    +0.000 HD
ENDROOT
BRANCH   2   8
ATOM      8  N   UNL     1     -19.333  39.016 -11.738  0.00  0.00    +0.000 N 
ATOM      9  H   UNL     1     -20.223  38.920 -12.211  0.00  0.00    +0.000 HD
ATOM     10  H   UNL     1     -18.694  38.234 -11.827  0.00  0.00    +0.000 HD
ENDBRANCH   2   8
BRANCH   3  12
ATOM     11  O   UNL     1     -16.526  39.528 -11.614  0.00  0.00    +0.000 OA
ATOM     12  C   UNL     1     -16.955  40.517 -11.015  0.00  0.00    +0.000 C 
ENDBRANCH   3  12
TORSDOF 2
ENDMDL
MODEL 3
REMARK VINA RESULT:    -4.968      2.229      3.253
REMARK INTER + INTRA:          -5.592
REMARK INTER:                  -5.365
REMARK INTRA:                  -0.228
REMARK UNBOUND:                -0.188
REMARK  Name = 6933883
REMARK  2 active torsions:
REMARK  status: ('A' for Active; 'I' for Inactive)
REMARK    1  A    between atoms: N_3  and  C_4
REMARK    2  A    between atoms: C_5  and  C_9
REMARK                            x       y       z     vdW  Elec       q    Type
REMARK                         _______ _______ _______ _____ _____    ______ ____
ROOT
ATOM      1  N   UNL     1     -22.168  40.735  -7.920  0.00  0.00    +0.000 N 
ATOM      2  C   UNL     1     -20.926  40.555  -8.390  0.00  0.00    +0.000 A 
ATOM      3  C   UNL     1     -19.865  41.262  -7.843  0.00  0.00    +0.000 A 
ATOM      4  C   UNL     1     -20.119  42.153  -6.803  0.00  0.00    +0.000 A 
ATOM      5  C   UNL     1     -22.440  41.585  -6.920  0.00  0.00    +0.000 A 
ATOM      6  C   UNL     1     -21.418  42.319  -6.335  0.00  0.00    +0.000 A 
ATOM      7  H   UNL     1     -22.932  40.205  -8.336  0.00  0.00    +0.000 HD
ENDROOT
BRANCH   2   8
ATOM      8  N   UNL     1     -20.751  39.640  -9.438  0.00  0.00    +0.000 N 
ATOM      9  H   UNL     1     -20.816  39.975 -10.392  0.00  0.00    +0.000 HD
ATOM     10  H   UNL     1     -21.051  38.685  -9.279  0.00  0.00    +0.000 HD
ENDBRANCH   2   8
BRANCH   3  12
ATOM     11  O   UNL     1     -18.199  41.122  -9.517  0.00  0.00    +0.000 OA
ATOM     12  C   UNL     1     -18.501  41.096  -8.322  0.00  0.00    +0.000 C 
ENDBRANCH   3  12
TORSDOF 2
ENDMDL
MODEL 4
REMARK VINA RESULT:    -4.876      3.810      5.105
REMARK INTER + INTRA:          -5.492
REMARK INTER:                  -5.297
REMARK INTRA:                  -0.195
REMARK UNBOUND:                -0.188
REMARK  Name = 6933883
REMARK  2 active torsions:
REMARK  status: ('A' for Active; 'I' for Inactive)
REMARK    1  A    between atoms: N_3  and  C_4
REMARK    2  A    between atoms: C_5  and  C_9
REMARK                            x       y       z     vdW  Elec       q    Type
REMARK                         _______ _______ _______ _____ _____    ______ ____
ROOT
ATOM      1  N   UNL     1     -18.033  41.380  -8.811  0.00  0.00    +0.000 N 
ATOM      2  C   UNL     1     -17.992  40.683  -9.956  0.00  0.00    +0.000 A 
ATOM      3  C   UNL     1     -19.103  39.967 -10.374  0.00  0.00    +0.000 A 
ATOM      4  C   UNL     1     -20.251  39.988  -9.585  0.00  0.00    +0.000 A 
ATOM      5  C   UNL     1     -19.123  41.418  -8.034  0.00  0.00    +0.000 A 
ATOM      6  C   UNL     1     -20.265  40.720  -8.403  0.00  0.00    +0.000 A 
ATOM      7  H   UNL     1     -17.205  41.899  -8.524  0.00  0.00    +0.000 HD
ENDROOT
BRANCH   2   8
ATOM      8  N   UNL     1     -16.800  40.712 -10.695  0.00  0.00    +0.000 N 
ATOM      9  H   UNL     1     -16.419  41.609 -10.968  0.00  0.00    +0.000 HD
ATOM     10  H   UNL     1     -16.625  39.940 -11.328  0.00  0.00    +0.000 HD
ENDBRANCH   2   8
BRANCH   3  12
ATOM     11  O   UNL     1     -19.129  39.719 -12.727  0.00  0.00    +0.000 OA
ATOM     12  C   UNL     1     -19.103  39.198 -11.610  0.00  0.00    +0.000 C 
ENDBRANCH   3  12
TORSDOF 2
ENDMDL
MODEL 5
REMARK VINA RESULT:    -4.673      2.765      3.928
REMARK INTER + INTRA:          -5.271
REMARK INTER:                  -5.082
REMARK INTRA:                  -0.188
REMARK UNBOUND:                -0.188
REMARK  Name = 6933883
REMARK  2 active torsions:
REMARK  status: ('A' for Active; 'I' for Inactive)
REMARK    1  A    between atoms: N_3  and  C_4
REMARK    2  A    between atoms: C_5  and  C_9
REMARK                            x       y       z     vdW  Elec       q    Type
REMARK                         _______ _______ _______ _____ _____    ______ ____
ROOT
ATOM      1  N   UNL     1     -19.987  42.461  -6.766  0.00  0.00    +0.000 N 
ATOM      2  C   UNL     1     -19.629  41.757  -7.850  0.00  0.00    +0.000 A 
ATOM      3  C   UNL     1     -20.541  40.911  -8.462  0.00  0.00    +0.000 A 
ATOM      4  C   UNL     1     -21.824  40.810  -7.932  0.00  0.00    +0.000 A 
ATOM      5  C   UNL     1     -21.215  42.384  -6.235  0.00  0.00    +0.000 A 
ATOM      6  C   UNL     1     -22.168  41.553  -6.807  0.00  0.00    +0.000 A 
ATOM      7  H   UNL     1     -19.301  43.076  -6.332  0.00  0.00    +0.000 HD
ENDROOT
BRANCH   2   8
ATOM      8  N   UNL     1     -18.318  41.913  -8.324  0.00  0.00    +0.000 N 
ATOM      9  H   UNL     1     -17.722  41.096  -8.381  0.00  0.00    +0.000 HD
ATOM     10  H   UNL     1     -17.854  42.792  -8.132  0.00  0.00    +0.000 HD
ENDBRANCH   2   8
BRANCH   3  12
ATOM     11  O   UNL     1     -19.064  39.681  -9.843  0.00  0.00    +0.000 OA
ATOM     12  C   UNL     1     -20.195  40.130  -9.641  0.00  0.00    +0.000 C 
ENDBRANCH   3  12
TORSDOF 2
ENDMDL
