MODEL 1
REMARK VINA RESULT:    -6.967      0.000      0.000
REMARK INTER + INTRA:          -8.478
REMARK INTER:                  -8.189
REMARK INTRA:                  -0.288
REMARK UNBOUND:                -0.288
REMARK  Name = 69852218
REMARK  3 active torsions:
REMARK  status: ('A' for Active; 'I' for Inactive)
REMARK    1  A    between atoms: N_2  and  C_7
REMARK    2  A    between atoms: C_6  and  C_11
REMARK    3  A    between atoms: C_7  and  C_12
REMARK                            x       y       z     vdW  Elec       q    Type
REMARK                         _______ _______ _______ _____ _____    ______ ____
ROOT
ATOM      1  N   UNL     1     -17.628  40.998  -9.553  0.00  0.00    +0.000 N 
ATOM      2  N   UNL     1     -18.841  42.096  -7.821  0.00  0.00    +0.000 NA
ATOM      3  C   UNL     1     -18.836  41.211  -8.844  0.00  0.00    +0.000 A 
ATOM      4  C   UNL     1     -21.184  41.591  -7.505  0.00  0.00    +0.000 A 
ATOM      5  C   UNL     1     -19.947  40.491  -9.250  0.00  0.00    +0.000 A 
ATOM      6  C   UNL     1     -21.139  40.689  -8.563  0.00  0.00    +0.000 A 
ATOM      7  C   UNL     1     -20.017  42.262  -7.176  0.00  0.00    +0.000 A 
ATOM      8  H   UNL     1     -16.828  41.536  -9.242  0.00  0.00    +0.000 HD
ENDROOT
BRANCH   4  11
ATOM      9  O   UNL     1     -23.347  40.997  -6.787  0.00  0.00    +0.000 OA
ATOM     10  N   UNL     1     -22.513  42.988  -6.016  0.00  0.00    +0.000 N 
ATOM     11  C   UNL     1     -22.414  41.820  -6.767  0.00  0.00    +0.000 C 
ATOM     12  H   UNL     1     -21.801  43.704  -5.944  0.00  0.00    +0.000 HD
ATOM     13  H   UNL     1     -23.359  43.171  -5.486  0.00  0.00    +0.000 HD
ENDBRANCH   4  11
BRANCH   1  14
ATOM     14  C   UNL     1     -17.529  40.085 -10.645  0.00  0.00    +0.000 C 
BRANCH  14  15
ATOM     15  C   UNL     1     -17.385  40.864 -11.914  0.00  0.00    +0.000 C 
ATOM     16  C   UNL     1     -18.416  41.266 -12.665  0.00  0.00    +0.000 C 
ENDBRANCH  14  15
ENDBRANCH   1  14
TORSDOF 3
ENDMDL
MODEL 2
REMARK VINA RESULT:    -6.548      2.695      5.281
REMARK INTER + INTRA:          -7.985
REMARK INTER:                  -7.939
REMARK INTRA:                  -0.046
REMARK UNBOUND:                -0.288
REMARK  Name = 69852218
REMARK  3 active torsions:
REMARK  status: ('A' for Active; 'I' for Inactive)
REMARK    1  A    between atoms: N_2  and  C_7
REMARK    2  A    between atoms: C_6  and  C_11
REMARK    3  A    between atoms: C_7  and  C_12
REMARK                            x       y       z     vdW  Elec       q    Type
REMARK                         _______ _______ _______ _____ _____    ______ ____
ROOT
ATOM      1  N   UNL     1     -19.665  42.385  -6.799  0.00  0.00    +0.000 N 
ATOM      2  N   UNL     1     -18.369  42.212  -8.791  0.00  0.00    +0.000 NA
ATOM      3  C   UNL     1     -19.371  41.730  -8.020  0.00  0.00    +0.000 A 
ATOM      4  C   UNL     1     -18.839  40.438 -10.365  0.00  0.00    +0.000 A 
ATOM      5  C   UNL     1     -20.138  40.625  -8.349  0.00  0.00    +0.000 A 
ATOM      6  C   UNL     1     -19.861  39.972  -9.546  0.00  0.00    +0.000 A 
ATOM      7  C   UNL     1     -18.129  41.552  -9.946  0.00  0.00    +0.000 A 
ATOM      8  H   UNL     1     -19.091  43.189  -6.575  0.00  0.00    +0.000 HD
ENDROOT
BRANCH   4  11
ATOM      9  O   UNL     1     -17.349  39.579 -11.975  0.00  0.00    +0.000 OA
ATOM     10  N   UNL     1     -19.588  39.355 -12.414  0.00  0.00    +0.000 N 
ATOM     11  C   UNL     1     -18.526  39.778 -11.620  0.00  0.00    +0.000 C 
ATOM     12  H   UNL     1     -20.570  39.474 -12.197  0.00  0.00    +0.000 HD
ATOM     13  H   UNL     1     -19.399  38.886 -13.294  0.00  0.00    +0.000 HD
ENDBRANCH   4  11
BRANCH   1  14
ATOM     14  C   UNL     1     -20.703  41.948  -5.923  0.00  0.00    +0.000 C 
BRANCH  14  15
ATOM     15  C   UNL     1     -21.983  42.607  -6.326  0.00  0.00    +0.000 C 
ATOM     16  C   UNL     1     -22.986  41.975  -6.945  0.00  0.00    +0.000 C 
ENDBRANCH  14  15
ENDBRANCH   1  14
TORSDOF 3
ENDMDL
MODEL 3
REMARK VINA RESULT:    -6.475      3.086      5.991
REMARK INTER + INTRA:          -7.899
REMARK INTER:                  -7.729
REMARK INTRA:                  -0.171
REMARK UNBOUND:                -0.288
REMARK  Name = 69852218
REMARK  3 active torsions:
REMARK  status: ('A' for Active; 'I' for Inactive)
REMARK    1  A    between atoms: N_2  and  C_7
REMARK    2  A    between atoms: C_6  and  C_11
REMARK    3  A    between atoms: C_7  and  C_12
REMARK                            x       y       z     vdW  Elec       q    Type
REMARK                         _______ _______ _______ _____ _____    ______ ____
ROOT
ATOM      1  N   UNL     1     -20.777  40.624  -8.379  0.00  0.00    +0.000 N 
ATOM      2  N   UNL     1     -19.950  39.504 -10.313  0.00  0.00    +0.000 NA
ATOM      3  C   UNL     1     -19.757  40.426  -9.342  0.00  0.00    +0.000 A 
ATOM      4  C   UNL     1     -17.766  40.078 -11.176  0.00  0.00    +0.000 A 
ATOM      5  C   UNL     1     -18.614  41.199  -9.224  0.00  0.00    +0.000 A 
ATOM      6  C   UNL     1     -17.604  41.016 -10.162  0.00  0.00    +0.000 A 
ATOM      7  C   UNL     1     -18.947  39.353 -11.206  0.00  0.00    +0.000 A 
ATOM      8  H   UNL     1     -21.606  40.050  -8.483  0.00  0.00    +0.000 HD
ENDROOT
BRANCH   4  11
ATOM      9  O   UNL     1     -16.991  39.831 -13.387  0.00  0.00    +0.000 OA
ATOM     10  N   UNL     1     -15.420  39.709 -11.721  0.00  0.00    +0.000 N 
ATOM     11  C   UNL     1     -16.729  39.863 -12.170  0.00  0.00    +0.000 C 
ATOM     12  H   UNL     1     -15.124  39.726 -10.753  0.00  0.00    +0.000 HD
ATOM     13  H   UNL     1     -14.675  39.563 -12.394  0.00  0.00    +0.000 HD
ENDBRANCH   4  11
BRANCH   1  14
ATOM     14  C   UNL     1     -20.661  41.572  -7.320  0.00  0.00    +0.000 C 
BRANCH  14  15
ATOM     15  C   UNL     1     -22.033  41.962  -6.868  0.00  0.00    +0.000 C 
ATOM     16  C   UNL     1     -23.135  41.248  -7.125  0.00  0.00    +0.000 C 
ENDBRANCH  14  15
ENDBRANCH   1  14
TORSDOF 3
ENDMDL
MODEL 4
REMARK VINA RESULT:    -5.557      3.590      6.158
REMARK INTER + INTRA:          -6.820
REMARK INTER:                  -6.588
REMARK INTRA:                  -0.233
REMARK UNBOUND:                -0.288
REMARK  Name = 69852218
REMARK  3 active torsions:
REMARK  status: ('A' for Active; 'I' for Inactive)
REMARK    1  A    between atoms: N_2  and  C_7
REMARK    2  A    between atoms: C_6  and  C_11
REMARK    3  A    between atoms: C_7  and  C_12
REMARK                            x       y       z     vdW  Elec       q    Type
REMARK                         _______ _______ _______ _____ _____    ______ ____
ROOT
ATOM      1  N   UNL     1     -19.986  40.195 -10.338  0.00  0.00    +0.000 N 
ATOM      2  N   UNL     1     -19.186  41.152 -12.368  0.00  0.00    +0.000 NA
ATOM      3  C   UNL     1     -19.088  41.052 -11.023  0.00  0.00    +0.000 A 
ATOM      4  C   UNL     1     -17.341  42.713 -12.302  0.00  0.00    +0.000 A 
ATOM      5  C   UNL     1     -18.159  41.739 -10.260  0.00  0.00    +0.000 A 
ATOM      6  C   UNL     1     -17.271  42.583 -10.919  0.00  0.00    +0.000 A 
ATOM      7  C   UNL     1     -18.307  41.981 -12.974  0.00  0.00    +0.000 A 
ATOM      8  H   UNL     1     -20.659  39.703 -10.913  0.00  0.00    +0.000 HD
ENDROOT
BRANCH   4  11
ATOM      9  O   UNL     1     -16.841  44.548 -13.691  0.00  0.00    +0.000 OA
ATOM     10  N   UNL     1     -15.064  43.324 -12.916  0.00  0.00    +0.000 N 
ATOM     11  C   UNL     1     -16.428  43.586 -13.018  0.00  0.00    +0.000 C 
ATOM     12  H   UNL     1     -14.648  42.567 -12.389  0.00  0.00    +0.000 HD
ATOM     13  H   UNL     1     -14.403  43.921 -13.402  0.00  0.00    +0.000 HD
ENDBRANCH   4  11
BRANCH   1  14
ATOM     14  C   UNL     1     -19.957  40.026  -8.922  0.00  0.00    +0.000 C 
BRANCH  14  15
ATOM     15  C   UNL     1     -21.080  40.809  -8.319  0.00  0.00    +0.000 C 
ATOM     16  C   UNL     1     -20.925  41.704  -7.338  0.00  0.00    +0.000 C 
ENDBRANCH  14  15
ENDBRANCH   1  14
TORSDOF 3
ENDMDL
MODEL 5
REMARK VINA RESULT:    -5.421      3.671      5.937
REMARK INTER + INTRA:          -6.660
REMARK INTER:                  -6.401
REMARK INTRA:                  -0.260
REMARK UNBOUND:                -0.288
REMARK  Name = 69852218
REMARK  3 active torsions:
REMARK  status: ('A' for Active; 'I' for Inactive)
REMARK    1  A    between atoms: N_2  and  C_7
REMARK    2  A    between atoms: C_6  and  C_11
REMARK    3  A    between atoms: C_7  and  C_12
REMARK                            x       y       z     vdW  Elec       q    Type
REMARK                         _______ _______ _______ _____ _____    ______ ____
ROOT
ATOM      1  N   UNL     1     -17.623  41.732  -9.942  0.00  0.00    +0.000 N 
ATOM      2  N   UNL     1     -17.514  43.181 -11.830  0.00  0.00    +0.000 NA
ATOM      3  C   UNL     1     -18.100  42.128 -11.216  0.00  0.00    +0.000 A 
ATOM      4  C   UNL     1     -19.050  42.856 -13.669  0.00  0.00    +0.000 A 
ATOM      5  C   UNL     1     -19.148  41.401 -11.756  0.00  0.00    +0.000 A 
ATOM      6  C   UNL     1     -19.627  41.778 -13.006  0.00  0.00    +0.000 A 
ATOM      7  C   UNL     1     -18.006  43.519 -13.043  0.00  0.00    +0.000 A 
ATOM      8  H   UNL     1     -16.855  42.275  -9.565  0.00  0.00    +0.000 HD
ENDROOT
BRANCH   4  11
ATOM      9  O   UNL     1     -20.502  42.722 -15.519  0.00  0.00    +0.000 OA
ATOM     10  N   UNL     1     -18.871  44.333 -15.598  0.00  0.00    +0.000 N 
ATOM     11  C   UNL     1     -19.528  43.275 -14.975  0.00  0.00    +0.000 C 
ATOM     12  H   UNL     1     -18.077  44.836 -15.223  0.00  0.00    +0.000 HD
ATOM     13  H   UNL     1     -19.188  44.650 -16.509  0.00  0.00    +0.000 HD
ENDBRANCH   4  11
BRANCH   1  14
ATOM     14  C   UNL     1     -18.179  40.635  -9.220  0.00  0.00    +0.000 C 
BRANCH  14  15
ATOM     15  C   UNL     1     -19.079  41.167  -8.151  0.00  0.00    +0.000 C 
ATOM     16  C   UNL     1     -20.408  41.021  -8.151  0.00  0.00    +0.000 C 
ENDBRANCH  14  15
ENDBRANCH   1  14
TORSDOF 3
ENDMDL
