MODEL 1
REMARK VINA RESULT:    -5.121      0.000      0.000
REMARK INTER + INTRA:          -5.861
REMARK INTER:                  -5.719
REMARK INTRA:                  -0.142
REMARK UNBOUND:                -0.142
REMARK  Name = 69898147
REMARK  4 active torsions:
REMARK  status: ('A' for Active; 'I' for Inactive)
REMARK    1  A    between atoms: N_4  and  C_7
REMARK    2  A    between atoms: C_8  and  C_13
REMARK    3  A    between atoms: C_9  and  C_15
REMARK    4  A    between atoms: C_10  and  C_16
REMARK                            x       y       z     vdW  Elec       q    Type
REMARK                         _______ _______ _______ _____ _____    ______ ____
ROOT
ATOM      1  N   UNL     1     -18.733  43.394 -11.803  0.00  0.00    +0.000 NA
ATOM      2  C   UNL     1     -18.081  42.232 -11.569  0.00  0.00    +0.000 A 
ATOM      3  C   UNL     1     -16.813  41.945 -12.046  0.00  0.00    +0.000 A 
ATOM      4  C   UNL     1     -16.171  42.910 -12.813  0.00  0.00    +0.000 A 
ATOM      5  C   UNL     1     -16.809  44.119 -13.075  0.00  0.00    +0.000 A 
ATOM      6  C   UNL     1     -18.078  44.309 -12.552  0.00  0.00    +0.000 A 
ENDROOT
BRANCH   2   9
ATOM      7  O   UNL     1     -18.043  42.064  -8.700  0.00  0.00    +0.000 OA
ATOM      8  O   UNL     1     -19.407  38.984 -10.913  0.00  0.00    +0.000 OA
ATOM      9  N   UNL     1     -18.763  41.233 -10.770  0.00  0.00    +0.000 N 
ATOM     10  C   UNL     1     -18.865  41.445  -9.379  0.00  0.00    +0.000 C 
ATOM     11  C   UNL     1     -19.290  40.100 -11.425  0.00  0.00    +0.000 C 
ATOM     12  C   UNL     1     -20.061  40.807  -8.711  0.00  0.00    +0.000 C 
ATOM     13  C   UNL     1     -19.682  40.308 -12.869  0.00  0.00    +0.000 C 
ENDBRANCH   2   9
BRANCH   3  16
ATOM     14  O   UNL     1     -15.535  40.490 -10.705  0.00  0.00    +0.000 OA
ATOM     15  N   UNL     1     -16.202  39.694 -12.750  0.00  0.00    +0.000 N 
ATOM     16  C   UNL     1     -16.136  40.683 -11.775  0.00  0.00    +0.000 C 
ATOM     17  H   UNL     1     -16.697  39.830 -13.625  0.00  0.00    +0.000 HD
ATOM     18  H   UNL     1     -15.752  38.794 -12.611  0.00  0.00    +0.000 HD
ENDBRANCH   3  16
TORSDOF 2
ENDMDL
MODEL 2
REMARK VINA RESULT:    -4.801      6.806      8.633
REMARK INTER + INTRA:          -5.503
REMARK INTER:                  -5.231
REMARK INTRA:                  -0.273
REMARK UNBOUND:                -0.142
REMARK  Name = 69898147
REMARK  4 active torsions:
REMARK  status: ('A' for Active; 'I' for Inactive)
REMARK    1  A    between atoms: N_4  and  C_7
REMARK    2  A    between atoms: C_8  and  C_13
REMARK    3  A    between atoms: C_9  and  C_15
REMARK    4  A    between atoms: C_10  and  C_16
REMARK                            x       y       z     vdW  Elec       q    Type
REMARK                         _______ _______ _______ _____ _____    ______ ____
ROOT
ATOM      1  N   UNL     1     -22.068  46.324 -18.119  0.00  0.00    +0.000 NA
ATOM      2  C   UNL     1     -21.199  45.379 -17.692  0.00  0.00    +0.000 A 
ATOM      3  C   UNL     1     -21.564  44.271 -16.946  0.00  0.00    +0.000 A 
ATOM      4  C   UNL     1     -22.906  44.121 -16.615  0.00  0.00    +0.000 A 
ATOM      5  C   UNL     1     -23.830  45.072 -17.037  0.00  0.00    +0.000 A 
ATOM      6  C   UNL     1     -23.363  46.145 -17.779  0.00  0.00    +0.000 A 
ENDROOT
BRANCH   2   9
ATOM      7  O   UNL     1     -19.900  44.266 -20.002  0.00  0.00    +0.000 OA
ATOM      8  O   UNL     1     -17.730  45.825 -16.984  0.00  0.00    +0.000 OA
ATOM      9  N   UNL     1     -19.802  45.549 -18.042  0.00  0.00    +0.000 N 
ATOM     10  C   UNL     1     -19.386  45.167 -19.334  0.00  0.00    +0.000 C 
ATOM     11  C   UNL     1     -18.932  46.087 -17.072  0.00  0.00    +0.000 C 
ATOM     12  C   UNL     1     -18.191  45.915 -19.879  0.00  0.00    +0.000 C 
ATOM     13  C   UNL     1     -19.574  47.009 -16.062  0.00  0.00    +0.000 C 
ENDBRANCH   2   9
BRANCH   3  16
ATOM     14  O   UNL     1     -20.224  42.359 -17.259  0.00  0.00    +0.000 OA
ATOM     15  N   UNL     1     -20.112  43.376 -15.206  0.00  0.00    +0.000 N 
ATOM     16  C   UNL     1     -20.605  43.268 -16.502  0.00  0.00    +0.000 C 
ATOM     17  H   UNL     1     -20.403  44.118 -14.578  0.00  0.00    +0.000 HD
ATOM     18  H   UNL     1     -19.438  42.707 -14.847  0.00  0.00    +0.000 HD
ENDBRANCH   3  16
TORSDOF 2
ENDMDL
MODEL 3
REMARK VINA RESULT:    -4.792      6.455      8.018
REMARK INTER + INTRA:          -5.494
REMARK INTER:                  -5.081
REMARK INTRA:                  -0.413
REMARK UNBOUND:                -0.142
REMARK  Name = 69898147
REMARK  4 active torsions:
REMARK  status: ('A' for Active; 'I' for Inactive)
REMARK    1  A    between atoms: N_4  and  C_7
REMARK    2  A    between atoms: C_8  and  C_13
REMARK    3  A    between atoms: C_9  and  C_15
REMARK    4  A    between atoms: C_10  and  C_16
REMARK                            x       y       z     vdW  Elec       q    Type
REMARK                         _______ _______ _______ _____ _____    ______ ____
ROOT
ATOM      1  N   UNL     1     -18.677  46.031 -16.451  0.00  0.00    +0.000 NA
ATOM      2  C   UNL     1     -19.649  45.177 -16.843  0.00  0.00    +0.000 A 
ATOM      3  C   UNL     1     -20.054  44.074 -16.110  0.00  0.00    +0.000 A 
ATOM      4  C   UNL     1     -19.421  43.830 -14.897  0.00  0.00    +0.000 A 
ATOM      5  C   UNL     1     -18.416  44.687 -14.460  0.00  0.00    +0.000 A 
ATOM      6  C   UNL     1     -18.084  45.763 -15.267  0.00  0.00    +0.000 A 
ENDROOT
BRANCH   2   9
ATOM      7  O   UNL     1     -22.147  46.556 -17.194  0.00  0.00    +0.000 OA
ATOM      8  O   UNL     1     -20.518  44.467 -20.231  0.00  0.00    +0.000 OA
ATOM      9  N   UNL     1     -20.300  45.442 -18.112  0.00  0.00    +0.000 N 
ATOM     10  C   UNL     1     -21.374  46.356 -18.133  0.00  0.00    +0.000 C 
ATOM     11  C   UNL     1     -19.824  44.773 -19.258  0.00  0.00    +0.000 C 
ATOM     12  C   UNL     1     -21.581  47.083 -19.442  0.00  0.00    +0.000 C 
ATOM     13  C   UNL     1     -18.365  44.383 -19.225  0.00  0.00    +0.000 C 
ENDBRANCH   2   9
BRANCH   3  16
ATOM     14  O   UNL     1     -20.848  42.163 -17.235  0.00  0.00    +0.000 OA
ATOM     15  N   UNL     1     -22.413  43.470 -16.186  0.00  0.00    +0.000 N 
ATOM     16  C   UNL     1     -21.107  43.172 -16.559  0.00  0.00    +0.000 C 
ATOM     17  H   UNL     1     -22.642  44.283 -15.625  0.00  0.00    +0.000 HD
ATOM     18  H   UNL     1     -23.185  42.873 -16.468  0.00  0.00    +0.000 HD
ENDBRANCH   3  16
TORSDOF 2
ENDMDL
MODEL 4
REMARK VINA RESULT:    -4.778      1.835      3.358
REMARK INTER + INTRA:          -5.478
REMARK INTER:                  -5.899
REMARK INTRA:                   0.421
REMARK UNBOUND:                -0.142
REMARK  Name = 69898147
REMARK  4 active torsions:
REMARK  status: ('A' for Active; 'I' for Inactive)
REMARK    1  A    between atoms: N_4  and  C_7
REMARK    2  A    between atoms: C_8  and  C_13
REMARK    3  A    between atoms: C_9  and  C_15
REMARK    4  A    between atoms: C_10  and  C_16
REMARK                            x       y       z     vdW  Elec       q    Type
REMARK                         _______ _______ _______ _____ _____    ______ ____
ROOT
ATOM      1  N   UNL     1     -17.183  43.732 -10.983  0.00  0.00    +0.000 NA
ATOM      2  C   UNL     1     -17.873  42.852 -11.743  0.00  0.00    +0.000 A 
ATOM      3  C   UNL     1     -18.738  43.219 -12.762  0.00  0.00    +0.000 A 
ATOM      4  C   UNL     1     -18.905  44.576 -13.017  0.00  0.00    +0.000 A 
ATOM      5  C   UNL     1     -18.211  45.511 -12.256  0.00  0.00    +0.000 A 
ATOM      6  C   UNL     1     -17.371  45.041 -11.260  0.00  0.00    +0.000 A 
ENDROOT
BRANCH   2   9
ATOM      7  O   UNL     1     -16.641  40.940 -13.500  0.00  0.00    +0.000 OA
ATOM      8  O   UNL     1     -18.757  39.712 -10.297  0.00  0.00    +0.000 OA
ATOM      9  N   UNL     1     -17.691  41.441 -11.465  0.00  0.00    +0.000 N 
ATOM     10  C   UNL     1     -16.836  40.699 -12.306  0.00  0.00    +0.000 C 
ATOM     11  C   UNL     1     -18.378  40.883 -10.367  0.00  0.00    +0.000 C 
ATOM     12  C   UNL     1     -16.171  39.503 -11.664  0.00  0.00    +0.000 C 
ATOM     13  C   UNL     1     -18.690  41.841  -9.240  0.00  0.00    +0.000 C 
ENDBRANCH   2   9
BRANCH   3  16
ATOM     14  O   UNL     1     -20.279  41.462 -13.049  0.00  0.00    +0.000 OA
ATOM     15  N   UNL     1     -19.237  42.242 -14.937  0.00  0.00    +0.000 N 
ATOM     16  C   UNL     1     -19.467  42.247 -13.566  0.00  0.00    +0.000 C 
ATOM     17  H   UNL     1     -18.586  42.883 -15.378  0.00  0.00    +0.000 HD
ATOM     18  H   UNL     1     -19.722  41.588 -15.544  0.00  0.00    +0.000 HD
ENDBRANCH   3  16
TORSDOF 2
ENDMDL
MODEL 5
REMARK VINA RESULT:    -4.695     21.372     23.348
REMARK INTER + INTRA:          -5.385
REMARK INTER:                  -4.977
REMARK INTRA:                  -0.408
REMARK UNBOUND:                -0.142
REMARK  Name = 69898147
REMARK  4 active torsions:
REMARK  status: ('A' for Active; 'I' for Inactive)
REMARK    1  A    between atoms: N_4  and  C_7
REMARK    2  A    between atoms: C_8  and  C_13
REMARK    3  A    between atoms: C_9  and  C_15
REMARK    4  A    between atoms: C_10  and  C_16
REMARK                            x       y       z     vdW  Elec       q    Type
REMARK                         _______ _______ _______ _____ _____    ______ ____
ROOT
ATOM      1  N   UNL     1     -22.791  27.518   8.635  0.00  0.00    +0.000 NA
ATOM      2  C   UNL     1     -22.981  28.041   7.403  0.00  0.00    +0.000 A 
ATOM      3  C   UNL     1     -22.064  27.944   6.369  0.00  0.00    +0.000 A 
ATOM      4  C   UNL     1     -20.875  27.267   6.615  0.00  0.00    +0.000 A 
ATOM      5  C   UNL     1     -20.644  26.714   7.870  0.00  0.00    +0.000 A 
ATOM      6  C   UNL     1     -21.624  26.867   8.837  0.00  0.00    +0.000 A 
ENDROOT
BRANCH   2   9
ATOM      7  O   UNL     1     -25.297  26.959   6.089  0.00  0.00    +0.000 OA
ATOM      8  O   UNL     1     -24.973  30.925   6.730  0.00  0.00    +0.000 OA
ATOM      9  N   UNL     1     -24.225  28.747   7.161  0.00  0.00    +0.000 N 
ATOM     10  C   UNL     1     -25.348  27.999   6.749  0.00  0.00    +0.000 C 
ATOM     11  C   UNL     1     -24.247  30.144   7.350  0.00  0.00    +0.000 C 
ATOM     12  C   UNL     1     -26.690  28.581   7.130  0.00  0.00    +0.000 C 
ATOM     13  C   UNL     1     -23.260  30.679   8.361  0.00  0.00    +0.000 C 
ENDBRANCH   2   9
BRANCH   3  16
ATOM     14  O   UNL     1     -21.937  29.674   4.776  0.00  0.00    +0.000 OA
ATOM     15  N   UNL     1     -22.925  27.717   4.101  0.00  0.00    +0.000 N 
ATOM     16  C   UNL     1     -22.299  28.517   5.050  0.00  0.00    +0.000 C 
ATOM     17  H   UNL     1     -23.217  26.767   4.304  0.00  0.00    +0.000 HD
ATOM     18  H   UNL     1     -23.109  28.065   3.165  0.00  0.00    +0.000 HD
ENDBRANCH   3  16
TORSDOF 2
ENDMDL
