MODEL 1
REMARK VINA RESULT:    -6.196      0.000      0.000
REMARK INTER + INTRA:          -7.217
REMARK INTER:                  -6.920
REMARK INTRA:                  -0.296
REMARK UNBOUND:                -0.296
REMARK  Name = 70171720
REMARK  2 active torsions:
REMARK  status: ('A' for Active; 'I' for Inactive)
REMARK    1  A    between atoms: C_7  and  C_11
REMARK    2  A    between atoms: C_8  and  C_13
REMARK                            x       y       z     vdW  Elec       q    Type
REMARK                         _______ _______ _______ _____ _____    ______ ____
ROOT
ATOM      1  N   UNL     1     -19.595  39.708  -9.537  0.00  0.00    +0.000 NA
ATOM      2  N   UNL     1     -19.651  38.732 -11.696  0.00  0.00    +0.000 N 
ATOM      3  C   UNL     1     -18.397  40.757 -11.356  0.00  0.00    +0.000 A 
ATOM      4  C   UNL     1     -17.964  41.764 -10.499  0.00  0.00    +0.000 A 
ATOM      5  C   UNL     1     -19.204  39.761 -10.830  0.00  0.00    +0.000 A 
ATOM      6  C   UNL     1     -18.346  41.743  -9.162  0.00  0.00    +0.000 A 
ATOM      7  C   UNL     1     -19.155  40.702  -8.735  0.00  0.00    +0.000 A 
ATOM      8  H   UNL     1     -19.805  38.952 -12.672  0.00  0.00    +0.000 HD
ATOM      9  H   UNL     1     -20.234  38.015 -11.280  0.00  0.00    +0.000 HD
ENDROOT
BRANCH   3  12
ATOM     10  O   UNL     1     -18.736  41.270 -13.629  0.00  0.00    +0.000 OA
ATOM     11  N   UNL     1     -16.784  40.191 -13.093  0.00  0.00    +0.000 N 
ATOM     12  C   UNL     1     -18.008  40.761 -12.762  0.00  0.00    +0.000 C 
ATOM     13  H   UNL     1     -16.177  39.778 -12.393  0.00  0.00    +0.000 HD
ATOM     14  H   UNL     1     -16.460  40.171 -14.054  0.00  0.00    +0.000 HD
ENDBRANCH   3  12
BRANCH   4  17
ATOM     15  O   UNL     1     -17.595  43.902 -11.415  0.00  0.00    +0.000 OA
ATOM     16  N   UNL     1     -15.735  42.672 -10.880  0.00  0.00    +0.000 N 
ATOM     17  C   UNL     1     -17.112  42.849 -10.967  0.00  0.00    +0.000 C 
ATOM     18  H   UNL     1     -15.323  41.822 -10.508  0.00  0.00    +0.000 HD
ATOM     19  H   UNL     1     -15.096  43.399 -11.185  0.00  0.00    +0.000 HD
ENDBRANCH   4  17
TORSDOF 2
ENDMDL
MODEL 2
REMARK VINA RESULT:    -5.759      1.544      2.303
REMARK INTER + INTRA:          -6.729
REMARK INTER:                  -6.378
REMARK INTRA:                  -0.350
REMARK UNBOUND:                -0.296
REMARK  Name = 70171720
REMARK  2 active torsions:
REMARK  status: ('A' for Active; 'I' for Inactive)
REMARK    1  A    between atoms: C_7  and  C_11
REMARK    2  A    between atoms: C_8  and  C_13
REMARK                            x       y       z     vdW  Elec       q    Type
REMARK                         _______ _______ _______ _____ _____    ______ ____
ROOT
ATOM      1  N   UNL     1     -19.131  41.697  -8.479  0.00  0.00    +0.000 NA
ATOM      2  N   UNL     1     -20.505  39.853  -9.049  0.00  0.00    +0.000 N 
ATOM      3  C   UNL     1     -19.028  40.775 -10.711  0.00  0.00    +0.000 A 
ATOM      4  C   UNL     1     -18.067  41.716 -11.063  0.00  0.00    +0.000 A 
ATOM      5  C   UNL     1     -19.524  40.808  -9.418  0.00  0.00    +0.000 A 
ATOM      6  C   UNL     1     -17.637  42.648 -10.125  0.00  0.00    +0.000 A 
ATOM      7  C   UNL     1     -18.195  42.595  -8.858  0.00  0.00    +0.000 A 
ATOM      8  H   UNL     1     -21.148  39.520  -9.758  0.00  0.00    +0.000 HD
ATOM      9  H   UNL     1     -20.843  39.899  -8.095  0.00  0.00    +0.000 HD
ENDROOT
BRANCH   3  12
ATOM     10  O   UNL     1     -19.263  38.579 -11.530  0.00  0.00    +0.000 OA
ATOM     11  N   UNL     1     -20.219  40.253 -12.772  0.00  0.00    +0.000 N 
ATOM     12  C   UNL     1     -19.493  39.789 -11.682  0.00  0.00    +0.000 C 
ATOM     13  H   UNL     1     -20.420  41.239 -12.905  0.00  0.00    +0.000 HD
ATOM     14  H   UNL     1     -20.572  39.612 -13.475  0.00  0.00    +0.000 HD
ENDBRANCH   3  12
BRANCH   4  17
ATOM     15  O   UNL     1     -18.021  42.407 -13.315  0.00  0.00    +0.000 OA
ATOM     16  N   UNL     1     -16.314  41.044 -12.617  0.00  0.00    +0.000 N 
ATOM     17  C   UNL     1     -17.491  41.753 -12.401  0.00  0.00    +0.000 C 
ATOM     18  H   UNL     1     -15.862  40.512 -11.880  0.00  0.00    +0.000 HD
ATOM     19  H   UNL     1     -15.866  41.041 -13.528  0.00  0.00    +0.000 HD
ENDBRANCH   4  17
TORSDOF 2
ENDMDL
MODEL 3
REMARK VINA RESULT:    -5.535      2.436      3.814
REMARK INTER + INTRA:          -6.478
REMARK INTER:                  -6.223
REMARK INTRA:                  -0.255
REMARK UNBOUND:                -0.296
REMARK  Name = 70171720
REMARK  2 active torsions:
REMARK  status: ('A' for Active; 'I' for Inactive)
REMARK    1  A    between atoms: C_7  and  C_11
REMARK    2  A    between atoms: C_8  and  C_13
REMARK                            x       y       z     vdW  Elec       q    Type
REMARK                         _______ _______ _______ _____ _____    ______ ____
ROOT
ATOM      1  N   UNL     1     -15.665  43.100 -11.311  0.00  0.00    +0.000 NA
ATOM      2  N   UNL     1     -15.121  40.804 -11.095  0.00  0.00    +0.000 N 
ATOM      3  C   UNL     1     -17.101  41.432 -12.311  0.00  0.00    +0.000 A 
ATOM      4  C   UNL     1     -17.943  42.432 -12.787  0.00  0.00    +0.000 A 
ATOM      5  C   UNL     1     -15.985  41.816 -11.585  0.00  0.00    +0.000 A 
ATOM      6  C   UNL     1     -17.647  43.765 -12.525  0.00  0.00    +0.000 A 
ATOM      7  C   UNL     1     -16.506  44.043 -11.790  0.00  0.00    +0.000 A 
ATOM      8  H   UNL     1     -15.518  39.905 -10.849  0.00  0.00    +0.000 HD
ATOM      9  H   UNL     1     -14.311  41.117 -10.573  0.00  0.00    +0.000 HD
ENDROOT
BRANCH   3  12
ATOM     10  O   UNL     1     -16.929  39.449 -13.570  0.00  0.00    +0.000 OA
ATOM     11  N   UNL     1     -18.197  39.355 -11.661  0.00  0.00    +0.000 N 
ATOM     12  C   UNL     1     -17.394  40.027 -12.574  0.00  0.00    +0.000 C 
ATOM     13  H   UNL     1     -18.579  39.814 -10.840  0.00  0.00    +0.000 HD
ATOM     14  H   UNL     1     -18.428  38.376 -11.790  0.00  0.00    +0.000 HD
ENDBRANCH   3  12
BRANCH   4  17
ATOM     15  O   UNL     1     -20.056  41.433 -13.080  0.00  0.00    +0.000 OA
ATOM     16  N   UNL     1     -19.222  42.628 -14.851  0.00  0.00    +0.000 N 
ATOM     17  C   UNL     1     -19.138  42.118 -13.560  0.00  0.00    +0.000 C 
ATOM     18  H   UNL     1     -18.485  43.197 -15.256  0.00  0.00    +0.000 HD
ATOM     19  H   UNL     1     -20.035  42.446 -15.431  0.00  0.00    +0.000 HD
ENDBRANCH   4  17
TORSDOF 2
ENDMDL
MODEL 4
REMARK VINA RESULT:    -5.470      2.237      2.984
REMARK INTER + INTRA:          -6.406
REMARK INTER:                  -6.032
REMARK INTRA:                  -0.374
REMARK UNBOUND:                -0.296
REMARK  Name = 70171720
REMARK  2 active torsions:
REMARK  status: ('A' for Active; 'I' for Inactive)
REMARK    1  A    between atoms: C_7  and  C_11
REMARK    2  A    between atoms: C_8  and  C_13
REMARK                            x       y       z     vdW  Elec       q    Type
REMARK                         _______ _______ _______ _____ _____    ______ ____
ROOT
ATOM      1  N   UNL     1     -19.884  41.574 -13.538  0.00  0.00    +0.000 NA
ATOM      2  N   UNL     1     -19.620  39.503 -12.418  0.00  0.00    +0.000 N 
ATOM      3  C   UNL     1     -17.931  41.198 -12.163  0.00  0.00    +0.000 A 
ATOM      4  C   UNL     1     -17.464  42.473 -12.466  0.00  0.00    +0.000 A 
ATOM      5  C   UNL     1     -19.136  40.800 -12.720  0.00  0.00    +0.000 A 
ATOM      6  C   UNL     1     -18.205  43.298 -13.305  0.00  0.00    +0.000 A 
ATOM      7  C   UNL     1     -19.398  42.805 -13.809  0.00  0.00    +0.000 A 
ATOM      8  H   UNL     1     -18.950  38.763 -12.246  0.00  0.00    +0.000 HD
ATOM      9  H   UNL     1     -20.506  39.243 -12.835  0.00  0.00    +0.000 HD
ENDROOT
BRANCH   3  12
ATOM     10  O   UNL     1     -16.370  39.484 -11.747  0.00  0.00    +0.000 OA
ATOM     11  N   UNL     1     -17.352  40.456  -9.915  0.00  0.00    +0.000 N 
ATOM     12  C   UNL     1     -17.168  40.317 -11.286  0.00  0.00    +0.000 C 
ATOM     13  H   UNL     1     -17.996  41.136  -9.525  0.00  0.00    +0.000 HD
ATOM     14  H   UNL     1     -16.843  39.874  -9.258  0.00  0.00    +0.000 HD
ENDBRANCH   3  12
BRANCH   4  17
ATOM     15  O   UNL     1     -16.099  43.284 -10.726  0.00  0.00    +0.000 OA
ATOM     16  N   UNL     1     -15.125  43.074 -12.792  0.00  0.00    +0.000 N 
ATOM     17  C   UNL     1     -16.207  42.973 -11.924  0.00  0.00    +0.000 C 
ATOM     18  H   UNL     1     -15.194  42.815 -13.771  0.00  0.00    +0.000 HD
ATOM     19  H   UNL     1     -14.225  43.410 -12.466  0.00  0.00    +0.000 HD
ENDBRANCH   4  17
TORSDOF 2
ENDMDL
MODEL 5
REMARK VINA RESULT:    -5.464      2.203      4.247
REMARK INTER + INTRA:          -6.399
REMARK INTER:                  -6.000
REMARK INTRA:                  -0.399
REMARK UNBOUND:                -0.296
REMARK  Name = 70171720
REMARK  2 active torsions:
REMARK  status: ('A' for Active; 'I' for Inactive)
REMARK    1  A    between atoms: C_7  and  C_11
REMARK    2  A    between atoms: C_8  and  C_13
REMARK                            x       y       z     vdW  Elec       q    Type
REMARK                         _______ _______ _______ _____ _____    ______ ____
ROOT
ATOM      1  N   UNL     1     -17.587  43.703 -13.500  0.00  0.00    +0.000 NA
ATOM      2  N   UNL     1     -15.490  42.940 -12.704  0.00  0.00    +0.000 N 
ATOM      3  C   UNL     1     -17.438  41.564 -12.382  0.00  0.00    +0.000 A 
ATOM      4  C   UNL     1     -18.806  41.373 -12.550  0.00  0.00    +0.000 A 
ATOM      5  C   UNL     1     -16.882  42.736 -12.871  0.00  0.00    +0.000 A 
ATOM      6  C   UNL     1     -19.564  42.346 -13.192  0.00  0.00    +0.000 A 
ATOM      7  C   UNL     1     -18.913  43.482 -13.645  0.00  0.00    +0.000 A 
ATOM      8  H   UNL     1     -15.036  42.545 -11.889  0.00  0.00    +0.000 HD
ATOM      9  H   UNL     1     -15.113  43.803 -13.077  0.00  0.00    +0.000 HD
ENDROOT
BRANCH   3  12
ATOM     10  O   UNL     1     -16.283  40.691 -10.525  0.00  0.00    +0.000 OA
ATOM     11  N   UNL     1     -16.262  39.431 -12.441  0.00  0.00    +0.000 N 
ATOM     12  C   UNL     1     -16.625  40.556 -11.711  0.00  0.00    +0.000 C 
ATOM     13  H   UNL     1     -16.540  39.304 -13.408  0.00  0.00    +0.000 HD
ATOM     14  H   UNL     1     -15.703  38.695 -12.023  0.00  0.00    +0.000 HD
ENDBRANCH   3  12
BRANCH   4  17
ATOM     15  O   UNL     1     -19.582  39.162 -12.783  0.00  0.00    +0.000 OA
ATOM     16  N   UNL     1     -19.968  40.186 -10.768  0.00  0.00    +0.000 N 
ATOM     17  C   UNL     1     -19.472  40.171 -12.068  0.00  0.00    +0.000 C 
ATOM     18  H   UNL     1     -19.879  40.999 -10.166  0.00  0.00    +0.000 HD
ATOM     19  H   UNL     1     -20.436  39.374 -10.379  0.00  0.00    +0.000 HD
ENDBRANCH   4  17
TORSDOF 2
ENDMDL
