MODEL 1
REMARK VINA RESULT:    -6.475      0.000      0.000
REMARK INTER + INTRA:          -6.475
REMARK INTER:                  -6.475
REMARK INTRA:                   0.000
REMARK UNBOUND:                 0.000
REMARK  Name = 70538737
REMARK  0 active torsions:
REMARK  status: ('A' for Active; 'I' for Inactive)
REMARK                            x       y       z     vdW  Elec       q    Type
REMARK                         _______ _______ _______ _____ _____    ______ ____
ROOT
ATOM      1  S   UNL     1     -16.454  40.510 -11.516  0.00  0.00    +0.000 S 
ATOM      2  O   UNL     1     -19.727  38.493 -11.617  0.00  0.00    +0.000 OA
ATOM      3  N   UNL     1     -16.969  41.310 -10.182  0.00  0.00    +0.000 N 
ATOM      4  N   UNL     1     -17.680  39.441 -11.933  0.00  0.00    +0.000 N 
ATOM      5  N   UNL     1     -18.484  41.832  -8.469  0.00  0.00    +0.000 NA
ATOM      6  C   UNL     1     -19.122  40.143 -10.053  0.00  0.00    +0.000 A 
ATOM      7  C   UNL     1     -18.206  41.084  -9.571  0.00  0.00    +0.000 A 
ATOM      8  C   UNL     1     -18.872  39.299 -11.253  0.00  0.00    +0.000 C 
ATOM      9  C   UNL     1     -20.341  39.982  -9.377  0.00  0.00    +0.000 A 
ATOM     10  C   UNL     1     -20.621  40.745  -8.254  0.00  0.00    +0.000 A 
ATOM     11  C   UNL     1     -19.667  41.650  -7.843  0.00  0.00    +0.000 A 
ATOM     12  H   UNL     1     -16.390  42.018  -9.743  0.00  0.00    +0.000 HD
ATOM     13  H   UNL     1     -17.527  38.858 -12.750  0.00  0.00    +0.000 HD
ENDROOT
TORSDOF 0
ENDMDL
MODEL 2
REMARK VINA RESULT:    -5.753      2.262      2.770
REMARK INTER + INTRA:          -5.753
REMARK INTER:                  -5.753
REMARK INTRA:                   0.000
REMARK UNBOUND:                 0.000
REMARK  Name = 70538737
REMARK  0 active torsions:
REMARK  status: ('A' for Active; 'I' for Inactive)
REMARK                            x       y       z     vdW  Elec       q    Type
REMARK                         _______ _______ _______ _____ _____    ______ ____
ROOT
ATOM      1  S   UNL     1     -17.222  39.883 -12.856  0.00  0.00    +0.000 S 
ATOM      2  O   UNL     1     -16.425  43.047 -10.820  0.00  0.00    +0.000 OA
ATOM      3  N   UNL     1     -18.317  39.414 -11.730  0.00  0.00    +0.000 N 
ATOM      4  N   UNL     1     -16.581  41.338 -12.319  0.00  0.00    +0.000 N 
ATOM      5  N   UNL     1     -19.540  39.621  -9.738  0.00  0.00    +0.000 NA
ATOM      6  C   UNL     1     -17.969  41.357 -10.274  0.00  0.00    +0.000 A 
ATOM      7  C   UNL     1     -18.603  40.147 -10.574  0.00  0.00    +0.000 A 
ATOM      8  C   UNL     1     -16.938  41.979 -11.150  0.00  0.00    +0.000 C 
ATOM      9  C   UNL     1     -18.317  42.026  -9.092  0.00  0.00    +0.000 A 
ATOM     10  C   UNL     1     -19.273  41.488  -8.242  0.00  0.00    +0.000 A 
ATOM     11  C   UNL     1     -19.850  40.292  -8.608  0.00  0.00    +0.000 A 
ATOM     12  H   UNL     1     -18.839  38.551 -11.838  0.00  0.00    +0.000 HD
ATOM     13  H   UNL     1     -15.875  41.776 -12.903  0.00  0.00    +0.000 HD
ENDROOT
TORSDOF 0
ENDMDL
MODEL 3
REMARK VINA RESULT:    -5.750      2.578      3.233
REMARK INTER + INTRA:          -5.750
REMARK INTER:                  -5.750
REMARK INTRA:                   0.000
REMARK UNBOUND:                 0.000
REMARK  Name = 70538737
REMARK  0 active torsions:
REMARK  status: ('A' for Active; 'I' for Inactive)
REMARK                            x       y       z     vdW  Elec       q    Type
REMARK                         _______ _______ _______ _____ _____    ______ ____
ROOT
ATOM      1  S   UNL     1     -18.977  39.765 -10.827  0.00  0.00    +0.000 S 
ATOM      2  O   UNL     1     -17.746  42.723  -8.700  0.00  0.00    +0.000 OA
ATOM      3  N   UNL     1     -20.342  39.664  -9.926  0.00  0.00    +0.000 N 
ATOM      4  N   UNL     1     -18.079  41.032 -10.189  0.00  0.00    +0.000 N 
ATOM      5  N   UNL     1     -21.803  40.295  -8.203  0.00  0.00    +0.000 NA
ATOM      6  C   UNL     1     -19.757  41.529  -8.445  0.00  0.00    +0.000 A 
ATOM      7  C   UNL     1     -20.625  40.510  -8.850  0.00  0.00    +0.000 A 
ATOM      8  C   UNL     1     -18.457  41.809  -9.114  0.00  0.00    +0.000 C 
ATOM      9  C   UNL     1     -20.122  42.332  -7.354  0.00  0.00    +0.000 A 
ATOM     10  C   UNL     1     -21.323  42.111  -6.697  0.00  0.00    +0.000 A 
ATOM     11  C   UNL     1     -22.122  41.087  -7.156  0.00  0.00    +0.000 A 
ATOM     12  H   UNL     1     -21.047  38.961 -10.124  0.00  0.00    +0.000 HD
ATOM     13  H   UNL     1     -17.188  41.237 -10.633  0.00  0.00    +0.000 HD
ENDROOT
TORSDOF 0
ENDMDL
MODEL 4
REMARK VINA RESULT:    -5.633      1.526      1.573
REMARK INTER + INTRA:          -5.633
REMARK INTER:                  -5.633
REMARK INTRA:                   0.000
REMARK UNBOUND:                 0.000
REMARK  Name = 70538737
REMARK  0 active torsions:
REMARK  status: ('A' for Active; 'I' for Inactive)
REMARK                            x       y       z     vdW  Elec       q    Type
REMARK                         _______ _______ _______ _____ _____    ______ ____
ROOT
ATOM      1  S   UNL     1     -17.007  42.728 -12.619  0.00  0.00    +0.000 S 
ATOM      2  O   UNL     1     -19.219  39.590 -12.843  0.00  0.00    +0.000 OA
ATOM      3  N   UNL     1     -17.294  42.835 -11.009  0.00  0.00    +0.000 N 
ATOM      4  N   UNL     1     -17.853  41.384 -13.164  0.00  0.00    +0.000 N 
ATOM      5  N   UNL     1     -18.237  42.165  -8.969  0.00  0.00    +0.000 NA
ATOM      6  C   UNL     1     -18.740  40.857 -10.919  0.00  0.00    +0.000 A 
ATOM      7  C   UNL     1     -18.100  41.938 -10.303  0.00  0.00    +0.000 A 
ATOM      8  C   UNL     1     -18.626  40.560 -12.373  0.00  0.00    +0.000 C 
ATOM      9  C   UNL     1     -19.531  40.006 -10.133  0.00  0.00    +0.000 A 
ATOM     10  C   UNL     1     -19.669  40.240  -8.773  0.00  0.00    +0.000 A 
ATOM     11  C   UNL     1     -19.006  41.325  -8.243  0.00  0.00    +0.000 A 
ATOM     12  H   UNL     1     -16.883  43.580 -10.455  0.00  0.00    +0.000 HD
ATOM     13  H   UNL     1     -17.788  41.167 -14.154  0.00  0.00    +0.000 HD
ENDROOT
TORSDOF 0
ENDMDL
MODEL 5
REMARK VINA RESULT:    -5.137      3.812      4.643
REMARK INTER + INTRA:          -5.137
REMARK INTER:                  -5.137
REMARK INTRA:                   0.000
REMARK UNBOUND:                 0.000
REMARK  Name = 70538737
REMARK  0 active torsions:
REMARK  status: ('A' for Active; 'I' for Inactive)
REMARK                            x       y       z     vdW  Elec       q    Type
REMARK                         _______ _______ _______ _____ _____    ______ ____
ROOT
ATOM      1  S   UNL     1     -19.120  43.723 -14.569  0.00  0.00    +0.000 S 
ATOM      2  O   UNL     1     -15.797  43.224 -12.698  0.00  0.00    +0.000 OA
ATOM      3  N   UNL     1     -19.699  42.322 -13.947  0.00  0.00    +0.000 N 
ATOM      4  N   UNL     1     -17.566  43.906 -13.960  0.00  0.00    +0.000 N 
ATOM      5  N   UNL     1     -19.598  40.367 -12.654  0.00  0.00    +0.000 NA
ATOM      6  C   UNL     1     -17.672  41.802 -12.669  0.00  0.00    +0.000 A 
ATOM      7  C   UNL     1     -18.973  41.498 -13.082  0.00  0.00    +0.000 A 
ATOM      8  C   UNL     1     -16.941  43.023 -13.105  0.00  0.00    +0.000 C 
ATOM      9  C   UNL     1     -17.017  40.918 -11.799  0.00  0.00    +0.000 A 
ATOM     10  C   UNL     1     -17.656  39.767 -11.363  0.00  0.00    +0.000 A 
ATOM     11  C   UNL     1     -18.937  39.539 -11.817  0.00  0.00    +0.000 A 
ATOM     12  H   UNL     1     -20.633  41.996 -14.177  0.00  0.00    +0.000 HD
ATOM     13  H   UNL     1     -17.051  44.733 -14.248  0.00  0.00    +0.000 HD
ENDROOT
TORSDOF 0
ENDMDL
