MODEL 1
REMARK VINA RESULT:    -6.942      0.000      0.000
REMARK INTER + INTRA:          -7.492
REMARK INTER:                  -7.348
REMARK INTRA:                  -0.144
REMARK UNBOUND:                -0.144
REMARK  Name = 7060847
REMARK  1 active torsions:
REMARK  status: ('A' for Active; 'I' for Inactive)
REMARK    1  A    between atoms: C_11  and  C_12
REMARK                            x       y       z     vdW  Elec       q    Type
REMARK                         _______ _______ _______ _____ _____    ______ ____
ROOT
ATOM      1  O   UNL     1     -20.441  39.476  -9.054  0.00  0.00    +0.000 OA
ATOM      2  N   UNL     1     -19.145  39.932 -11.246  0.00  0.00    +0.000 NA
ATOM      3  N   UNL     1     -19.820  41.584  -9.810  0.00  0.00    +0.000 N 
ATOM      4  C   UNL     1     -16.542  41.159 -12.737  0.00  0.00    +0.000 C 
ATOM      5  C   UNL     1     -17.088  42.226 -11.789  0.00  0.00    +0.000 C 
ATOM      6  C   UNL     1     -16.971  39.731 -12.399  0.00  0.00    +0.000 C 
ATOM      7  C   UNL     1     -18.610  42.303 -11.789  0.00  0.00    +0.000 C 
ATOM      8  C   UNL     1     -18.479  39.515 -12.477  0.00  0.00    +0.000 C 
ATOM      9  C   UNL     1     -19.199  41.184 -10.964  0.00  0.00    +0.000 C 
ATOM     10  C   UNL     1     -20.405  40.697  -8.922  0.00  0.00    +0.000 C 
ATOM     11  H   UNL     1     -19.876  42.583  -9.632  0.00  0.00    +0.000 HD
ENDROOT
BRANCH  10  13
ATOM     12  N   UNL     1     -22.965  41.932  -6.498  0.00  0.00    +0.000 NA
ATOM     13  C   UNL     1     -21.000  41.313  -7.707  0.00  0.00    +0.000 A 
ATOM     14  C   UNL     1     -20.182  41.807  -6.721  0.00  0.00    +0.000 A 
ATOM     15  C   UNL     1     -22.360  41.385  -7.577  0.00  0.00    +0.000 A 
ATOM     16  C   UNL     1     -20.767  42.377  -5.597  0.00  0.00    +0.000 A 
ATOM     17  C   UNL     1     -22.150  42.416  -5.534  0.00  0.00    +0.000 A 
ENDBRANCH  10  13
TORSDOF 1
ENDMDL
MODEL 2
REMARK VINA RESULT:    -6.399      4.789      6.915
REMARK INTER + INTRA:          -6.917
REMARK INTER:                  -6.765
REMARK INTRA:                  -0.152
REMARK UNBOUND:                -0.144
REMARK  Name = 7060847
REMARK  1 active torsions:
REMARK  status: ('A' for Active; 'I' for Inactive)
REMARK    1  A    between atoms: C_11  and  C_12
REMARK                            x       y       z     vdW  Elec       q    Type
REMARK                         _______ _______ _______ _____ _____    ______ ____
ROOT
ATOM      1  O   UNL     1     -18.026  43.844 -13.935  0.00  0.00    +0.000 OA
ATOM      2  N   UNL     1     -19.335  44.578 -16.042  0.00  0.00    +0.000 NA
ATOM      3  N   UNL     1     -19.608  42.541 -15.029  0.00  0.00    +0.000 N 
ATOM      4  C   UNL     1     -22.175  45.154 -17.493  0.00  0.00    +0.000 C 
ATOM      5  C   UNL     1     -22.256  43.780 -16.830  0.00  0.00    +0.000 C 
ATOM      6  C   UNL     1     -21.093  46.071 -16.922  0.00  0.00    +0.000 C 
ATOM      7  C   UNL     1     -20.979  42.963 -16.988  0.00  0.00    +0.000 C 
ATOM      8  C   UNL     1     -19.680  45.525 -17.098  0.00  0.00    +0.000 C 
ATOM      9  C   UNL     1     -19.923  43.435 -16.018  0.00  0.00    +0.000 C 
ATOM     10  C   UNL     1     -18.672  42.806 -14.043  0.00  0.00    +0.000 C 
ATOM     11  H   UNL     1     -20.065  41.634 -15.057  0.00  0.00    +0.000 HD
ENDROOT
BRANCH  10  13
ATOM     12  N   UNL     1     -17.011  40.217 -11.924  0.00  0.00    +0.000 NA
ATOM     13  C   UNL     1     -18.490  41.730 -13.034  0.00  0.00    +0.000 A 
ATOM     14  C   UNL     1     -19.569  41.274 -12.318  0.00  0.00    +0.000 A 
ATOM     15  C   UNL     1     -17.247  41.197 -12.825  0.00  0.00    +0.000 A 
ATOM     16  C   UNL     1     -19.367  40.266 -11.382  0.00  0.00    +0.000 A 
ATOM     17  C   UNL     1     -18.081  39.775 -11.224  0.00  0.00    +0.000 A 
ENDBRANCH  10  13
TORSDOF 1
ENDMDL
MODEL 3
REMARK VINA RESULT:    -6.364      3.634      6.560
REMARK INTER + INTRA:          -6.880
REMARK INTER:                  -6.699
REMARK INTRA:                  -0.181
REMARK UNBOUND:                -0.144
REMARK  Name = 7060847
REMARK  1 active torsions:
REMARK  status: ('A' for Active; 'I' for Inactive)
REMARK    1  A    between atoms: C_11  and  C_12
REMARK                            x       y       z     vdW  Elec       q    Type
REMARK                         _______ _______ _______ _____ _____    ______ ____
ROOT
ATOM      1  O   UNL     1     -19.930  41.902 -13.910  0.00  0.00    +0.000 OA
ATOM      2  N   UNL     1     -19.167  40.751 -11.723  0.00  0.00    +0.000 NA
ATOM      3  N   UNL     1     -18.400  42.799 -12.407  0.00  0.00    +0.000 N 
ATOM      4  C   UNL     1     -18.891  40.814  -8.494  0.00  0.00    +0.000 C 
ATOM      5  C   UNL     1     -18.350  42.135  -9.038  0.00  0.00    +0.000 C 
ATOM      6  C   UNL     1     -19.834  40.076  -9.444  0.00  0.00    +0.000 C 
ATOM      7  C   UNL     1     -17.518  41.965 -10.304  0.00  0.00    +0.000 C 
ATOM      8  C   UNL     1     -19.174  39.659 -10.754  0.00  0.00    +0.000 C 
ATOM      9  C   UNL     1     -18.412  41.768 -11.505  0.00  0.00    +0.000 C 
ATOM     10  C   UNL     1     -19.167  42.800 -13.561  0.00  0.00    +0.000 C 
ATOM     11  H   UNL     1     -17.768  43.573 -12.224  0.00  0.00    +0.000 HD
ENDROOT
BRANCH  10  13
ATOM     12  N   UNL     1     -19.481  45.097 -16.490  0.00  0.00    +0.000 NA
ATOM     13  C   UNL     1     -19.050  44.020 -14.401  0.00  0.00    +0.000 A 
ATOM     14  C   UNL     1     -18.436  45.140 -13.897  0.00  0.00    +0.000 A 
ATOM     15  C   UNL     1     -19.554  44.021 -15.673  0.00  0.00    +0.000 A 
ATOM     16  C   UNL     1     -18.342  46.267 -14.707  0.00  0.00    +0.000 A 
ATOM     17  C   UNL     1     -18.875  46.194 -15.983  0.00  0.00    +0.000 A 
ENDBRANCH  10  13
TORSDOF 1
ENDMDL
MODEL 4
REMARK VINA RESULT:    -6.084      4.785      7.615
REMARK INTER + INTRA:          -6.585
REMARK INTER:                  -6.405
REMARK INTRA:                  -0.179
REMARK UNBOUND:                -0.144
REMARK  Name = 7060847
REMARK  1 active torsions:
REMARK  status: ('A' for Active; 'I' for Inactive)
REMARK    1  A    between atoms: C_11  and  C_12
REMARK                            x       y       z     vdW  Elec       q    Type
REMARK                         _______ _______ _______ _____ _____    ______ ____
ROOT
ATOM      1  O   UNL     1     -18.483  44.422 -14.434  0.00  0.00    +0.000 OA
ATOM      2  N   UNL     1     -18.265  42.817 -12.417  0.00  0.00    +0.000 NA
ATOM      3  N   UNL     1     -19.698  42.459 -14.168  0.00  0.00    +0.000 N 
ATOM      4  C   UNL     1     -17.616  39.854 -11.274  0.00  0.00    +0.000 C 
ATOM      5  C   UNL     1     -18.613  39.708 -12.423  0.00  0.00    +0.000 C 
ATOM      6  C   UNL     1     -16.824  41.162 -11.285  0.00  0.00    +0.000 C 
ATOM      7  C   UNL     1     -19.697  40.779 -12.414  0.00  0.00    +0.000 C 
ATOM      8  C   UNL     1     -17.698  42.403 -11.136  0.00  0.00    +0.000 C 
ATOM      9  C   UNL     1     -19.163  42.080 -12.965  0.00  0.00    +0.000 C 
ATOM     10  C   UNL     1     -19.320  43.615 -14.830  0.00  0.00    +0.000 C 
ATOM     11  H   UNL     1     -20.430  41.873 -14.559  0.00  0.00    +0.000 HD
ENDROOT
BRANCH  10  13
ATOM     12  N   UNL     1     -20.537  45.363 -17.899  0.00  0.00    +0.000 NA
ATOM     13  C   UNL     1     -19.983  43.844 -16.140  0.00  0.00    +0.000 A 
ATOM     14  C   UNL     1     -20.624  42.806 -16.771  0.00  0.00    +0.000 A 
ATOM     15  C   UNL     1     -19.954  45.087 -16.710  0.00  0.00    +0.000 A 
ATOM     16  C   UNL     1     -21.236  43.050 -17.996  0.00  0.00    +0.000 A 
ATOM     17  C   UNL     1     -21.165  44.334 -18.512  0.00  0.00    +0.000 A 
ENDBRANCH  10  13
TORSDOF 1
ENDMDL
MODEL 5
REMARK VINA RESULT:    -5.934      4.991      6.795
REMARK INTER + INTRA:          -6.425
REMARK INTER:                  -6.242
REMARK INTRA:                  -0.184
REMARK UNBOUND:                -0.144
REMARK  Name = 7060847
REMARK  1 active torsions:
REMARK  status: ('A' for Active; 'I' for Inactive)
REMARK    1  A    between atoms: C_11  and  C_12
REMARK                            x       y       z     vdW  Elec       q    Type
REMARK                         _______ _______ _______ _____ _____    ______ ____
ROOT
ATOM      1  O   UNL     1     -19.675  41.698 -13.577  0.00  0.00    +0.000 OA
ATOM      2  N   UNL     1     -20.760  43.021 -15.516  0.00  0.00    +0.000 NA
ATOM      3  N   UNL     1     -18.687  43.499 -14.665  0.00  0.00    +0.000 N 
ATOM      4  C   UNL     1     -20.643  44.065 -18.583  0.00  0.00    +0.000 C 
ATOM      5  C   UNL     1     -19.304  44.393 -17.922  0.00  0.00    +0.000 C 
ATOM      6  C   UNL     1     -21.436  42.958 -17.890  0.00  0.00    +0.000 C 
ATOM      7  C   UNL     1     -19.452  44.903 -16.493  0.00  0.00    +0.000 C 
ATOM      8  C   UNL     1     -21.839  43.301 -16.459  0.00  0.00    +0.000 C 
ATOM      9  C   UNL     1     -19.706  43.756 -15.544  0.00  0.00    +0.000 C 
ATOM     10  C   UNL     1     -18.738  42.477 -13.730  0.00  0.00    +0.000 C 
ATOM     11  H   UNL     1     -17.883  44.118 -14.689  0.00  0.00    +0.000 HD
ENDROOT
BRANCH  10  13
ATOM     12  N   UNL     1     -16.260  40.986 -11.366  0.00  0.00    +0.000 NA
ATOM     13  C   UNL     1     -17.524  42.328 -12.886  0.00  0.00    +0.000 A 
ATOM     14  C   UNL     1     -16.594  43.337 -12.842  0.00  0.00    +0.000 A 
ATOM     15  C   UNL     1     -17.340  41.186 -12.155  0.00  0.00    +0.000 A 
ATOM     16  C   UNL     1     -15.469  43.169 -12.043  0.00  0.00    +0.000 A 
ATOM     17  C   UNL     1     -15.350  41.986 -11.331  0.00  0.00    +0.000 A 
ENDBRANCH  10  13
TORSDOF 1
ENDMDL
