MODEL 1
REMARK VINA RESULT:    -6.511      0.000      0.000
REMARK INTER + INTRA:          -8.206
REMARK INTER:                  -7.843
REMARK INTRA:                  -0.363
REMARK UNBOUND:                -0.363
REMARK  Name = 70618379
REMARK  4 active torsions:
REMARK  status: ('A' for Active; 'I' for Inactive)
REMARK    1  A    between atoms: N_3  and  C_9
REMARK    2  A    between atoms: C_5  and  C_6
REMARK    3  A    between atoms: C_6  and  C_12
REMARK    4  A    between atoms: C_8  and  C_11
REMARK                            x       y       z     vdW  Elec       q    Type
REMARK                         _______ _______ _______ _____ _____    ______ ____
ROOT
ATOM      1  N   UNL     1     -18.375  42.033  -8.340  0.00  0.00    +0.000 NA
ATOM      2  C   UNL     1     -20.666  41.291  -8.134  0.00  0.00    +0.000 A 
ATOM      3  C   UNL     1     -20.557  40.595  -9.333  0.00  0.00    +0.000 A 
ATOM      4  C   UNL     1     -19.357  40.617 -10.036  0.00  0.00    +0.000 A 
ATOM      5  C   UNL     1     -18.306  41.345  -9.502  0.00  0.00    +0.000 A 
ATOM      6  C   UNL     1     -19.556  41.989  -7.685  0.00  0.00    +0.000 A 
ENDROOT
BRANCH   4   9
ATOM      7  O   UNL     1     -18.549  38.865 -11.386  0.00  0.00    +0.000 OA
ATOM      8  N   UNL     1     -19.982  40.356 -12.376  0.00  0.00    +0.000 N 
ATOM      9  C   UNL     1     -19.252  39.884 -11.291  0.00  0.00    +0.000 C 
ATOM     10  H   UNL     1     -20.567  41.183 -12.315  0.00  0.00    +0.000 HD
ATOM     11  H   UNL     1     -19.950  39.881 -13.273  0.00  0.00    +0.000 HD
ENDBRANCH   4   9
BRANCH   5  12
ATOM     12  N   UNL     1     -17.080  41.371 -10.213  0.00  0.00    +0.000 N 
ATOM     13  H   UNL     1     -16.852  42.194 -10.757  0.00  0.00    +0.000 HD
ATOM     14  H   UNL     1     -16.729  40.479 -10.541  0.00  0.00    +0.000 HD
ENDBRANCH   5  12
BRANCH   2  15
ATOM     15  C   UNL     1     -21.935  41.288  -7.359  0.00  0.00    +0.000 C 
BRANCH  15  16
ATOM     16  C   UNL     1     -22.204  42.592  -6.653  0.00  0.00    +0.000 C 
ATOM     17  C   UNL     1     -22.137  42.760  -5.328  0.00  0.00    +0.000 C 
ENDBRANCH  15  16
ENDBRANCH   2  15
TORSDOF 4
ENDMDL
MODEL 2
REMARK VINA RESULT:    -6.388      1.649      2.541
REMARK INTER + INTRA:          -8.058
REMARK INTER:                  -7.670
REMARK INTRA:                  -0.388
REMARK UNBOUND:                -0.363
REMARK  Name = 70618379
REMARK  4 active torsions:
REMARK  status: ('A' for Active; 'I' for Inactive)
REMARK    1  A    between atoms: N_3  and  C_9
REMARK    2  A    between atoms: C_5  and  C_6
REMARK    3  A    between atoms: C_6  and  C_12
REMARK    4  A    between atoms: C_8  and  C_11
REMARK                            x       y       z     vdW  Elec       q    Type
REMARK                         _______ _______ _______ _____ _____    ______ ____
ROOT
ATOM      1  N   UNL     1     -20.171  39.508  -9.671  0.00  0.00    +0.000 NA
ATOM      2  C   UNL     1     -19.512  41.351  -8.253  0.00  0.00    +0.000 A 
ATOM      3  C   UNL     1     -18.473  41.660  -9.123  0.00  0.00    +0.000 A 
ATOM      4  C   UNL     1     -18.282  40.894 -10.269  0.00  0.00    +0.000 A 
ATOM      5  C   UNL     1     -19.150  39.839 -10.494  0.00  0.00    +0.000 A 
ATOM      6  C   UNL     1     -20.324  40.275  -8.568  0.00  0.00    +0.000 A 
ENDROOT
BRANCH   4   9
ATOM      7  O   UNL     1     -17.400  41.825 -12.244  0.00  0.00    +0.000 OA
ATOM      8  N   UNL     1     -15.904  40.864 -10.796  0.00  0.00    +0.000 N 
ATOM      9  C   UNL     1     -17.192  41.226 -11.176  0.00  0.00    +0.000 C 
ATOM     10  H   UNL     1     -15.714  40.381  -9.924  0.00  0.00    +0.000 HD
ATOM     11  H   UNL     1     -15.107  41.076 -11.387  0.00  0.00    +0.000 HD
ENDBRANCH   4   9
BRANCH   5  12
ATOM     12  N   UNL     1     -18.962  39.054 -11.660  0.00  0.00    +0.000 N 
ATOM     13  H   UNL     1     -19.379  39.367 -12.528  0.00  0.00    +0.000 HD
ATOM     14  H   UNL     1     -18.861  38.055 -11.521  0.00  0.00    +0.000 HD
ENDBRANCH   5  12
BRANCH   2  15
ATOM     15  C   UNL     1     -19.741  42.150  -7.019  0.00  0.00    +0.000 C 
BRANCH  15  16
ATOM     16  C   UNL     1     -21.105  41.933  -6.415  0.00  0.00    +0.000 C 
ATOM     17  C   UNL     1     -22.134  42.776  -6.554  0.00  0.00    +0.000 C 
ENDBRANCH  15  16
ENDBRANCH   2  15
TORSDOF 4
ENDMDL
MODEL 3
REMARK VINA RESULT:    -5.797      2.318      3.552
REMARK INTER + INTRA:          -7.346
REMARK INTER:                  -7.172
REMARK INTRA:                  -0.174
REMARK UNBOUND:                -0.363
REMARK  Name = 70618379
REMARK  4 active torsions:
REMARK  status: ('A' for Active; 'I' for Inactive)
REMARK    1  A    between atoms: N_3  and  C_9
REMARK    2  A    between atoms: C_5  and  C_6
REMARK    3  A    between atoms: C_6  and  C_12
REMARK    4  A    between atoms: C_8  and  C_11
REMARK                            x       y       z     vdW  Elec       q    Type
REMARK                         _______ _______ _______ _____ _____    ______ ____
ROOT
ATOM      1  N   UNL     1     -18.690  39.255 -11.932  0.00  0.00    +0.000 NA
ATOM      2  C   UNL     1     -19.155  40.404  -9.857  0.00  0.00    +0.000 A 
ATOM      3  C   UNL     1     -18.023  41.192 -10.029  0.00  0.00    +0.000 A 
ATOM      4  C   UNL     1     -17.224  41.013 -11.154  0.00  0.00    +0.000 A 
ATOM      5  C   UNL     1     -17.597  40.040 -12.066  0.00  0.00    +0.000 A 
ATOM      6  C   UNL     1     -19.442  39.458 -10.827  0.00  0.00    +0.000 A 
ENDROOT
BRANCH   4   9
ATOM      7  O   UNL     1     -16.127  43.017 -11.727  0.00  0.00    +0.000 OA
ATOM      8  N   UNL     1     -14.807  41.284 -11.010  0.00  0.00    +0.000 N 
ATOM      9  C   UNL     1     -16.040  41.844 -11.327  0.00  0.00    +0.000 C 
ATOM     10  H   UNL     1     -14.717  40.330 -10.675  0.00  0.00    +0.000 HD
ATOM     11  H   UNL     1     -13.950  41.820 -11.107  0.00  0.00    +0.000 HD
ENDBRANCH   4   9
BRANCH   5  12
ATOM     12  N   UNL     1     -16.787  39.852 -13.214  0.00  0.00    +0.000 N 
ATOM     13  H   UNL     1     -15.866  40.271 -13.232  0.00  0.00    +0.000 HD
ATOM     14  H   UNL     1     -17.273  39.747 -14.097  0.00  0.00    +0.000 HD
ENDBRANCH   5  12
BRANCH   2  15
ATOM     15  C   UNL     1     -20.031  40.571  -8.666  0.00  0.00    +0.000 C 
BRANCH  15  16
ATOM     16  C   UNL     1     -19.582  41.680  -7.748  0.00  0.00    +0.000 C 
ATOM     17  C   UNL     1     -20.205  42.019  -6.615  0.00  0.00    +0.000 C 
ENDBRANCH  15  16
ENDBRANCH   2  15
TORSDOF 4
ENDMDL
MODEL 4
REMARK VINA RESULT:    -5.737      2.804      5.018
REMARK INTER + INTRA:          -7.274
REMARK INTER:                  -6.836
REMARK INTRA:                  -0.438
REMARK UNBOUND:                -0.363
REMARK  Name = 70618379
REMARK  4 active torsions:
REMARK  status: ('A' for Active; 'I' for Inactive)
REMARK    1  A    between atoms: N_3  and  C_9
REMARK    2  A    between atoms: C_5  and  C_6
REMARK    3  A    between atoms: C_6  and  C_12
REMARK    4  A    between atoms: C_8  and  C_11
REMARK                            x       y       z     vdW  Elec       q    Type
REMARK                         _______ _______ _______ _____ _____    ______ ____
ROOT
ATOM      1  N   UNL     1     -18.879  40.358 -13.282  0.00  0.00    +0.000 NA
ATOM      2  C   UNL     1     -18.142  42.496 -12.428  0.00  0.00    +0.000 A 
ATOM      3  C   UNL     1     -18.397  42.074 -11.129  0.00  0.00    +0.000 A 
ATOM      4  C   UNL     1     -18.892  40.794 -10.904  0.00  0.00    +0.000 A 
ATOM      5  C   UNL     1     -19.114  39.983 -12.005  0.00  0.00    +0.000 A 
ATOM      6  C   UNL     1     -18.398  41.609 -13.461  0.00  0.00    +0.000 A 
ENDROOT
BRANCH   4   9
ATOM      7  O   UNL     1     -20.261  39.900  -9.209  0.00  0.00    +0.000 OA
ATOM      8  N   UNL     1     -18.117  40.462  -8.618  0.00  0.00    +0.000 N 
ATOM      9  C   UNL     1     -19.155  40.360  -9.539  0.00  0.00    +0.000 C 
ATOM     10  H   UNL     1     -17.205  40.828  -8.871  0.00  0.00    +0.000 HD
ATOM     11  H   UNL     1     -18.244  40.169  -7.654  0.00  0.00    +0.000 HD
ENDBRANCH   4   9
BRANCH   5  12
ATOM     12  N   UNL     1     -19.618  38.676 -11.783  0.00  0.00    +0.000 N 
ATOM     13  H   UNL     1     -20.569  38.573 -11.453  0.00  0.00    +0.000 HD
ATOM     14  H   UNL     1     -18.944  37.974 -11.503  0.00  0.00    +0.000 HD
ENDBRANCH   5  12
BRANCH   2  15
ATOM     15  C   UNL     1     -17.613  43.859 -12.702  0.00  0.00    +0.000 C 
BRANCH  15  16
ATOM     16  C   UNL     1     -17.568  44.737 -11.477  0.00  0.00    +0.000 C 
ATOM     17  C   UNL     1     -17.581  46.074 -11.506  0.00  0.00    +0.000 C 
ENDBRANCH  15  16
ENDBRANCH   2  15
TORSDOF 4
ENDMDL
MODEL 5
REMARK VINA RESULT:    -5.441      2.197      3.291
REMARK INTER + INTRA:          -6.917
REMARK INTER:                  -6.516
REMARK INTRA:                  -0.401
REMARK UNBOUND:                -0.363
REMARK  Name = 70618379
REMARK  4 active torsions:
REMARK  status: ('A' for Active; 'I' for Inactive)
REMARK    1  A    between atoms: N_3  and  C_9
REMARK    2  A    between atoms: C_5  and  C_6
REMARK    3  A    between atoms: C_6  and  C_12
REMARK    4  A    between atoms: C_8  and  C_11
REMARK                            x       y       z     vdW  Elec       q    Type
REMARK                         _______ _______ _______ _____ _____    ______ ____
ROOT
ATOM      1  N   UNL     1     -19.499  40.226 -11.542  0.00  0.00    +0.000 NA
ATOM      2  C   UNL     1     -18.937  41.118  -9.367  0.00  0.00    +0.000 A 
ATOM      3  C   UNL     1     -18.114  42.068  -9.960  0.00  0.00    +0.000 A 
ATOM      4  C   UNL     1     -17.983  42.099 -11.344  0.00  0.00    +0.000 A 
ATOM      5  C   UNL     1     -18.689  41.164 -12.083  0.00  0.00    +0.000 A 
ATOM      6  C   UNL     1     -19.602  40.228 -10.194  0.00  0.00    +0.000 A 
ENDROOT
BRANCH   4   9
ATOM      7  O   UNL     1     -16.120  42.770 -12.619  0.00  0.00    +0.000 OA
ATOM      8  N   UNL     1     -17.459  44.436 -11.789  0.00  0.00    +0.000 N 
ATOM      9  C   UNL     1     -17.118  43.098 -11.957  0.00  0.00    +0.000 C 
ATOM     10  H   UNL     1     -18.274  44.723 -11.257  0.00  0.00    +0.000 HD
ATOM     11  H   UNL     1     -16.894  45.174 -12.199  0.00  0.00    +0.000 HD
ENDBRANCH   4   9
BRANCH   5  12
ATOM     12  N   UNL     1     -18.561  41.190 -13.495  0.00  0.00    +0.000 N 
ATOM     13  H   UNL     1     -19.386  41.035 -14.060  0.00  0.00    +0.000 HD
ATOM     14  H   UNL     1     -17.669  40.891 -13.872  0.00  0.00    +0.000 HD
ENDBRANCH   5  12
BRANCH   2  15
ATOM     15  C   UNL     1     -19.099  41.059  -7.889  0.00  0.00    +0.000 C 
BRANCH  15  16
ATOM     16  C   UNL     1     -20.455  41.521  -7.420  0.00  0.00    +0.000 C 
ATOM     17  C   UNL     1     -20.709  41.988  -6.193  0.00  0.00    +0.000 C 
ENDBRANCH  15  16
ENDBRANCH   2  15
TORSDOF 4
ENDMDL
