MODEL 1
REMARK VINA RESULT:    -5.962      0.000      0.000
REMARK INTER + INTRA:          -7.628
REMARK INTER:                  -7.356
REMARK INTRA:                  -0.272
REMARK UNBOUND:                -0.272
REMARK  Name = 70906158
REMARK  7 active torsions:
REMARK  status: ('A' for Active; 'I' for Inactive)
REMARK    1  A    between atoms: N_2  and  C_10
REMARK    2  A    between atoms: C_5  and  C_6
REMARK    3  A    between atoms: C_5  and  C_7
REMARK    4  A    between atoms: C_5  and  C_8
REMARK    5  A    between atoms: C_5  and  C_9
REMARK    6  A    between atoms: C_6  and  C_10
REMARK    7  A    between atoms: C_11  and  C_12
REMARK                            x       y       z     vdW  Elec       q    Type
REMARK                         _______ _______ _______ _____ _____    ______ ____
ROOT
ATOM      1  O   UNL     1     -18.411  44.328 -14.032  0.00  0.00    +0.000 OA
ATOM      2  N   UNL     1     -19.672  42.522 -14.759  0.00  0.00    +0.000 N 
ATOM      3  C   UNL     1     -18.900  43.217 -13.838  0.00  0.00    +0.000 C 
ATOM      4  H   UNL     1     -20.004  41.586 -14.552  0.00  0.00    +0.000 HD
ENDROOT
BRANCH   3   7
ATOM      5  N   UNL     1     -19.135  40.687 -11.059  0.00  0.00    +0.000 NA
ATOM      6  N   UNL     1     -18.004  40.538  -8.967  0.00  0.00    +0.000 N 
ATOM      7  C   UNL     1     -18.646  42.528 -12.546  0.00  0.00    +0.000 A 
ATOM      8  C   UNL     1     -17.729  43.033 -11.632  0.00  0.00    +0.000 A 
ATOM      9  C   UNL     1     -19.317  41.362 -12.216  0.00  0.00    +0.000 A 
ATOM     10  C   UNL     1     -17.514  42.366 -10.431  0.00  0.00    +0.000 A 
ATOM     11  C   UNL     1     -18.235  41.206 -10.195  0.00  0.00    +0.000 A 
ATOM     12  H   UNL     1     -18.530  39.688  -8.801  0.00  0.00    +0.000 HD
ATOM     13  H   UNL     1     -17.096  40.634  -8.529  0.00  0.00    +0.000 HD
ENDBRANCH   3   7
BRANCH   2  14
ATOM     14  C   UNL     1     -19.985  43.046 -16.063  0.00  0.00    +0.000 C 
BRANCH  14  15
ATOM     15  C   UNL     1     -21.456  43.447 -16.161  0.00  0.00    +0.000 C 
BRANCH  15  16
ATOM     16  C   UNL     1     -21.787  44.527 -17.222  0.00  0.00    +0.000 C 
ATOM     17  C   UNL     1     -20.906  45.775 -17.040  0.00  0.00    +0.000 C 
ATOM     18  C   UNL     1     -23.267  44.939 -17.152  0.00  0.00    +0.000 C 
ATOM     19  C   UNL     1     -21.510  43.934 -18.617  0.00  0.00    +0.000 C 
ENDBRANCH  15  16
ENDBRANCH  14  15
ENDBRANCH   2  14
TORSDOF 4
ENDMDL
MODEL 2
REMARK VINA RESULT:    -5.596      2.624      7.309
REMARK INTER + INTRA:          -7.176
REMARK INTER:                  -6.930
REMARK INTRA:                  -0.246
REMARK UNBOUND:                -0.272
REMARK  Name = 70906158
REMARK  7 active torsions:
REMARK  status: ('A' for Active; 'I' for Inactive)
REMARK    1  A    between atoms: N_2  and  C_10
REMARK    2  A    between atoms: C_5  and  C_6
REMARK    3  A    between atoms: C_5  and  C_7
REMARK    4  A    between atoms: C_5  and  C_8
REMARK    5  A    between atoms: C_5  and  C_9
REMARK    6  A    between atoms: C_6  and  C_10
REMARK    7  A    between atoms: C_11  and  C_12
REMARK                            x       y       z     vdW  Elec       q    Type
REMARK                         _______ _______ _______ _____ _____    ______ ____
ROOT
ATOM      1  O   UNL     1     -20.024  42.276 -16.722  0.00  0.00    +0.000 OA
ATOM      2  N   UNL     1     -19.874  43.649 -14.859  0.00  0.00    +0.000 N 
ATOM      3  C   UNL     1     -20.362  43.285 -16.107  0.00  0.00    +0.000 C 
ATOM      4  H   UNL     1     -20.159  44.522 -14.428  0.00  0.00    +0.000 HD
ENDROOT
BRANCH   3   7
ATOM      5  N   UNL     1     -21.763  46.171 -18.079  0.00  0.00    +0.000 NA
ATOM      6  N   UNL     1     -24.007  46.865 -18.472  0.00  0.00    +0.000 N 
ATOM      7  C   UNL     1     -21.343  44.216 -16.721  0.00  0.00    +0.000 A 
ATOM      8  C   UNL     1     -22.710  44.041 -16.539  0.00  0.00    +0.000 A 
ATOM      9  C   UNL     1     -20.924  45.287 -17.493  0.00  0.00    +0.000 A 
ATOM     10  C   UNL     1     -23.604  44.929 -17.126  0.00  0.00    +0.000 A 
ATOM     11  C   UNL     1     -23.084  45.968 -17.881  0.00  0.00    +0.000 A 
ATOM     12  H   UNL     1     -23.623  47.620 -19.028  0.00  0.00    +0.000 HD
ATOM     13  H   UNL     1     -24.932  46.522 -18.704  0.00  0.00    +0.000 HD
ENDBRANCH   3   7
BRANCH   2  14
ATOM     14  C   UNL     1     -18.900  42.864 -14.146  0.00  0.00    +0.000 C 
BRANCH  14  15
ATOM     15  C   UNL     1     -19.567  41.968 -13.104  0.00  0.00    +0.000 C 
BRANCH  15  16
ATOM     16  C   UNL     1     -18.614  41.037 -12.310  0.00  0.00    +0.000 C 
ATOM     17  C   UNL     1     -18.479  41.498 -10.848  0.00  0.00    +0.000 C 
ATOM     18  C   UNL     1     -17.220  40.989 -12.956  0.00  0.00    +0.000 C 
ATOM     19  C   UNL     1     -19.208  39.615 -12.321  0.00  0.00    +0.000 C 
ENDBRANCH  15  16
ENDBRANCH  14  15
ENDBRANCH   2  14
TORSDOF 4
ENDMDL
MODEL 3
REMARK VINA RESULT:    -5.560      1.854      2.242
REMARK INTER + INTRA:          -7.132
REMARK INTER:                  -6.716
REMARK INTRA:                  -0.416
REMARK UNBOUND:                -0.272
REMARK  Name = 70906158
REMARK  7 active torsions:
REMARK  status: ('A' for Active; 'I' for Inactive)
REMARK    1  A    between atoms: N_2  and  C_10
REMARK    2  A    between atoms: C_5  and  C_6
REMARK    3  A    between atoms: C_5  and  C_7
REMARK    4  A    between atoms: C_5  and  C_8
REMARK    5  A    between atoms: C_5  and  C_9
REMARK    6  A    between atoms: C_6  and  C_10
REMARK    7  A    between atoms: C_11  and  C_12
REMARK                            x       y       z     vdW  Elec       q    Type
REMARK                         _______ _______ _______ _____ _____    ______ ____
ROOT
ATOM      1  O   UNL     1     -20.261  42.695 -14.478  0.00  0.00    +0.000 OA
ATOM      2  N   UNL     1     -18.653  44.247 -15.097  0.00  0.00    +0.000 N 
ATOM      3  C   UNL     1     -19.115  43.132 -14.409  0.00  0.00    +0.000 C 
ATOM      4  H   UNL     1     -17.706  44.583 -14.956  0.00  0.00    +0.000 HD
ENDROOT
BRANCH   3   7
ATOM      5  N   UNL     1     -17.333  40.422 -12.496  0.00  0.00    +0.000 NA
ATOM      6  N   UNL     1     -15.436  40.500 -11.056  0.00  0.00    +0.000 N 
ATOM      7  C   UNL     1     -18.133  42.460 -13.520  0.00  0.00    +0.000 A 
ATOM      8  C   UNL     1     -17.124  43.180 -12.892  0.00  0.00    +0.000 A 
ATOM      9  C   UNL     1     -18.193  41.094 -13.292  0.00  0.00    +0.000 A 
ATOM     10  C   UNL     1     -16.219  42.524 -12.064  0.00  0.00    +0.000 A 
ATOM     11  C   UNL     1     -16.365  41.155 -11.901  0.00  0.00    +0.000 A 
ATOM     12  H   UNL     1     -15.543  39.499 -10.944  0.00  0.00    +0.000 HD
ATOM     13  H   UNL     1     -14.509  40.898 -10.959  0.00  0.00    +0.000 HD
ENDBRANCH   3   7
BRANCH   2  14
ATOM     14  C   UNL     1     -19.490  45.019 -15.977  0.00  0.00    +0.000 C 
BRANCH  14  15
ATOM     15  C   UNL     1     -19.499  44.433 -17.388  0.00  0.00    +0.000 C 
BRANCH  15  16
ATOM     16  C   UNL     1     -20.892  44.030 -17.938  0.00  0.00    +0.000 C 
ATOM     17  C   UNL     1     -21.160  42.530 -17.725  0.00  0.00    +0.000 C 
ATOM     18  C   UNL     1     -21.013  44.358 -19.435  0.00  0.00    +0.000 C 
ATOM     19  C   UNL     1     -21.963  44.832 -17.173  0.00  0.00    +0.000 C 
ENDBRANCH  15  16
ENDBRANCH  14  15
ENDBRANCH   2  14
TORSDOF 4
ENDMDL
MODEL 4
REMARK VINA RESULT:    -5.552      2.383      7.114
REMARK INTER + INTRA:          -7.123
REMARK INTER:                  -6.793
REMARK INTRA:                  -0.330
REMARK UNBOUND:                -0.272
REMARK  Name = 70906158
REMARK  7 active torsions:
REMARK  status: ('A' for Active; 'I' for Inactive)
REMARK    1  A    between atoms: N_2  and  C_10
REMARK    2  A    between atoms: C_5  and  C_6
REMARK    3  A    between atoms: C_5  and  C_7
REMARK    4  A    between atoms: C_5  and  C_8
REMARK    5  A    between atoms: C_5  and  C_9
REMARK    6  A    between atoms: C_6  and  C_10
REMARK    7  A    between atoms: C_11  and  C_12
REMARK                            x       y       z     vdW  Elec       q    Type
REMARK                         _______ _______ _______ _____ _____    ______ ____
ROOT
ATOM      1  O   UNL     1     -20.372  42.336 -14.167  0.00  0.00    +0.000 OA
ATOM      2  N   UNL     1     -18.364  43.485 -14.331  0.00  0.00    +0.000 N 
ATOM      3  C   UNL     1     -19.616  43.086 -14.780  0.00  0.00    +0.000 C 
ATOM      4  H   UNL     1     -17.770  44.068 -14.910  0.00  0.00    +0.000 HD
ENDROOT
BRANCH   3   7
ATOM      5  N   UNL     1     -19.795  45.282 -17.834  0.00  0.00    +0.000 NA
ATOM      6  N   UNL     1     -21.113  45.121 -19.812  0.00  0.00    +0.000 N 
ATOM      7  C   UNL     1     -20.028  43.604 -16.111  0.00  0.00    +0.000 A 
ATOM      8  C   UNL     1     -20.987  42.945 -16.871  0.00  0.00    +0.000 A 
ATOM      9  C   UNL     1     -19.466  44.758 -16.632  0.00  0.00    +0.000 A 
ATOM     10  C   UNL     1     -21.352  43.454 -18.113  0.00  0.00    +0.000 A 
ATOM     11  C   UNL     1     -20.731  44.615 -18.546  0.00  0.00    +0.000 A 
ATOM     12  H   UNL     1     -20.653  45.966 -20.127  0.00  0.00    +0.000 HD
ATOM     13  H   UNL     1     -21.448  44.468 -20.511  0.00  0.00    +0.000 HD
ENDBRANCH   3   7
BRANCH   2  14
ATOM     14  C   UNL     1     -17.815  43.048 -13.074  0.00  0.00    +0.000 C 
BRANCH  14  15
ATOM     15  C   UNL     1     -17.253  41.632 -13.178  0.00  0.00    +0.000 C 
BRANCH  15  16
ATOM     16  C   UNL     1     -17.662  40.663 -12.038  0.00  0.00    +0.000 C 
ATOM     17  C   UNL     1     -18.804  39.733 -12.482  0.00  0.00    +0.000 C 
ATOM     18  C   UNL     1     -18.098  41.435 -10.782  0.00  0.00    +0.000 C 
ATOM     19  C   UNL     1     -16.439  39.797 -11.679  0.00  0.00    +0.000 C 
ENDBRANCH  15  16
ENDBRANCH  14  15
ENDBRANCH   2  14
TORSDOF 4
ENDMDL
MODEL 5
REMARK VINA RESULT:    -5.361      1.654      2.245
REMARK INTER + INTRA:          -6.887
REMARK INTER:                  -6.541
REMARK INTRA:                  -0.347
REMARK UNBOUND:                -0.272
REMARK  Name = 70906158
REMARK  7 active torsions:
REMARK  status: ('A' for Active; 'I' for Inactive)
REMARK    1  A    between atoms: N_2  and  C_10
REMARK    2  A    between atoms: C_5  and  C_6
REMARK    3  A    between atoms: C_5  and  C_7
REMARK    4  A    between atoms: C_5  and  C_8
REMARK    5  A    between atoms: C_5  and  C_9
REMARK    6  A    between atoms: C_6  and  C_10
REMARK    7  A    between atoms: C_11  and  C_12
REMARK                            x       y       z     vdW  Elec       q    Type
REMARK                         _______ _______ _______ _____ _____    ______ ____
ROOT
ATOM      1  O   UNL     1     -20.717  42.696 -15.165  0.00  0.00    +0.000 OA
ATOM      2  N   UNL     1     -18.970  44.134 -15.671  0.00  0.00    +0.000 N 
ATOM      3  C   UNL     1     -19.662  43.245 -14.858  0.00  0.00    +0.000 C 
ATOM      4  H   UNL     1     -18.128  44.590 -15.336  0.00  0.00    +0.000 HD
ENDROOT
BRANCH   3   7
ATOM      5  N   UNL     1     -17.732  43.768 -11.667  0.00  0.00    +0.000 NA
ATOM      6  N   UNL     1     -17.367  42.337  -9.798  0.00  0.00    +0.000 N 
ATOM      7  C   UNL     1     -19.067  42.982 -13.523  0.00  0.00    +0.000 A 
ATOM      8  C   UNL     1     -19.260  41.766 -12.879  0.00  0.00    +0.000 A 
ATOM      9  C   UNL     1     -18.302  43.943 -12.881  0.00  0.00    +0.000 A 
ATOM     10  C   UNL     1     -18.689  41.548 -11.629  0.00  0.00    +0.000 A 
ATOM     11  C   UNL     1     -17.942  42.573 -11.071  0.00  0.00    +0.000 A 
ATOM     12  H   UNL     1     -16.826  43.090  -9.391  0.00  0.00    +0.000 HD
ATOM     13  H   UNL     1     -17.830  41.687  -9.173  0.00  0.00    +0.000 HD
ENDBRANCH   3   7
BRANCH   2  14
ATOM     14  C   UNL     1     -19.431  44.509 -16.982  0.00  0.00    +0.000 C 
BRANCH  14  15
ATOM     15  C   UNL     1     -20.572  45.521 -16.898  0.00  0.00    +0.000 C 
BRANCH  15  16
ATOM     16  C   UNL     1     -21.815  45.205 -17.770  0.00  0.00    +0.000 C 
ATOM     17  C   UNL     1     -23.016  44.800 -16.898  0.00  0.00    +0.000 C 
ATOM     18  C   UNL     1     -21.517  44.079 -18.774  0.00  0.00    +0.000 C 
ATOM     19  C   UNL     1     -22.189  46.476 -18.557  0.00  0.00    +0.000 C 
ENDBRANCH  15  16
ENDBRANCH  14  15
ENDBRANCH   2  14
TORSDOF 4
ENDMDL
