MODEL 1
REMARK VINA RESULT:    -6.019      0.000      0.000
REMARK INTER + INTRA:          -6.996
REMARK INTER:                  -6.723
REMARK INTRA:                  -0.274
REMARK UNBOUND:                -0.274
REMARK  Name = 71276874
REMARK  3 active torsions:
REMARK  status: ('A' for Active; 'I' for Inactive)
REMARK    1  A    between atoms: N_3  and  C_6
REMARK    2  A    between atoms: N_5  and  C_12
REMARK    3  A    between atoms: C_10  and  C_11
REMARK                            x       y       z     vdW  Elec       q    Type
REMARK                         _______ _______ _______ _____ _____    ______ ____
ROOT
ATOM      1  O   UNL     1     -18.290  40.233 -12.075  0.00  0.00    +0.000 OA
ATOM      2  N   UNL     1     -18.727  41.053  -9.947  0.00  0.00    +0.000 N 
ATOM      3  C   UNL     1     -19.794  41.759  -7.969  0.00  0.00    +0.000 C 
ATOM      4  C   UNL     1     -19.940  40.243  -8.095  0.00  0.00    +0.000 C 
ATOM      5  C   UNL     1     -18.608  42.054  -8.885  0.00  0.00    +0.000 C 
ATOM      6  C   UNL     1     -19.678  40.014  -9.578  0.00  0.00    +0.000 C 
ATOM      7  C   UNL     1     -18.109  41.066 -11.188  0.00  0.00    +0.000 C 
ENDROOT
BRANCH   7   9
ATOM      8  N   UNL     1     -14.914  43.005 -11.662  0.00  0.00    +0.000 NA
ATOM      9  C   UNL     1     -17.172  42.164 -11.471  0.00  0.00    +0.000 A 
ATOM     10  C   UNL     1     -15.797  42.012 -11.409  0.00  0.00    +0.000 A 
ATOM     11  C   UNL     1     -17.674  43.415 -11.815  0.00  0.00    +0.000 A 
ATOM     12  C   UNL     1     -16.798  44.460 -12.081  0.00  0.00    +0.000 A 
ATOM     13  C   UNL     1     -15.439  44.206 -11.991  0.00  0.00    +0.000 A 
BRANCH  10  14
ATOM     14  N   UNL     1     -15.278  40.741 -11.057  0.00  0.00    +0.000 N 
ATOM     15  H   UNL     1     -15.065  40.083 -11.795  0.00  0.00    +0.000 HD
ATOM     16  H   UNL     1     -15.573  40.364 -10.163  0.00  0.00    +0.000 HD
ENDBRANCH  10  14
ENDBRANCH   7   9
BRANCH   3  17
ATOM     17  N   UNL     1     -19.575  42.194  -6.601  0.00  0.00    +0.000 NA
ATOM     18  H   UNL     1     -19.994  41.526  -5.956  0.00  0.00    +0.000 HD
ATOM     19  H   UNL     1     -20.045  43.084  -6.444  0.00  0.00    +0.000 HD
ENDBRANCH   3  17
TORSDOF 3
ENDMDL
MODEL 2
REMARK VINA RESULT:    -6.010      1.932      4.936
REMARK INTER + INTRA:          -6.986
REMARK INTER:                  -6.781
REMARK INTRA:                  -0.205
REMARK UNBOUND:                -0.274
REMARK  Name = 71276874
REMARK  3 active torsions:
REMARK  status: ('A' for Active; 'I' for Inactive)
REMARK    1  A    between atoms: N_3  and  C_6
REMARK    2  A    between atoms: N_5  and  C_12
REMARK    3  A    between atoms: C_10  and  C_11
REMARK                            x       y       z     vdW  Elec       q    Type
REMARK                         _______ _______ _______ _____ _____    ______ ____
ROOT
ATOM      1  O   UNL     1     -15.879  40.838 -11.219  0.00  0.00    +0.000 OA
ATOM      2  N   UNL     1     -17.089  42.697 -11.906  0.00  0.00    +0.000 N 
ATOM      3  C   UNL     1     -17.736  44.884 -12.498  0.00  0.00    +0.000 C 
ATOM      4  C   UNL     1     -16.753  44.359 -13.543  0.00  0.00    +0.000 C 
ATOM      5  C   UNL     1     -18.241  43.599 -11.846  0.00  0.00    +0.000 C 
ATOM      6  C   UNL     1     -16.066  43.220 -12.801  0.00  0.00    +0.000 C 
ATOM      7  C   UNL     1     -16.895  41.530 -11.183  0.00  0.00    +0.000 C 
ENDROOT
BRANCH   7   9
ATOM      8  N   UNL     1     -19.786  39.566  -9.776  0.00  0.00    +0.000 NA
ATOM      9  C   UNL     1     -17.983  41.091 -10.296  0.00  0.00    +0.000 A 
ATOM     10  C   UNL     1     -18.778  39.990 -10.572  0.00  0.00    +0.000 A 
ATOM     11  C   UNL     1     -18.237  41.800  -9.127  0.00  0.00    +0.000 A 
ATOM     12  C   UNL     1     -19.265  41.394  -8.283  0.00  0.00    +0.000 A 
ATOM     13  C   UNL     1     -20.003  40.282  -8.649  0.00  0.00    +0.000 A 
BRANCH  10  14
ATOM     14  N   UNL     1     -18.527  39.264 -11.763  0.00  0.00    +0.000 N 
ATOM     15  H   UNL     1     -17.910  39.668 -12.456  0.00  0.00    +0.000 HD
ATOM     16  H   UNL     1     -19.275  38.665 -12.093  0.00  0.00    +0.000 HD
ENDBRANCH  10  14
ENDBRANCH   7   9
BRANCH   3  17
ATOM     17  N   UNL     1     -18.802  45.682 -13.076  0.00  0.00    +0.000 NA
ATOM     18  H   UNL     1     -19.632  45.107 -13.204  0.00  0.00    +0.000 HD
ATOM     19  H   UNL     1     -18.526  46.005 -14.003  0.00  0.00    +0.000 HD
ENDBRANCH   3  17
TORSDOF 3
ENDMDL
MODEL 3
REMARK VINA RESULT:    -5.438      1.960      2.495
REMARK INTER + INTRA:          -6.347
REMARK INTER:                  -6.112
REMARK INTRA:                  -0.235
REMARK UNBOUND:                -0.274
REMARK  Name = 71276874
REMARK  3 active torsions:
REMARK  status: ('A' for Active; 'I' for Inactive)
REMARK    1  A    between atoms: N_3  and  C_6
REMARK    2  A    between atoms: N_5  and  C_12
REMARK    3  A    between atoms: C_10  and  C_11
REMARK                            x       y       z     vdW  Elec       q    Type
REMARK                         _______ _______ _______ _____ _____    ______ ____
ROOT
ATOM      1  O   UNL     1     -18.711  42.994 -13.892  0.00  0.00    +0.000 OA
ATOM      2  N   UNL     1     -18.437  42.091 -11.770  0.00  0.00    +0.000 N 
ATOM      3  C   UNL     1     -18.808  41.066  -9.681  0.00  0.00    +0.000 C 
ATOM      4  C   UNL     1     -18.992  40.024 -10.783  0.00  0.00    +0.000 C 
ATOM      5  C   UNL     1     -17.980  42.142 -10.380  0.00  0.00    +0.000 C 
ATOM      6  C   UNL     1     -19.222  40.889 -12.015  0.00  0.00    +0.000 C 
ATOM      7  C   UNL     1     -18.252  43.051 -12.752  0.00  0.00    +0.000 C 
ENDROOT
BRANCH   7   9
ATOM      8  N   UNL     1     -15.313  45.342 -12.194  0.00  0.00    +0.000 NA
ATOM      9  C   UNL     1     -17.453  44.236 -12.404  0.00  0.00    +0.000 A 
ATOM     10  C   UNL     1     -16.071  44.267 -12.509  0.00  0.00    +0.000 A 
ATOM     11  C   UNL     1     -18.096  45.381 -11.946  0.00  0.00    +0.000 A 
ATOM     12  C   UNL     1     -17.350  46.505 -11.611  0.00  0.00    +0.000 A 
ATOM     13  C   UNL     1     -15.974  46.435 -11.751  0.00  0.00    +0.000 A 
BRANCH  10  14
ATOM     14  N   UNL     1     -15.408  43.104 -12.973  0.00  0.00    +0.000 N 
ATOM     15  H   UNL     1     -15.714  42.685 -13.841  0.00  0.00    +0.000 HD
ATOM     16  H   UNL     1     -15.027  42.488 -12.263  0.00  0.00    +0.000 HD
ENDBRANCH  10  14
ENDBRANCH   7   9
BRANCH   3  17
ATOM     17  N   UNL     1     -18.159  40.530  -8.499  0.00  0.00    +0.000 NA
ATOM     18  H   UNL     1     -18.862  40.229  -7.826  0.00  0.00    +0.000 HD
ATOM     19  H   UNL     1     -17.616  41.262  -8.043  0.00  0.00    +0.000 HD
ENDBRANCH   3  17
TORSDOF 3
ENDMDL
MODEL 4
REMARK VINA RESULT:    -5.343      3.292      4.438
REMARK INTER + INTRA:          -6.242
REMARK INTER:                  -6.337
REMARK INTRA:                   0.095
REMARK UNBOUND:                -0.274
REMARK  Name = 71276874
REMARK  3 active torsions:
REMARK  status: ('A' for Active; 'I' for Inactive)
REMARK    1  A    between atoms: N_3  and  C_6
REMARK    2  A    between atoms: N_5  and  C_12
REMARK    3  A    between atoms: C_10  and  C_11
REMARK                            x       y       z     vdW  Elec       q    Type
REMARK                         _______ _______ _______ _____ _____    ______ ____
ROOT
ATOM      1  O   UNL     1     -19.957  42.299 -14.161  0.00  0.00    +0.000 OA
ATOM      2  N   UNL     1     -18.006  41.798 -13.005  0.00  0.00    +0.000 N 
ATOM      3  C   UNL     1     -16.439  40.895 -11.496  0.00  0.00    +0.000 C 
ATOM      4  C   UNL     1     -16.901  39.792 -12.447  0.00  0.00    +0.000 C 
ATOM      5  C   UNL     1     -16.799  42.165 -12.264  0.00  0.00    +0.000 C 
ATOM      6  C   UNL     1     -18.208  40.355 -12.987  0.00  0.00    +0.000 C 
ATOM      7  C   UNL     1     -18.919  42.652 -13.603  0.00  0.00    +0.000 C 
ENDROOT
BRANCH   7   9
ATOM      8  N   UNL     1     -18.318  46.212 -14.682  0.00  0.00    +0.000 NA
ATOM      9  C   UNL     1     -18.632  44.094 -13.558  0.00  0.00    +0.000 A 
ATOM     10  C   UNL     1     -18.582  44.885 -14.695  0.00  0.00    +0.000 A 
ATOM     11  C   UNL     1     -18.397  44.703 -12.331  0.00  0.00    +0.000 A 
ATOM     12  C   UNL     1     -18.122  46.065 -12.277  0.00  0.00    +0.000 A 
ATOM     13  C   UNL     1     -18.094  46.768 -13.470  0.00  0.00    +0.000 A 
BRANCH  10  14
ATOM     14  N   UNL     1     -18.818  44.271 -15.950  0.00  0.00    +0.000 N 
ATOM     15  H   UNL     1     -19.146  43.314 -15.967  0.00  0.00    +0.000 HD
ATOM     16  H   UNL     1     -18.238  44.582 -16.721  0.00  0.00    +0.000 HD
ENDBRANCH  10  14
ENDBRANCH   7   9
BRANCH   3  17
ATOM     17  N   UNL     1     -15.026  40.808 -11.174  0.00  0.00    +0.000 NA
ATOM     18  H   UNL     1     -14.904  40.323 -10.287  0.00  0.00    +0.000 HD
ATOM     19  H   UNL     1     -14.644  41.745 -11.048  0.00  0.00    +0.000 HD
ENDBRANCH   3  17
TORSDOF 3
ENDMDL
MODEL 5
REMARK VINA RESULT:    -5.261      2.453      5.397
REMARK INTER + INTRA:          -6.150
REMARK INTER:                  -5.921
REMARK INTRA:                  -0.229
REMARK UNBOUND:                -0.274
REMARK  Name = 71276874
REMARK  3 active torsions:
REMARK  status: ('A' for Active; 'I' for Inactive)
REMARK    1  A    between atoms: N_3  and  C_6
REMARK    2  A    between atoms: N_5  and  C_12
REMARK    3  A    between atoms: C_10  and  C_11
REMARK                            x       y       z     vdW  Elec       q    Type
REMARK                         _______ _______ _______ _____ _____    ______ ____
ROOT
ATOM      1  O   UNL     1     -15.448  42.684 -11.437  0.00  0.00    +0.000 OA
ATOM      2  N   UNL     1     -16.972  43.710 -12.857  0.00  0.00    +0.000 N 
ATOM      3  C   UNL     1     -18.335  45.288 -13.955  0.00  0.00    +0.000 C 
ATOM      4  C   UNL     1     -16.873  45.575 -14.296  0.00  0.00    +0.000 C 
ATOM      5  C   UNL     1     -18.285  43.833 -13.491  0.00  0.00    +0.000 C 
ATOM      6  C   UNL     1     -16.131  44.856 -13.177  0.00  0.00    +0.000 C 
ATOM      7  C   UNL     1     -16.542  42.711 -11.998  0.00  0.00    +0.000 C 
ENDROOT
BRANCH   7   9
ATOM      8  N   UNL     1     -18.938  40.408 -10.223  0.00  0.00    +0.000 NA
ATOM      9  C   UNL     1     -17.469  41.601 -11.727  0.00  0.00    +0.000 A 
ATOM     10  C   UNL     1     -18.084  41.420 -10.499  0.00  0.00    +0.000 A 
ATOM     11  C   UNL     1     -17.749  40.686 -12.736  0.00  0.00    +0.000 A 
ATOM     12  C   UNL     1     -18.621  39.632 -12.490  0.00  0.00    +0.000 A 
ATOM     13  C   UNL     1     -19.184  39.538 -11.228  0.00  0.00    +0.000 A 
BRANCH  10  14
ATOM     14  N   UNL     1     -17.802  42.347  -9.465  0.00  0.00    +0.000 N 
ATOM     15  H   UNL     1     -17.740  43.330  -9.699  0.00  0.00    +0.000 HD
ATOM     16  H   UNL     1     -17.229  42.009  -8.700  0.00  0.00    +0.000 HD
ENDBRANCH  10  14
ENDBRANCH   7   9
BRANCH   3  17
ATOM     17  N   UNL     1     -19.228  45.493 -15.080  0.00  0.00    +0.000 NA
ATOM     18  H   UNL     1     -18.823  46.172 -15.722  0.00  0.00    +0.000 HD
ATOM     19  H   UNL     1     -20.107  45.891 -14.753  0.00  0.00    +0.000 HD
ENDBRANCH   3  17
TORSDOF 3
ENDMDL
