MODEL 1
REMARK VINA RESULT:    -6.960      0.000      0.000
REMARK INTER + INTRA:          -7.617
REMARK INTER:                  -7.570
REMARK INTRA:                  -0.048
REMARK UNBOUND:                -0.048
REMARK  Name = 71724839
REMARK  2 active torsions:
REMARK  status: ('A' for Active; 'I' for Inactive)
REMARK    1  A    between atoms: O_2  and  N_4
REMARK    2  A    between atoms: C_6  and  C_11
REMARK                            x       y       z     vdW  Elec       q    Type
REMARK                         _______ _______ _______ _____ _____    ______ ____
ROOT
ATOM      1  N   UNL     1     -18.853  42.107  -7.768  0.00  0.00    +0.000 NA
ATOM      2  N   UNL     1     -17.600  40.944  -9.429  0.00  0.00    +0.000 N 
ATOM      3  C   UNL     1     -21.202  41.607  -7.485  0.00  0.00    +0.000 A 
ATOM      4  C   UNL     1     -21.132  40.665  -8.505  0.00  0.00    +0.000 A 
ATOM      5  C   UNL     1     -18.824  41.182  -8.755  0.00  0.00    +0.000 A 
ATOM      6  C   UNL     1     -19.924  40.442  -9.157  0.00  0.00    +0.000 A 
ATOM      7  C   UNL     1     -20.045  42.296  -7.158  0.00  0.00    +0.000 A 
ATOM      8  H   UNL     1     -16.772  41.461  -9.163  0.00  0.00    +0.000 HD
ENDROOT
BRANCH   3  11
ATOM      9  O   UNL     1     -23.358  41.014  -6.746  0.00  0.00    +0.000 OA
ATOM     10  N   UNL     1     -22.590  43.087  -6.136  0.00  0.00    +0.000 N 
ATOM     11  C   UNL     1     -22.448  41.863  -6.785  0.00  0.00    +0.000 C 
ATOM     12  H   UNL     1     -21.899  43.826  -6.115  0.00  0.00    +0.000 HD
ATOM     13  H   UNL     1     -23.449  43.288  -5.633  0.00  0.00    +0.000 HD
ENDBRANCH   3  11
BRANCH   2  14
ATOM     14  O   UNL     1     -17.484  40.012 -10.424  0.00  0.00    +0.000 OA
ATOM     15  H   UNL     1     -16.542  39.781 -10.374  0.00  0.00    +0.000 HD
ENDBRANCH   2  14
TORSDOF 2
ENDMDL
MODEL 2
REMARK VINA RESULT:    -6.882      1.224      4.502
REMARK INTER + INTRA:          -7.533
REMARK INTER:                  -7.484
REMARK INTRA:                  -0.049
REMARK UNBOUND:                -0.048
REMARK  Name = 71724839
REMARK  2 active torsions:
REMARK  status: ('A' for Active; 'I' for Inactive)
REMARK    1  A    between atoms: O_2  and  N_4
REMARK    2  A    between atoms: C_6  and  C_11
REMARK                            x       y       z     vdW  Elec       q    Type
REMARK                         _______ _______ _______ _____ _____    ______ ____
ROOT
ATOM      1  N   UNL     1     -19.655  42.520  -6.907  0.00  0.00    +0.000 NA
ATOM      2  N   UNL     1     -21.704  43.028  -5.802  0.00  0.00    +0.000 N 
ATOM      3  C   UNL     1     -19.649  40.925  -8.724  0.00  0.00    +0.000 A 
ATOM      4  C   UNL     1     -21.019  40.742  -8.579  0.00  0.00    +0.000 A 
ATOM      5  C   UNL     1     -20.988  42.317  -6.796  0.00  0.00    +0.000 A 
ATOM      6  C   UNL     1     -21.709  41.448  -7.598  0.00  0.00    +0.000 A 
ATOM      7  C   UNL     1     -19.020  41.816  -7.871  0.00  0.00    +0.000 A 
ATOM      8  H   UNL     1     -21.215  43.675  -5.197  0.00  0.00    +0.000 HD
ENDROOT
BRANCH   3  11
ATOM      9  O   UNL     1     -19.450  39.372 -10.484  0.00  0.00    +0.000 OA
ATOM     10  N   UNL     1     -17.542  40.484  -9.866  0.00  0.00    +0.000 N 
ATOM     11  C   UNL     1     -18.900  40.203  -9.738  0.00  0.00    +0.000 C 
ATOM     12  H   UNL     1     -17.022  41.146  -9.304  0.00  0.00    +0.000 HD
ATOM     13  H   UNL     1     -16.997  39.998 -10.571  0.00  0.00    +0.000 HD
ENDBRANCH   3  11
BRANCH   2  14
ATOM     14  O   UNL     1     -23.056  42.893  -5.639  0.00  0.00    +0.000 OA
ATOM     15  H   UNL     1     -23.133  41.964  -5.364  0.00  0.00    +0.000 HD
ENDBRANCH   2  14
TORSDOF 2
ENDMDL
MODEL 3
REMARK VINA RESULT:    -5.698      2.222      3.010
REMARK INTER + INTRA:          -6.245
REMARK INTER:                  -6.198
REMARK INTRA:                  -0.047
REMARK UNBOUND:                -0.048
REMARK  Name = 71724839
REMARK  2 active torsions:
REMARK  status: ('A' for Active; 'I' for Inactive)
REMARK    1  A    between atoms: O_2  and  N_4
REMARK    2  A    between atoms: C_6  and  C_11
REMARK                            x       y       z     vdW  Elec       q    Type
REMARK                         _______ _______ _______ _____ _____    ______ ____
ROOT
ATOM      1  N   UNL     1     -17.421  41.709 -10.608  0.00  0.00    +0.000 NA
ATOM      2  N   UNL     1     -16.592  40.637 -12.568  0.00  0.00    +0.000 N 
ATOM      3  C   UNL     1     -19.362  40.801  -9.488  0.00  0.00    +0.000 A 
ATOM      4  C   UNL     1     -19.444  39.786 -10.435  0.00  0.00    +0.000 A 
ATOM      5  C   UNL     1     -17.531  40.706 -11.510  0.00  0.00    +0.000 A 
ATOM      6  C   UNL     1     -18.514  39.731 -11.468  0.00  0.00    +0.000 A 
ATOM      7  C   UNL     1     -18.342  41.729  -9.618  0.00  0.00    +0.000 A 
ATOM      8  H   UNL     1     -15.856  41.328 -12.632  0.00  0.00    +0.000 HD
ENDROOT
BRANCH   3  11
ATOM      9  O   UNL     1     -21.468  40.424  -8.503  0.00  0.00    +0.000 OA
ATOM     10  N   UNL     1     -19.898  41.486  -7.212  0.00  0.00    +0.000 N 
ATOM     11  C   UNL     1     -20.317  40.886  -8.397  0.00  0.00    +0.000 C 
ATOM     12  H   UNL     1     -18.982  41.880  -7.044  0.00  0.00    +0.000 HD
ATOM     13  H   UNL     1     -20.545  41.553  -6.431  0.00  0.00    +0.000 HD
ENDBRANCH   3  11
BRANCH   2  14
ATOM     14  O   UNL     1     -16.624  39.644 -13.509  0.00  0.00    +0.000 OA
ATOM     15  H   UNL     1     -17.080  40.081 -14.247  0.00  0.00    +0.000 HD
ENDBRANCH   2  14
TORSDOF 2
ENDMDL
MODEL 4
REMARK VINA RESULT:    -5.530      5.382      6.806
REMARK INTER + INTRA:          -6.063
REMARK INTER:                  -6.014
REMARK INTRA:                  -0.049
REMARK UNBOUND:                -0.048
REMARK  Name = 71724839
REMARK  2 active torsions:
REMARK  status: ('A' for Active; 'I' for Inactive)
REMARK    1  A    between atoms: O_2  and  N_4
REMARK    2  A    between atoms: C_6  and  C_11
REMARK                            x       y       z     vdW  Elec       q    Type
REMARK                         _______ _______ _______ _____ _____    ______ ____
ROOT
ATOM      1  N   UNL     1     -19.268  41.649 -13.445  0.00  0.00    +0.000 NA
ATOM      2  N   UNL     1     -19.849  39.564 -12.448  0.00  0.00    +0.000 N 
ATOM      3  C   UNL     1     -17.102  42.622 -12.987  0.00  0.00    +0.000 A 
ATOM      4  C   UNL     1     -16.782  41.545 -12.169  0.00  0.00    +0.000 A 
ATOM      5  C   UNL     1     -18.921  40.617 -12.642  0.00  0.00    +0.000 A 
ATOM      6  C   UNL     1     -17.704  40.519 -11.987  0.00  0.00    +0.000 A 
ATOM      7  C   UNL     1     -18.346  42.626 -13.596  0.00  0.00    +0.000 A 
ATOM      8  H   UNL     1     -20.748  39.596 -12.911  0.00  0.00    +0.000 HD
ENDROOT
BRANCH   3  11
ATOM      9  O   UNL     1     -16.539  44.827 -13.592  0.00  0.00    +0.000 OA
ATOM     10  N   UNL     1     -14.818  43.468 -12.920  0.00  0.00    +0.000 N 
ATOM     11  C   UNL     1     -16.162  43.709 -13.196  0.00  0.00    +0.000 C 
ATOM     12  H   UNL     1     -14.432  42.593 -12.591  0.00  0.00    +0.000 HD
ATOM     13  H   UNL     1     -14.141  44.214 -13.051  0.00  0.00    +0.000 HD
ENDBRANCH   3  11
BRANCH   2  14
ATOM     14  O   UNL     1     -19.567  38.477 -11.666  0.00  0.00    +0.000 OA
ATOM     15  H   UNL     1     -18.784  38.779 -11.177  0.00  0.00    +0.000 HD
ENDBRANCH   2  14
TORSDOF 2
ENDMDL
MODEL 5
REMARK VINA RESULT:    -5.050      2.310      5.430
REMARK INTER + INTRA:          -5.541
REMARK INTER:                  -5.495
REMARK INTRA:                  -0.046
REMARK UNBOUND:                -0.048
REMARK  Name = 71724839
REMARK  2 active torsions:
REMARK  status: ('A' for Active; 'I' for Inactive)
REMARK    1  A    between atoms: O_2  and  N_4
REMARK    2  A    between atoms: C_6  and  C_11
REMARK                            x       y       z     vdW  Elec       q    Type
REMARK                         _______ _______ _______ _____ _____    ______ ____
ROOT
ATOM      1  N   UNL     1     -18.716  41.691  -8.915  0.00  0.00    +0.000 NA
ATOM      2  N   UNL     1     -20.897  41.089  -8.168  0.00  0.00    +0.000 N 
ATOM      3  C   UNL     1     -17.715  40.483 -10.755  0.00  0.00    +0.000 A 
ATOM      4  C   UNL     1     -18.848  39.684 -10.856  0.00  0.00    +0.000 A 
ATOM      5  C   UNL     1     -19.802  40.894  -9.045  0.00  0.00    +0.000 A 
ATOM      6  C   UNL     1     -19.916  39.887  -9.988  0.00  0.00    +0.000 A 
ATOM      7  C   UNL     1     -17.699  41.464  -9.776  0.00  0.00    +0.000 A 
ATOM      8  H   UNL     1     -20.855  41.817  -7.466  0.00  0.00    +0.000 HD
ENDROOT
BRANCH   3  11
ATOM      9  O   UNL     1     -15.414  40.454 -11.252  0.00  0.00    +0.000 OA
ATOM     10  N   UNL     1     -16.847  39.912 -12.959  0.00  0.00    +0.000 N 
ATOM     11  C   UNL     1     -16.584  40.296 -11.646  0.00  0.00    +0.000 C 
ATOM     12  H   UNL     1     -17.765  39.759 -13.355  0.00  0.00    +0.000 HD
ATOM     13  H   UNL     1     -16.073  39.768 -13.600  0.00  0.00    +0.000 HD
ENDBRANCH   3  11
BRANCH   2  14
ATOM     14  O   UNL     1     -22.038  40.338  -8.247  0.00  0.00    +0.000 OA
ATOM     15  H   UNL     1     -21.828  39.591  -7.663  0.00  0.00    +0.000 HD
ENDBRANCH   2  14
TORSDOF 2
ENDMDL
