MODEL 1
REMARK VINA RESULT:    -5.675      0.000      0.000
REMARK INTER + INTRA:          -7.738
REMARK INTER:                  -7.002
REMARK INTRA:                  -0.736
REMARK UNBOUND:                -0.736
REMARK  Name = 71862551
REMARK  5 active torsions:
REMARK  status: ('A' for Active; 'I' for Inactive)
REMARK    1  A    between atoms: N_2  and  C_8
REMARK    2  A    between atoms: N_2  and  C_9
REMARK    3  A    between atoms: N_4  and  C_15
REMARK    4  A    between atoms: C_5  and  C_8
REMARK    5  A    between atoms: C_10  and  C_12
REMARK                            x       y       z     vdW  Elec       q    Type
REMARK                         _______ _______ _______ _____ _____    ______ ____
ROOT
ATOM      1  N   UNL     1     -18.888  42.591  -7.831  0.00  0.00    +0.000 NA
ATOM      2  C   UNL     1     -18.532  41.912  -8.946  0.00  0.00    +0.000 A 
ATOM      3  C   UNL     1     -19.195  40.790  -9.415  0.00  0.00    +0.000 A 
ATOM      4  C   UNL     1     -20.294  40.335  -8.695  0.00  0.00    +0.000 A 
ATOM      5  C   UNL     1     -19.960  42.118  -7.157  0.00  0.00    +0.000 A 
ATOM      6  C   UNL     1     -20.689  41.006  -7.543  0.00  0.00    +0.000 A 
ENDROOT
BRANCH   3   9
ATOM      7  O   UNL     1     -17.665  39.546 -10.683  0.00  0.00    +0.000 OA
ATOM      8  N   UNL     1     -19.716  40.011 -11.662  0.00  0.00    +0.000 N 
ATOM      9  C   UNL     1     -18.786  40.079 -10.618  0.00  0.00    +0.000 C 
ATOM     10  C   UNL     1     -19.468  39.321 -12.907  0.00  0.00    +0.000 C 
ATOM     11  H   UNL     1     -20.610  40.481 -11.553  0.00  0.00    +0.000 HD
ENDBRANCH   3   9
BRANCH   2  12
ATOM     12  N   UNL     1     -17.435  42.371  -9.656  0.00  0.00    +0.000 N 
ATOM     13  H   UNL     1     -16.516  42.124  -9.301  0.00  0.00    +0.000 HD
BRANCH  12  14
ATOM     14  C   UNL     1     -17.491  43.453 -10.611  0.00  0.00    +0.000 C 
BRANCH  14  15
ATOM     15  C   UNL     1     -16.543  43.219 -11.735  0.00  0.00    +0.000 C 
ATOM     16  C   UNL     1     -16.878  43.699 -13.121  0.00  0.00    +0.000 C 
ATOM     17  C   UNL     1     -16.878  42.227 -12.814  0.00  0.00    +0.000 C 
ENDBRANCH  14  15
ENDBRANCH  12  14
ENDBRANCH   2  12
TORSDOF 4
ENDMDL
MODEL 2
REMARK VINA RESULT:    -5.267      2.989      4.784
REMARK INTER + INTRA:          -7.234
REMARK INTER:                  -6.672
REMARK INTRA:                  -0.562
REMARK UNBOUND:                -0.736
REMARK  Name = 71862551
REMARK  5 active torsions:
REMARK  status: ('A' for Active; 'I' for Inactive)
REMARK    1  A    between atoms: N_2  and  C_8
REMARK    2  A    between atoms: N_2  and  C_9
REMARK    3  A    between atoms: N_4  and  C_15
REMARK    4  A    between atoms: C_5  and  C_8
REMARK    5  A    between atoms: C_10  and  C_12
REMARK                            x       y       z     vdW  Elec       q    Type
REMARK                         _______ _______ _______ _____ _____    ______ ____
ROOT
ATOM      1  N   UNL     1     -19.194  40.640 -13.148  0.00  0.00    +0.000 NA
ATOM      2  C   UNL     1     -18.251  41.587 -12.935  0.00  0.00    +0.000 A 
ATOM      3  C   UNL     1     -17.380  41.585 -11.859  0.00  0.00    +0.000 A 
ATOM      4  C   UNL     1     -17.481  40.544 -10.942  0.00  0.00    +0.000 A 
ATOM      5  C   UNL     1     -19.262  39.646 -12.236  0.00  0.00    +0.000 A 
ATOM      6  C   UNL     1     -18.438  39.553 -11.127  0.00  0.00    +0.000 A 
ENDROOT
BRANCH   3   9
ATOM      7  O   UNL     1     -16.697  43.822 -11.690  0.00  0.00    +0.000 OA
ATOM      8  N   UNL     1     -15.069  42.195 -11.398  0.00  0.00    +0.000 N 
ATOM      9  C   UNL     1     -16.377  42.621 -11.655  0.00  0.00    +0.000 C 
ATOM     10  C   UNL     1     -13.970  43.101 -11.151  0.00  0.00    +0.000 C 
ATOM     11  H   UNL     1     -14.868  41.199 -11.398  0.00  0.00    +0.000 HD
ENDBRANCH   3   9
BRANCH   2  12
ATOM     12  N   UNL     1     -18.160  42.622 -13.852  0.00  0.00    +0.000 N 
ATOM     13  H   UNL     1     -17.235  42.994 -14.041  0.00  0.00    +0.000 HD
BRANCH  12  14
ATOM     14  C   UNL     1     -19.281  43.438 -14.255  0.00  0.00    +0.000 C 
BRANCH  14  15
ATOM     15  C   UNL     1     -19.680  43.135 -15.657  0.00  0.00    +0.000 C 
ATOM     16  C   UNL     1     -20.051  44.249 -16.597  0.00  0.00    +0.000 C 
ATOM     17  C   UNL     1     -21.109  43.308 -16.093  0.00  0.00    +0.000 C 
ENDBRANCH  14  15
ENDBRANCH  12  14
ENDBRANCH   2  12
TORSDOF 4
ENDMDL
MODEL 3
REMARK VINA RESULT:    -5.045      3.335      5.090
REMARK INTER + INTRA:          -6.961
REMARK INTER:                  -6.402
REMARK INTRA:                  -0.559
REMARK UNBOUND:                -0.736
REMARK  Name = 71862551
REMARK  5 active torsions:
REMARK  status: ('A' for Active; 'I' for Inactive)
REMARK    1  A    between atoms: N_2  and  C_8
REMARK    2  A    between atoms: N_2  and  C_9
REMARK    3  A    between atoms: N_4  and  C_15
REMARK    4  A    between atoms: C_5  and  C_8
REMARK    5  A    between atoms: C_10  and  C_12
REMARK                            x       y       z     vdW  Elec       q    Type
REMARK                         _______ _______ _______ _____ _____    ______ ____
ROOT
ATOM      1  N   UNL     1     -19.311  40.456 -13.085  0.00  0.00    +0.000 NA
ATOM      2  C   UNL     1     -18.702  41.658 -13.206  0.00  0.00    +0.000 A 
ATOM      3  C   UNL     1     -17.922  42.235 -12.217  0.00  0.00    +0.000 A 
ATOM      4  C   UNL     1     -17.755  41.533 -11.028  0.00  0.00    +0.000 A 
ATOM      5  C   UNL     1     -19.126  39.805 -11.915  0.00  0.00    +0.000 A 
ATOM      6  C   UNL     1     -18.365  40.295 -10.866  0.00  0.00    +0.000 A 
ENDROOT
BRANCH   3   9
ATOM      7  O   UNL     1     -16.392  43.695 -13.229  0.00  0.00    +0.000 OA
ATOM      8  N   UNL     1     -17.734  44.568 -11.551  0.00  0.00    +0.000 N 
ATOM      9  C   UNL     1     -17.282  43.533 -12.377  0.00  0.00    +0.000 C 
ATOM     10  C   UNL     1     -17.217  45.916 -11.606  0.00  0.00    +0.000 C 
ATOM     11  H   UNL     1     -18.455  44.368 -10.863  0.00  0.00    +0.000 HD
ENDBRANCH   3   9
BRANCH   2  12
ATOM     12  N   UNL     1     -18.877  42.351 -14.392  0.00  0.00    +0.000 N 
ATOM     13  H   UNL     1     -18.040  42.661 -14.876  0.00  0.00    +0.000 HD
BRANCH  12  14
ATOM     14  C   UNL     1     -20.119  42.976 -14.781  0.00  0.00    +0.000 C 
BRANCH  14  15
ATOM     15  C   UNL     1     -20.058  43.446 -16.193  0.00  0.00    +0.000 C 
ATOM     16  C   UNL     1     -21.278  44.032 -16.850  0.00  0.00    +0.000 C 
ATOM     17  C   UNL     1     -20.768  42.683 -17.276  0.00  0.00    +0.000 C 
ENDBRANCH  14  15
ENDBRANCH  12  14
ENDBRANCH   2  12
TORSDOF 4
ENDMDL
MODEL 4
REMARK VINA RESULT:    -5.028      2.876      5.191
REMARK INTER + INTRA:          -6.940
REMARK INTER:                  -6.236
REMARK INTRA:                  -0.705
REMARK UNBOUND:                -0.736
REMARK  Name = 71862551
REMARK  5 active torsions:
REMARK  status: ('A' for Active; 'I' for Inactive)
REMARK    1  A    between atoms: N_2  and  C_8
REMARK    2  A    between atoms: N_2  and  C_9
REMARK    3  A    between atoms: N_4  and  C_15
REMARK    4  A    between atoms: C_5  and  C_8
REMARK    5  A    between atoms: C_10  and  C_12
REMARK                            x       y       z     vdW  Elec       q    Type
REMARK                         _______ _______ _______ _____ _____    ______ ____
ROOT
ATOM      1  N   UNL     1     -16.116  43.538 -12.262  0.00  0.00    +0.000 NA
ATOM      2  C   UNL     1     -17.063  42.960 -13.035  0.00  0.00    +0.000 A 
ATOM      3  C   UNL     1     -18.095  43.653 -13.646  0.00  0.00    +0.000 A 
ATOM      4  C   UNL     1     -18.159  45.029 -13.452  0.00  0.00    +0.000 A 
ATOM      5  C   UNL     1     -16.211  44.876 -12.097  0.00  0.00    +0.000 A 
ATOM      6  C   UNL     1     -17.203  45.659 -12.664  0.00  0.00    +0.000 A 
ENDROOT
BRANCH   3   9
ATOM      7  O   UNL     1     -19.825  42.109 -13.993  0.00  0.00    +0.000 OA
ATOM      8  N   UNL     1     -19.224  43.444 -15.792  0.00  0.00    +0.000 N 
ATOM      9  C   UNL     1     -19.103  43.001 -14.470  0.00  0.00    +0.000 C 
ATOM     10  C   UNL     1     -20.193  42.914 -16.725  0.00  0.00    +0.000 C 
ATOM     11  H   UNL     1     -18.594  44.166 -16.128  0.00  0.00    +0.000 HD
ENDBRANCH   3   9
BRANCH   2  12
ATOM     12  N   UNL     1     -16.994  41.588 -13.220  0.00  0.00    +0.000 N 
ATOM     13  H   UNL     1     -17.194  41.235 -14.150  0.00  0.00    +0.000 HD
BRANCH  12  14
ATOM     14  C   UNL     1     -17.034  40.630 -12.141  0.00  0.00    +0.000 C 
BRANCH  14  15
ATOM     15  C   UNL     1     -18.190  40.893 -11.240  0.00  0.00    +0.000 C 
ATOM     16  C   UNL     1     -18.146  40.454  -9.802  0.00  0.00    +0.000 C 
ATOM     17  C   UNL     1     -19.060  39.759 -10.772  0.00  0.00    +0.000 C 
ENDBRANCH  14  15
ENDBRANCH  12  14
ENDBRANCH   2  12
TORSDOF 4
ENDMDL
MODEL 5
REMARK VINA RESULT:    -4.958      3.521      5.164
REMARK INTER + INTRA:          -6.853
REMARK INTER:                  -6.272
REMARK INTRA:                  -0.581
REMARK UNBOUND:                -0.736
REMARK  Name = 71862551
REMARK  5 active torsions:
REMARK  status: ('A' for Active; 'I' for Inactive)
REMARK    1  A    between atoms: N_2  and  C_8
REMARK    2  A    between atoms: N_2  and  C_9
REMARK    3  A    between atoms: N_4  and  C_15
REMARK    4  A    between atoms: C_5  and  C_8
REMARK    5  A    between atoms: C_10  and  C_12
REMARK                            x       y       z     vdW  Elec       q    Type
REMARK                         _______ _______ _______ _____ _____    ______ ____
ROOT
ATOM      1  N   UNL     1     -18.492  45.207 -13.764  0.00  0.00    +0.000 NA
ATOM      2  C   UNL     1     -18.403  43.866 -13.610  0.00  0.00    +0.000 A 
ATOM      3  C   UNL     1     -17.937  43.247 -12.462  0.00  0.00    +0.000 A 
ATOM      4  C   UNL     1     -17.537  44.055 -11.403  0.00  0.00    +0.000 A 
ATOM      5  C   UNL     1     -18.095  45.960 -12.713  0.00  0.00    +0.000 A 
ATOM      6  C   UNL     1     -17.614  45.437 -11.524  0.00  0.00    +0.000 A 
ENDROOT
BRANCH   3   9
ATOM      7  O   UNL     1     -17.070  41.148 -13.043  0.00  0.00    +0.000 OA
ATOM      8  N   UNL     1     -18.657  41.203 -11.353  0.00  0.00    +0.000 N 
ATOM      9  C   UNL     1     -17.849  41.800 -12.328  0.00  0.00    +0.000 C 
ATOM     10  C   UNL     1     -18.664  39.783 -11.083  0.00  0.00    +0.000 C 
ATOM     11  H   UNL     1     -19.285  41.789 -10.810  0.00  0.00    +0.000 HD
ENDBRANCH   3   9
BRANCH   2  12
ATOM     12  N   UNL     1     -18.800  43.069 -14.671  0.00  0.00    +0.000 N 
ATOM     13  H   UNL     1     -18.071  42.713 -15.282  0.00  0.00    +0.000 HD
BRANCH  12  14
ATOM     14  C   UNL     1     -20.151  43.023 -15.179  0.00  0.00    +0.000 C 
BRANCH  14  15
ATOM     15  C   UNL     1     -20.180  43.323 -16.637  0.00  0.00    +0.000 C 
ATOM     16  C   UNL     1     -21.262  44.197 -17.210  0.00  0.00    +0.000 C 
ATOM     17  C   UNL     1     -21.246  42.724 -17.512  0.00  0.00    +0.000 C 
ENDBRANCH  14  15
ENDBRANCH  12  14
ENDBRANCH   2  12
TORSDOF 4
ENDMDL
