MODEL 1
REMARK VINA RESULT:    -5.121      0.000      0.000
REMARK INTER + INTRA:          -6.027
REMARK INTER:                  -5.719
REMARK INTRA:                  -0.308
REMARK UNBOUND:                -0.308
REMARK  Name = 72217725
REMARK  2 active torsions:
REMARK  status: ('A' for Active; 'I' for Inactive)
REMARK    1  A    between atoms: C_5  and  C_10
REMARK    2  A    between atoms: C_6  and  C_11
REMARK                            x       y       z     vdW  Elec       q    Type
REMARK                         _______ _______ _______ _____ _____    ______ ____
ROOT
ATOM      1  N   UNL     1     -19.506  39.751  -9.546  0.00  0.00    +0.000 NA
ATOM      2  N   UNL     1     -19.560  38.852 -11.738  0.00  0.00    +0.000 N 
ATOM      3  C   UNL     1     -18.410  40.930 -11.350  0.00  0.00    +0.000 A 
ATOM      4  C   UNL     1     -18.012  41.927 -10.466  0.00  0.00    +0.000 A 
ATOM      5  C   UNL     1     -19.149  39.872 -10.844  0.00  0.00    +0.000 A 
ATOM      6  C   UNL     1     -18.361  41.837  -9.122  0.00  0.00    +0.000 A 
ATOM      7  C   UNL     1     -19.102  40.740  -8.717  0.00  0.00    +0.000 A 
ATOM      8  H   UNL     1     -19.755  39.099 -12.700  0.00  0.00    +0.000 HD
ATOM      9  H   UNL     1     -20.092  38.089 -11.335  0.00  0.00    +0.000 HD
ENDROOT
BRANCH   3  11
ATOM     10  O   UNL     1     -18.885  41.190 -13.652  0.00  0.00    +0.000 OA
ATOM     11  C   UNL     1     -18.054  41.006 -12.763  0.00  0.00    +0.000 C 
ENDBRANCH   3  11
BRANCH   4  13
ATOM     12  O   UNL     1     -17.747  44.130 -11.288  0.00  0.00    +0.000 OA
ATOM     13  C   UNL     1     -17.233  43.075 -10.911  0.00  0.00    +0.000 C 
ENDBRANCH   4  13
TORSDOF 2
ENDMDL
MODEL 2
REMARK VINA RESULT:    -4.855      2.151      3.247
REMARK INTER + INTRA:          -5.731
REMARK INTER:                  -5.420
REMARK INTRA:                  -0.311
REMARK UNBOUND:                -0.308
REMARK  Name = 72217725
REMARK  2 active torsions:
REMARK  status: ('A' for Active; 'I' for Inactive)
REMARK    1  A    between atoms: C_5  and  C_10
REMARK    2  A    between atoms: C_6  and  C_11
REMARK                            x       y       z     vdW  Elec       q    Type
REMARK                         _______ _______ _______ _____ _____    ______ ____
ROOT
ATOM      1  N   UNL     1     -17.604  39.418 -11.239  0.00  0.00    +0.000 NA
ATOM      2  N   UNL     1     -15.502  40.513 -11.235  0.00  0.00    +0.000 N 
ATOM      3  C   UNL     1     -17.360  41.543 -12.366  0.00  0.00    +0.000 A 
ATOM      4  C   UNL     1     -18.698  41.506 -12.742  0.00  0.00    +0.000 A 
ATOM      5  C   UNL     1     -16.865  40.485 -11.622  0.00  0.00    +0.000 A 
ATOM      6  C   UNL     1     -19.490  40.426 -12.367  0.00  0.00    +0.000 A 
ATOM      7  C   UNL     1     -18.900  39.417 -11.624  0.00  0.00    +0.000 A 
ATOM      8  H   UNL     1     -14.834  40.965 -11.846  0.00  0.00    +0.000 HD
ATOM      9  H   UNL     1     -15.174  39.728 -10.686  0.00  0.00    +0.000 HD
ENDROOT
BRANCH   3  11
ATOM     10  O   UNL     1     -16.017  43.441 -11.929  0.00  0.00    +0.000 OA
ATOM     11  C   UNL     1     -16.513  42.669 -12.750  0.00  0.00    +0.000 C 
ENDBRANCH   3  11
BRANCH   4  13
ATOM     12  O   UNL     1     -19.941  42.374 -14.559  0.00  0.00    +0.000 OA
ATOM     13  C   UNL     1     -19.301  42.577 -13.525  0.00  0.00    +0.000 C 
ENDBRANCH   4  13
TORSDOF 2
ENDMDL
MODEL 3
REMARK VINA RESULT:    -4.689      1.745      2.993
REMARK INTER + INTRA:          -5.545
REMARK INTER:                  -5.251
REMARK INTRA:                  -0.295
REMARK UNBOUND:                -0.308
REMARK  Name = 72217725
REMARK  2 active torsions:
REMARK  status: ('A' for Active; 'I' for Inactive)
REMARK    1  A    between atoms: C_5  and  C_10
REMARK    2  A    between atoms: C_6  and  C_11
REMARK                            x       y       z     vdW  Elec       q    Type
REMARK                         _______ _______ _______ _____ _____    ______ ____
ROOT
ATOM      1  N   UNL     1     -19.220  39.395 -11.708  0.00  0.00    +0.000 NA
ATOM      2  N   UNL     1     -20.294  39.823  -9.639  0.00  0.00    +0.000 N 
ATOM      3  C   UNL     1     -18.462  41.226 -10.323  0.00  0.00    +0.000 A 
ATOM      4  C   UNL     1     -17.485  41.543 -11.261  0.00  0.00    +0.000 A 
ATOM      5  C   UNL     1     -19.296  40.154 -10.590  0.00  0.00    +0.000 A 
ATOM      6  C   UNL     1     -17.376  40.786 -12.423  0.00  0.00    +0.000 A 
ATOM      7  C   UNL     1     -18.258  39.732 -12.597  0.00  0.00    +0.000 A 
ATOM      8  H   UNL     1     -20.105  39.994  -8.659  0.00  0.00    +0.000 HD
ATOM      9  H   UNL     1     -20.892  39.038  -9.869  0.00  0.00    +0.000 HD
ENDROOT
BRANCH   3  11
ATOM     10  O   UNL     1     -18.546  41.505  -7.975  0.00  0.00    +0.000 OA
ATOM     11  C   UNL     1     -18.593  42.009  -9.097  0.00  0.00    +0.000 C 
ENDBRANCH   3  11
BRANCH   4  13
ATOM     12  O   UNL     1     -15.389  42.626 -11.428  0.00  0.00    +0.000 OA
ATOM     13  C   UNL     1     -16.566  42.655 -11.061  0.00  0.00    +0.000 C 
ENDBRANCH   4  13
TORSDOF 2
ENDMDL
MODEL 4
REMARK VINA RESULT:    -4.628      2.209      3.110
REMARK INTER + INTRA:          -5.477
REMARK INTER:                  -5.162
REMARK INTRA:                  -0.315
REMARK UNBOUND:                -0.308
REMARK  Name = 72217725
REMARK  2 active torsions:
REMARK  status: ('A' for Active; 'I' for Inactive)
REMARK    1  A    between atoms: C_5  and  C_10
REMARK    2  A    between atoms: C_6  and  C_11
REMARK                            x       y       z     vdW  Elec       q    Type
REMARK                         _______ _______ _______ _____ _____    ______ ____
ROOT
ATOM      1  N   UNL     1     -19.712  41.839 -13.576  0.00  0.00    +0.000 NA
ATOM      2  N   UNL     1     -19.939  39.794 -12.400  0.00  0.00    +0.000 N 
ATOM      3  C   UNL     1     -18.246  41.361 -11.714  0.00  0.00    +0.000 A 
ATOM      4  C   UNL     1     -17.607  42.584 -11.892  0.00  0.00    +0.000 A 
ATOM      5  C   UNL     1     -19.283  41.039 -12.574  0.00  0.00    +0.000 A 
ATOM      6  C   UNL     1     -18.020  43.434 -12.913  0.00  0.00    +0.000 A 
ATOM      7  C   UNL     1     -19.066  43.019 -13.720  0.00  0.00    +0.000 A 
ATOM      8  H   UNL     1     -19.405  39.010 -12.048  0.00  0.00    +0.000 HD
ATOM      9  H   UNL     1     -20.698  39.593 -13.040  0.00  0.00    +0.000 HD
ENDROOT
BRANCH   3  11
ATOM     10  O   UNL     1     -18.552  40.164  -9.697  0.00  0.00    +0.000 OA
ATOM     11  C   UNL     1     -17.827  40.455 -10.649  0.00  0.00    +0.000 C 
ENDBRANCH   3  11
BRANCH   4  13
ATOM     12  O   UNL     1     -15.323  42.871 -11.348  0.00  0.00    +0.000 OA
ATOM     13  C   UNL     1     -16.508  43.003 -11.034  0.00  0.00    +0.000 C 
ENDBRANCH   4  13
TORSDOF 2
ENDMDL
MODEL 5
REMARK VINA RESULT:    -4.620      1.886      2.017
REMARK INTER + INTRA:          -5.468
REMARK INTER:                  -5.153
REMARK INTRA:                  -0.315
REMARK UNBOUND:                -0.308
REMARK  Name = 72217725
REMARK  2 active torsions:
REMARK  status: ('A' for Active; 'I' for Inactive)
REMARK    1  A    between atoms: C_5  and  C_10
REMARK    2  A    between atoms: C_6  and  C_11
REMARK                            x       y       z     vdW  Elec       q    Type
REMARK                         _______ _______ _______ _____ _____    ______ ____
ROOT
ATOM      1  N   UNL     1     -17.867  39.689 -11.452  0.00  0.00    +0.000 NA
ATOM      2  N   UNL     1     -19.925  39.723 -12.626  0.00  0.00    +0.000 N 
ATOM      3  C   UNL     1     -18.613  41.737 -12.498  0.00  0.00    +0.000 A 
ATOM      4  C   UNL     1     -17.470  42.391 -12.050  0.00  0.00    +0.000 A 
ATOM      5  C   UNL     1     -18.763  40.398 -12.175  0.00  0.00    +0.000 A 
ATOM      6  C   UNL     1     -16.526  41.695 -11.303  0.00  0.00    +0.000 A 
ATOM      7  C   UNL     1     -16.769  40.359 -11.033  0.00  0.00    +0.000 A 
ATOM      8  H   UNL     1     -20.786  40.248 -12.717  0.00  0.00    +0.000 HD
ATOM      9  H   UNL     1     -20.000  38.744 -12.380  0.00  0.00    +0.000 HD
ENDROOT
BRANCH   3  11
ATOM     10  O   UNL     1     -19.852  42.186 -14.462  0.00  0.00    +0.000 OA
ATOM     11  C   UNL     1     -19.616  42.450 -13.283  0.00  0.00    +0.000 C 
ENDBRANCH   3  11
BRANCH   4  13
ATOM     12  O   UNL     1     -17.492  44.703 -11.549  0.00  0.00    +0.000 OA
ATOM     13  C   UNL     1     -17.232  43.798 -12.344  0.00  0.00    +0.000 C 
ENDBRANCH   4  13
TORSDOF 2
ENDMDL
