MODEL 1
REMARK VINA RESULT:    -5.430      0.000      0.000
REMARK INTER + INTRA:          -6.140
REMARK INTER:                  -5.907
REMARK INTRA:                  -0.234
REMARK UNBOUND:                -0.234
REMARK  Name = 73012506
REMARK  2 active torsions:
REMARK  status: ('A' for Active; 'I' for Inactive)
REMARK    1  A    between atoms: N_4  and  C_7
REMARK    2  A    between atoms: C_6  and  C_10
REMARK                            x       y       z     vdW  Elec       q    Type
REMARK                         _______ _______ _______ _____ _____    ______ ____
ROOT
ATOM      1  I   UNL     1     -17.119  44.950 -12.479  0.00  0.00    +0.000 I 
ATOM      2  N   UNL     1     -19.062  41.257 -13.587  0.00  0.00    +0.000 NA
ATOM      3  C   UNL     1     -18.776  41.160 -11.188  0.00  0.00    +0.000 A 
ATOM      4  C   UNL     1     -19.200  40.631 -12.396  0.00  0.00    +0.000 A 
ATOM      5  C   UNL     1     -18.171  42.413 -11.203  0.00  0.00    +0.000 A 
ATOM      6  C   UNL     1     -18.011  43.087 -12.408  0.00  0.00    +0.000 A 
ATOM      7  C   UNL     1     -18.470  42.472 -13.562  0.00  0.00    +0.000 A 
ENDROOT
BRANCH   3  10
ATOM      8  O   UNL     1     -19.995  39.874  -9.637  0.00  0.00    +0.000 OA
ATOM      9  N   UNL     1     -17.858  40.458  -9.044  0.00  0.00    +0.000 N 
ATOM     10  C   UNL     1     -18.938  40.462  -9.921  0.00  0.00    +0.000 C 
ATOM     11  H   UNL     1     -16.984  40.925  -9.262  0.00  0.00    +0.000 HD
ATOM     12  H   UNL     1     -17.914  39.981  -8.150  0.00  0.00    +0.000 HD
ENDBRANCH   3  10
BRANCH   4  13
ATOM     13  N   UNL     1     -19.817  39.356 -12.389  0.00  0.00    +0.000 N 
ATOM     14  H   UNL     1     -20.712  39.246 -12.850  0.00  0.00    +0.000 HD
ATOM     15  H   UNL     1     -19.629  38.767 -11.586  0.00  0.00    +0.000 HD
ENDBRANCH   4  13
TORSDOF 2
ENDMDL
MODEL 2
REMARK VINA RESULT:    -4.808      2.041      2.743
REMARK INTER + INTRA:          -5.463
REMARK INTER:                  -5.241
REMARK INTRA:                  -0.222
REMARK UNBOUND:                -0.234
REMARK  Name = 73012506
REMARK  2 active torsions:
REMARK  status: ('A' for Active; 'I' for Inactive)
REMARK    1  A    between atoms: N_4  and  C_7
REMARK    2  A    between atoms: C_6  and  C_10
REMARK                            x       y       z     vdW  Elec       q    Type
REMARK                         _______ _______ _______ _____ _____    ______ ____
ROOT
ATOM      1  I   UNL     1     -17.841  45.616 -11.950  0.00  0.00    +0.000 I 
ATOM      2  N   UNL     1     -15.437  42.050 -11.568  0.00  0.00    +0.000 NA
ATOM      3  C   UNL     1     -17.726  41.290 -11.737  0.00  0.00    +0.000 A 
ATOM      4  C   UNL     1     -16.365  41.067 -11.605  0.00  0.00    +0.000 A 
ATOM      5  C   UNL     1     -18.163  42.607 -11.838  0.00  0.00    +0.000 A 
ATOM      6  C   UNL     1     -17.238  43.645 -11.804  0.00  0.00    +0.000 A 
ATOM      7  C   UNL     1     -15.899  43.316 -11.669  0.00  0.00    +0.000 A 
ENDROOT
BRANCH   3  10
ATOM      8  O   UNL     1     -18.616  39.235 -11.009  0.00  0.00    +0.000 OA
ATOM      9  N   UNL     1     -19.750  40.318 -12.683  0.00  0.00    +0.000 N 
ATOM     10  C   UNL     1     -18.702  40.211 -11.774  0.00  0.00    +0.000 C 
ATOM     11  H   UNL     1     -19.840  41.112 -13.310  0.00  0.00    +0.000 HD
ATOM     12  H   UNL     1     -20.461  39.598 -12.747  0.00  0.00    +0.000 HD
ENDBRANCH   3  10
BRANCH   4  13
ATOM     13  N   UNL     1     -15.913  39.729 -11.501  0.00  0.00    +0.000 N 
ATOM     14  H   UNL     1     -15.251  39.386 -12.186  0.00  0.00    +0.000 HD
ATOM     15  H   UNL     1     -16.563  39.061 -11.103  0.00  0.00    +0.000 HD
ENDBRANCH   4  13
TORSDOF 2
ENDMDL
MODEL 3
REMARK VINA RESULT:    -4.796      1.749      1.857
REMARK INTER + INTRA:          -5.450
REMARK INTER:                  -5.217
REMARK INTRA:                  -0.233
REMARK UNBOUND:                -0.234
REMARK  Name = 73012506
REMARK  2 active torsions:
REMARK  status: ('A' for Active; 'I' for Inactive)
REMARK    1  A    between atoms: N_4  and  C_7
REMARK    2  A    between atoms: C_6  and  C_10
REMARK                            x       y       z     vdW  Elec       q    Type
REMARK                         _______ _______ _______ _____ _____    ______ ____
ROOT
ATOM      1  I   UNL     1     -14.110  43.780 -11.704  0.00  0.00    +0.000 I 
ATOM      2  N   UNL     1     -17.927  42.676 -13.392  0.00  0.00    +0.000 NA
ATOM      3  C   UNL     1     -17.634  41.274 -11.445  0.00  0.00    +0.000 A 
ATOM      4  C   UNL     1     -18.351  41.709 -12.547  0.00  0.00    +0.000 A 
ATOM      5  C   UNL     1     -16.403  41.869 -11.192  0.00  0.00    +0.000 A 
ATOM      6  C   UNL     1     -15.933  42.867 -12.039  0.00  0.00    +0.000 A 
ATOM      7  C   UNL     1     -16.726  43.231 -13.115  0.00  0.00    +0.000 A 
ENDROOT
BRANCH   3  10
ATOM      8  O   UNL     1     -18.651  39.198 -10.993  0.00  0.00    +0.000 OA
ATOM      9  N   UNL     1     -17.943  40.418  -9.185  0.00  0.00    +0.000 N 
ATOM     10  C   UNL     1     -18.118  40.230 -10.552  0.00  0.00    +0.000 C 
ATOM     11  H   UNL     1     -17.502  41.250  -8.807  0.00  0.00    +0.000 HD
ATOM     12  H   UNL     1     -18.255  39.719  -8.518  0.00  0.00    +0.000 HD
ENDBRANCH   3  10
BRANCH   4  13
ATOM     13  N   UNL     1     -19.606  41.107 -12.811  0.00  0.00    +0.000 N 
ATOM     14  H   UNL     1     -19.626  40.224 -13.305  0.00  0.00    +0.000 HD
ATOM     15  H   UNL     1     -20.390  41.736 -12.943  0.00  0.00    +0.000 HD
ENDBRANCH   4  13
TORSDOF 2
ENDMDL
MODEL 4
REMARK VINA RESULT:    -4.384      6.399      7.589
REMARK INTER + INTRA:          -5.002
REMARK INTER:                  -4.749
REMARK INTRA:                  -0.253
REMARK UNBOUND:                -0.234
REMARK  Name = 73012506
REMARK  2 active torsions:
REMARK  status: ('A' for Active; 'I' for Inactive)
REMARK    1  A    between atoms: N_4  and  C_7
REMARK    2  A    between atoms: C_6  and  C_10
REMARK                            x       y       z     vdW  Elec       q    Type
REMARK                         _______ _______ _______ _____ _____    ______ ____
ROOT
ATOM      1  I   UNL     1     -20.479  47.587 -20.151  0.00  0.00    +0.000 I 
ATOM      2  N   UNL     1     -23.106  45.735 -17.268  0.00  0.00    +0.000 NA
ATOM      3  C   UNL     1     -21.152  44.318 -17.387  0.00  0.00    +0.000 A 
ATOM      4  C   UNL     1     -22.402  44.645 -16.890  0.00  0.00    +0.000 A 
ATOM      5  C   UNL     1     -20.585  45.166 -18.334  0.00  0.00    +0.000 A 
ATOM      6  C   UNL     1     -21.279  46.298 -18.747  0.00  0.00    +0.000 A 
ATOM      7  C   UNL     1     -22.525  46.536 -18.189  0.00  0.00    +0.000 A 
ENDROOT
BRANCH   3  10
ATOM      8  O   UNL     1     -20.708  42.005 -17.387  0.00  0.00    +0.000 OA
ATOM      9  N   UNL     1     -19.362  43.317 -16.072  0.00  0.00    +0.000 N 
ATOM     10  C   UNL     1     -20.417  43.135 -16.961  0.00  0.00    +0.000 C 
ATOM     11  H   UNL     1     -19.105  44.233 -15.719  0.00  0.00    +0.000 HD
ATOM     12  H   UNL     1     -18.813  42.528 -15.746  0.00  0.00    +0.000 HD
ENDBRANCH   3  10
BRANCH   4  13
ATOM     13  N   UNL     1     -22.985  43.785 -15.926  0.00  0.00    +0.000 N 
ATOM     14  H   UNL     1     -23.088  44.120 -14.976  0.00  0.00    +0.000 HD
ATOM     15  H   UNL     1     -22.839  42.791 -16.059  0.00  0.00    +0.000 HD
ENDBRANCH   4  13
TORSDOF 2
ENDMDL
MODEL 5
REMARK VINA RESULT:    -4.013     20.380     21.849
REMARK INTER + INTRA:          -4.599
REMARK INTER:                  -4.320
REMARK INTRA:                  -0.279
REMARK UNBOUND:                -0.234
REMARK  Name = 73012506
REMARK  2 active torsions:
REMARK  status: ('A' for Active; 'I' for Inactive)
REMARK    1  A    between atoms: N_4  and  C_7
REMARK    2  A    between atoms: C_6  and  C_10
REMARK                            x       y       z     vdW  Elec       q    Type
REMARK                         _______ _______ _______ _____ _____    ______ ____
ROOT
ATOM      1  I   UNL     1     -23.146  32.885   5.884  0.00  0.00    +0.000 I 
ATOM      2  N   UNL     1     -22.085  29.104   4.090  0.00  0.00    +0.000 NA
ATOM      3  C   UNL     1     -23.636  28.581   5.869  0.00  0.00    +0.000 A 
ATOM      4  C   UNL     1     -22.803  28.222   4.823  0.00  0.00    +0.000 A 
ATOM      5  C   UNL     1     -23.742  29.932   6.184  0.00  0.00    +0.000 A 
ATOM      6  C   UNL     1     -23.020  30.868   5.453  0.00  0.00    +0.000 A 
ATOM      7  C   UNL     1     -22.214  30.407   4.425  0.00  0.00    +0.000 A 
ENDROOT
BRANCH   3  10
ATOM      8  O   UNL     1     -25.209  26.842   6.096  0.00  0.00    +0.000 OA
ATOM      9  N   UNL     1     -24.165  27.549   8.012  0.00  0.00    +0.000 N 
ATOM     10  C   UNL     1     -24.396  27.608   6.641  0.00  0.00    +0.000 C 
ATOM     11  H   UNL     1     -23.499  28.160   8.474  0.00  0.00    +0.000 HD
ATOM     12  H   UNL     1     -24.662  26.885   8.597  0.00  0.00    +0.000 HD
ENDBRANCH   3  10
BRANCH   4  13
ATOM     13  N   UNL     1     -22.689  26.848   4.497  0.00  0.00    +0.000 N 
ATOM     14  H   UNL     1     -23.200  26.174   5.054  0.00  0.00    +0.000 HD
ATOM     15  H   UNL     1     -21.809  26.551   4.092  0.00  0.00    +0.000 HD
ENDBRANCH   4  13
TORSDOF 2
ENDMDL
