MODEL 1
REMARK VINA RESULT:    -8.052      0.000      0.000
REMARK INTER + INTRA:          -8.052
REMARK INTER:                  -8.052
REMARK INTRA:                   0.000
REMARK UNBOUND:                 0.000
REMARK  Name = 73885319
REMARK  1 active torsions:
REMARK  status: ('A' for Active; 'I' for Inactive)
REMARK    1  A    between atoms: C_7  and  C_13
REMARK                            x       y       z     vdW  Elec       q    Type
REMARK                         _______ _______ _______ _____ _____    ______ ____
ROOT
ATOM      1  O   UNL     1     -19.245  38.964 -11.054  0.00  0.00    +0.000 OA
ATOM      2  N   UNL     1     -19.352  41.064 -11.994  0.00  0.00    +0.000 NA
ATOM      3  N   UNL     1     -17.480  42.124  -9.802  0.00  0.00    +0.000 NA
ATOM      4  N   UNL     1     -16.126  42.643 -11.548  0.00  0.00    +0.000 NA
ATOM      5  N   UNL     1     -18.843  42.334  -7.945  0.00  0.00    +0.000 NA
ATOM      6  C   UNL     1     -18.479  42.017 -12.076  0.00  0.00    +0.000 A 
ATOM      7  C   UNL     1     -18.475  42.978 -13.214  0.00  0.00    +0.000 A 
ATOM      8  C   UNL     1     -17.357  42.235 -11.086  0.00  0.00    +0.000 A 
ATOM      9  C   UNL     1     -19.530  40.774  -9.625  0.00  0.00    +0.000 A 
ATOM     10  C   UNL     1     -18.666  41.753  -9.156  0.00  0.00    +0.000 A 
ATOM     11  C   UNL     1     -17.327  43.614 -13.479  0.00  0.00    +0.000 A 
ATOM     12  C   UNL     1     -19.327  40.182 -10.948  0.00  0.00    +0.000 A 
ATOM     13  C   UNL     1     -19.728  43.157 -14.007  0.00  0.00    +0.000 C 
ATOM     14  C   UNL     1     -20.607  40.363  -8.841  0.00  0.00    +0.000 A 
ATOM     15  C   UNL     1     -16.136  43.292 -12.665  0.00  0.00    +0.000 A 
ATOM     16  C   UNL     1     -20.804  40.957  -7.603  0.00  0.00    +0.000 A 
ATOM     17  C   UNL     1     -19.905  41.931  -7.206  0.00  0.00    +0.000 A 
ENDROOT
TORSDOF 0
ENDMDL
MODEL 2
REMARK VINA RESULT:    -6.600      2.237      5.251
REMARK INTER + INTRA:          -6.600
REMARK INTER:                  -6.600
REMARK INTRA:                   0.000
REMARK UNBOUND:                 0.000
REMARK  Name = 73885319
REMARK  1 active torsions:
REMARK  status: ('A' for Active; 'I' for Inactive)
REMARK    1  A    between atoms: C_7  and  C_13
REMARK                            x       y       z     vdW  Elec       q    Type
REMARK                         _______ _______ _______ _____ _____    ______ ____
ROOT
ATOM      1  O   UNL     1     -15.057  43.002 -11.764  0.00  0.00    +0.000 OA
ATOM      2  N   UNL     1     -17.023  42.335 -10.766  0.00  0.00    +0.000 NA
ATOM      3  N   UNL     1     -18.371  42.239 -13.524  0.00  0.00    +0.000 NA
ATOM      4  N   UNL     1     -18.689  40.048 -13.023  0.00  0.00    +0.000 NA
ATOM      5  N   UNL     1     -18.789  44.457 -14.029  0.00  0.00    +0.000 NA
ATOM      6  C   UNL     1     -17.970  41.549 -11.170  0.00  0.00    +0.000 A 
ATOM      7  C   UNL     1     -18.783  40.750 -10.212  0.00  0.00    +0.000 A 
ATOM      8  C   UNL     1     -18.325  41.313 -12.620  0.00  0.00    +0.000 A 
ATOM      9  C   UNL     1     -17.025  44.011 -12.475  0.00  0.00    +0.000 A 
ATOM     10  C   UNL     1     -18.066  43.585 -13.286  0.00  0.00    +0.000 A 
ATOM     11  C   UNL     1     -19.397  39.659 -10.687  0.00  0.00    +0.000 A 
ATOM     12  C   UNL     1     -16.277  43.048 -11.665  0.00  0.00    +0.000 A 
ATOM     13  C   UNL     1     -18.846  41.185  -8.784  0.00  0.00    +0.000 C 
ATOM     14  C   UNL     1     -16.699  45.365 -12.415  0.00  0.00    +0.000 A 
ATOM     15  C   UNL     1     -19.195  39.294 -12.104  0.00  0.00    +0.000 A 
ATOM     16  C   UNL     1     -17.439  46.269 -13.164  0.00  0.00    +0.000 A 
ATOM     17  C   UNL     1     -18.467  45.770 -13.944  0.00  0.00    +0.000 A 
ENDROOT
TORSDOF 0
ENDMDL
MODEL 3
REMARK VINA RESULT:    -6.392      2.303      3.752
REMARK INTER + INTRA:          -6.392
REMARK INTER:                  -6.392
REMARK INTRA:                   0.000
REMARK UNBOUND:                 0.000
REMARK  Name = 73885319
REMARK  1 active torsions:
REMARK  status: ('A' for Active; 'I' for Inactive)
REMARK    1  A    between atoms: C_7  and  C_13
REMARK                            x       y       z     vdW  Elec       q    Type
REMARK                         _______ _______ _______ _____ _____    ______ ____
ROOT
ATOM      1  O   UNL     1     -18.049  42.740  -9.112  0.00  0.00    +0.000 OA
ATOM      2  N   UNL     1     -16.566  43.031 -10.851  0.00  0.00    +0.000 NA
ATOM      3  N   UNL     1     -18.909  42.985 -12.836  0.00  0.00    +0.000 NA
ATOM      4  N   UNL     1     -18.189  45.072 -13.360  0.00  0.00    +0.000 NA
ATOM      5  N   UNL     1     -19.460  40.745 -13.012  0.00  0.00    +0.000 NA
ATOM      6  C   UNL     1     -16.674  43.656 -11.980  0.00  0.00    +0.000 A 
ATOM      7  C   UNL     1     -15.494  44.274 -12.646  0.00  0.00    +0.000 A 
ATOM      8  C   UNL     1     -17.977  43.875 -12.714  0.00  0.00    +0.000 A 
ATOM      9  C   UNL     1     -18.343  41.434 -11.011  0.00  0.00    +0.000 A 
ATOM     10  C   UNL     1     -18.849  41.703 -12.275  0.00  0.00    +0.000 A 
ATOM     11  C   UNL     1     -15.729  45.259 -13.522  0.00  0.00    +0.000 A 
ATOM     12  C   UNL     1     -17.666  42.484 -10.248  0.00  0.00    +0.000 A 
ATOM     13  C   UNL     1     -14.128  43.788 -12.285  0.00  0.00    +0.000 C 
ATOM     14  C   UNL     1     -18.461  40.154 -10.472  0.00  0.00    +0.000 A 
ATOM     15  C   UNL     1     -17.123  45.699 -13.736  0.00  0.00    +0.000 A 
ATOM     16  C   UNL     1     -19.076  39.162 -11.222  0.00  0.00    +0.000 A 
ATOM     17  C   UNL     1     -19.550  39.504 -12.476  0.00  0.00    +0.000 A 
ENDROOT
TORSDOF 0
ENDMDL
MODEL 4
REMARK VINA RESULT:    -6.151      3.833      5.475
REMARK INTER + INTRA:          -6.151
REMARK INTER:                  -6.151
REMARK INTRA:                   0.000
REMARK UNBOUND:                 0.000
REMARK  Name = 73885319
REMARK  1 active torsions:
REMARK  status: ('A' for Active; 'I' for Inactive)
REMARK    1  A    between atoms: C_7  and  C_13
REMARK                            x       y       z     vdW  Elec       q    Type
REMARK                         _______ _______ _______ _____ _____    ______ ____
ROOT
ATOM      1  O   UNL     1     -18.937  45.740 -12.479  0.00  0.00    +0.000 OA
ATOM      2  N   UNL     1     -18.614  45.236 -14.704  0.00  0.00    +0.000 NA
ATOM      3  N   UNL     1     -19.643  42.388 -14.190  0.00  0.00    +0.000 NA
ATOM      4  N   UNL     1     -21.232  42.949 -15.711  0.00  0.00    +0.000 NA
ATOM      5  N   UNL     1     -17.865  41.318 -13.169  0.00  0.00    +0.000 NA
ATOM      6  C   UNL     1     -19.260  44.458 -15.512  0.00  0.00    +0.000 A 
ATOM      7  C   UNL     1     -19.331  44.737 -16.974  0.00  0.00    +0.000 A 
ATOM      8  C   UNL     1     -20.042  43.237 -15.083  0.00  0.00    +0.000 A 
ATOM      9  C   UNL     1     -17.944  43.703 -12.992  0.00  0.00    +0.000 A 
ATOM     10  C   UNL     1     -18.444  42.503 -13.477  0.00  0.00    +0.000 A 
ATOM     11  C   UNL     1     -20.347  44.194 -17.656  0.00  0.00    +0.000 A 
ATOM     12  C   UNL     1     -18.576  44.971 -13.362  0.00  0.00    +0.000 A 
ATOM     13  C   UNL     1     -18.293  45.618 -17.589  0.00  0.00    +0.000 C 
ATOM     14  C   UNL     1     -16.824  43.706 -12.162  0.00  0.00    +0.000 A 
ATOM     15  C   UNL     1     -21.351  43.400 -16.916  0.00  0.00    +0.000 A 
ATOM     16  C   UNL     1     -16.217  42.498 -11.848  0.00  0.00    +0.000 A 
ATOM     17  C   UNL     1     -16.768  41.344 -12.375  0.00  0.00    +0.000 A 
ENDROOT
TORSDOF 0
ENDMDL
MODEL 5
REMARK VINA RESULT:    -6.055      2.371      3.485
REMARK INTER + INTRA:          -6.055
REMARK INTER:                  -6.055
REMARK INTRA:                   0.000
REMARK UNBOUND:                 0.000
REMARK  Name = 73885319
REMARK  1 active torsions:
REMARK  status: ('A' for Active; 'I' for Inactive)
REMARK    1  A    between atoms: C_7  and  C_13
REMARK                            x       y       z     vdW  Elec       q    Type
REMARK                         _______ _______ _______ _____ _____    ______ ____
ROOT
ATOM      1  O   UNL     1     -18.864  42.706 -14.429  0.00  0.00    +0.000 OA
ATOM      2  N   UNL     1     -18.366  44.291 -12.833  0.00  0.00    +0.000 NA
ATOM      3  N   UNL     1     -16.068  42.524 -11.819  0.00  0.00    +0.000 NA
ATOM      4  N   UNL     1     -14.777  44.307 -12.372  0.00  0.00    +0.000 NA
ATOM      5  N   UNL     1     -17.122  40.878 -10.581  0.00  0.00    +0.000 NA
ATOM      6  C   UNL     1     -17.242  44.660 -12.308  0.00  0.00    +0.000 A 
ATOM      7  C   UNL     1     -17.026  46.052 -11.822  0.00  0.00    +0.000 A 
ATOM      8  C   UNL     1     -16.028  43.769 -12.172  0.00  0.00    +0.000 A 
ATOM      9  C   UNL     1     -18.421  41.964 -12.272  0.00  0.00    +0.000 A 
ATOM     10  C   UNL     1     -17.248  41.824 -11.543  0.00  0.00    +0.000 A 
ATOM     11  C   UNL     1     -15.762  46.481 -11.728  0.00  0.00    +0.000 A 
ATOM     12  C   UNL     1     -18.537  43.012 -13.288  0.00  0.00    +0.000 A 
ATOM     13  C   UNL     1     -18.218  46.892 -11.498  0.00  0.00    +0.000 C 
ATOM     14  C   UNL     1     -19.500  41.118 -12.024  0.00  0.00    +0.000 A 
ATOM     15  C   UNL     1     -14.673  45.576 -12.151  0.00  0.00    +0.000 A 
ATOM     16  C   UNL     1     -19.385  40.152 -11.035  0.00  0.00    +0.000 A 
ATOM     17  C   UNL     1     -18.188  40.077 -10.345  0.00  0.00    +0.000 A 
ENDROOT
TORSDOF 0
ENDMDL
