MODEL 1
REMARK VINA RESULT:    -5.928      0.000      0.000
REMARK INTER + INTRA:          -7.200
REMARK INTER:                  -6.968
REMARK INTRA:                  -0.232
REMARK UNBOUND:                -0.232
REMARK  Name = 78970929
REMARK  6 active torsions:
REMARK  status: ('A' for Active; 'I' for Inactive)
REMARK    1  A    between atoms: N_2  and  C_6
REMARK    2  A    between atoms: C_5  and  C_6
REMARK    3  A    between atoms: C_5  and  C_7
REMARK    4  A    between atoms: C_5  and  C_8
REMARK    5  A    between atoms: C_5  and  C_9
REMARK    6  A    between atoms: C_13  and  C_15
REMARK                            x       y       z     vdW  Elec       q    Type
REMARK                         _______ _______ _______ _____ _____    ______ ____
ROOT
ATOM      1  N   UNL     1     -19.889  42.795 -15.116  0.00  0.00    +0.000 N 
ATOM      2  N   UNL     1     -19.754  41.398 -13.226  0.00  0.00    +0.000 NA
ATOM      3  C   UNL     1     -19.395  42.544 -13.847  0.00  0.00    +0.000 A 
ATOM      4  C   UNL     1     -18.557  43.497 -13.292  0.00  0.00    +0.000 A 
ATOM      5  C   UNL     1     -18.054  43.259 -12.019  0.00  0.00    +0.000 A 
ATOM      6  C   UNL     1     -18.400  42.092 -11.347  0.00  0.00    +0.000 A 
ATOM      7  C   UNL     1     -19.245  41.201 -11.989  0.00  0.00    +0.000 A 
ATOM      8  H   UNL     1     -20.504  42.088 -15.501  0.00  0.00    +0.000 HD
ENDROOT
BRANCH   6  11
ATOM      9  O   UNL     1     -17.998  42.642  -9.093  0.00  0.00    +0.000 OA
ATOM     10  N   UNL     1     -17.291  40.577  -9.795  0.00  0.00    +0.000 N 
ATOM     11  C   UNL     1     -17.890  41.814 -10.016  0.00  0.00    +0.000 C 
ATOM     12  H   UNL     1     -17.169  39.850 -10.488  0.00  0.00    +0.000 HD
ATOM     13  H   UNL     1     -16.931  40.354  -8.871  0.00  0.00    +0.000 HD
ENDBRANCH   6  11
BRANCH   1  14
ATOM     14  C   UNL     1     -19.576  43.983 -15.877  0.00  0.00    +0.000 C 
BRANCH  14  15
ATOM     15  C   UNL     1     -20.286  44.000 -17.251  0.00  0.00    +0.000 C 
ATOM     16  C   UNL     1     -19.265  44.136 -18.394  0.00  0.00    +0.000 C 
ATOM     17  C   UNL     1     -21.301  45.153 -17.331  0.00  0.00    +0.000 C 
ATOM     18  C   UNL     1     -21.041  42.667 -17.422  0.00  0.00    +0.000 C 
ENDBRANCH  14  15
ENDBRANCH   1  14
TORSDOF 3
ENDMDL
MODEL 2
REMARK VINA RESULT:    -5.401      1.571      1.876
REMARK INTER + INTRA:          -6.581
REMARK INTER:                  -6.298
REMARK INTRA:                  -0.283
REMARK UNBOUND:                -0.232
REMARK  Name = 78970929
REMARK  6 active torsions:
REMARK  status: ('A' for Active; 'I' for Inactive)
REMARK    1  A    between atoms: N_2  and  C_6
REMARK    2  A    between atoms: C_5  and  C_6
REMARK    3  A    between atoms: C_5  and  C_7
REMARK    4  A    between atoms: C_5  and  C_8
REMARK    5  A    between atoms: C_5  and  C_9
REMARK    6  A    between atoms: C_13  and  C_15
REMARK                            x       y       z     vdW  Elec       q    Type
REMARK                         _______ _______ _______ _____ _____    ______ ____
ROOT
ATOM      1  N   UNL     1     -19.642  43.650 -14.795  0.00  0.00    +0.000 N 
ATOM      2  N   UNL     1     -19.533  41.695 -13.488  0.00  0.00    +0.000 NA
ATOM      3  C   UNL     1     -18.942  42.828 -13.929  0.00  0.00    +0.000 A 
ATOM      4  C   UNL     1     -17.665  43.227 -13.568  0.00  0.00    +0.000 A 
ATOM      5  C   UNL     1     -16.950  42.411 -12.699  0.00  0.00    +0.000 A 
ATOM      6  C   UNL     1     -17.525  41.237 -12.223  0.00  0.00    +0.000 A 
ATOM      7  C   UNL     1     -18.807  40.927 -12.645  0.00  0.00    +0.000 A 
ATOM      8  H   UNL     1     -20.575  43.343 -15.042  0.00  0.00    +0.000 HD
ENDROOT
BRANCH   6  11
ATOM      9  O   UNL     1     -17.151  40.229 -10.128  0.00  0.00    +0.000 OA
ATOM     10  N   UNL     1     -15.713  39.660 -11.820  0.00  0.00    +0.000 N 
ATOM     11  C   UNL     1     -16.803  40.365 -11.316  0.00  0.00    +0.000 C 
ATOM     12  H   UNL     1     -15.369  39.710 -12.772  0.00  0.00    +0.000 HD
ATOM     13  H   UNL     1     -15.193  39.037 -11.209  0.00  0.00    +0.000 HD
ENDBRANCH   6  11
BRANCH   1  14
ATOM     14  C   UNL     1     -19.114  44.884 -15.331  0.00  0.00    +0.000 C 
BRANCH  14  15
ATOM     15  C   UNL     1     -19.396  45.031 -16.844  0.00  0.00    +0.000 C 
ATOM     16  C   UNL     1     -19.646  43.658 -17.492  0.00  0.00    +0.000 C 
ATOM     17  C   UNL     1     -18.224  45.727 -17.556  0.00  0.00    +0.000 C 
ATOM     18  C   UNL     1     -20.660  45.894 -17.020  0.00  0.00    +0.000 C 
ENDBRANCH  14  15
ENDBRANCH   1  14
TORSDOF 3
ENDMDL
MODEL 3
REMARK VINA RESULT:    -5.367      3.328      4.090
REMARK INTER + INTRA:          -6.541
REMARK INTER:                  -6.263
REMARK INTRA:                  -0.278
REMARK UNBOUND:                -0.232
REMARK  Name = 78970929
REMARK  6 active torsions:
REMARK  status: ('A' for Active; 'I' for Inactive)
REMARK    1  A    between atoms: N_2  and  C_6
REMARK    2  A    between atoms: C_5  and  C_6
REMARK    3  A    between atoms: C_5  and  C_7
REMARK    4  A    between atoms: C_5  and  C_8
REMARK    5  A    between atoms: C_5  and  C_9
REMARK    6  A    between atoms: C_13  and  C_15
REMARK                            x       y       z     vdW  Elec       q    Type
REMARK                         _______ _______ _______ _____ _____    ______ ____
ROOT
ATOM      1  N   UNL     1     -17.416  42.967 -12.944  0.00  0.00    +0.000 N 
ATOM      2  N   UNL     1     -18.996  41.404 -12.165  0.00  0.00    +0.000 NA
ATOM      3  C   UNL     1     -18.028  42.308 -11.891  0.00  0.00    +0.000 A 
ATOM      4  C   UNL     1     -17.603  42.625 -10.612  0.00  0.00    +0.000 A 
ATOM      5  C   UNL     1     -18.208  41.972  -9.544  0.00  0.00    +0.000 A 
ATOM      6  C   UNL     1     -19.208  41.036  -9.785  0.00  0.00    +0.000 A 
ATOM      7  C   UNL     1     -19.561  40.790 -11.102  0.00  0.00    +0.000 A 
ATOM      8  H   UNL     1     -17.745  42.724 -13.871  0.00  0.00    +0.000 HD
ENDROOT
BRANCH   6  11
ATOM      9  O   UNL     1     -21.045  39.970  -8.769  0.00  0.00    +0.000 OA
ATOM     10  N   UNL     1     -19.105  40.069  -7.552  0.00  0.00    +0.000 N 
ATOM     11  C   UNL     1     -19.859  40.337  -8.692  0.00  0.00    +0.000 C 
ATOM     12  H   UNL     1     -18.137  40.329  -7.412  0.00  0.00    +0.000 HD
ATOM     13  H   UNL     1     -19.533  39.576  -6.774  0.00  0.00    +0.000 HD
ENDBRANCH   6  11
BRANCH   1  14
ATOM     14  C   UNL     1     -16.372  43.951 -12.776  0.00  0.00    +0.000 C 
BRANCH  14  15
ATOM     15  C   UNL     1     -16.846  45.375 -13.148  0.00  0.00    +0.000 C 
ATOM     16  C   UNL     1     -18.378  45.426 -13.282  0.00  0.00    +0.000 C 
ATOM     17  C   UNL     1     -16.201  45.841 -14.465  0.00  0.00    +0.000 C 
ATOM     18  C   UNL     1     -16.418  46.337 -12.024  0.00  0.00    +0.000 C 
ENDBRANCH  14  15
ENDBRANCH   1  14
TORSDOF 3
ENDMDL
MODEL 4
REMARK VINA RESULT:    -5.218      2.686      3.469
REMARK INTER + INTRA:          -6.365
REMARK INTER:                  -5.958
REMARK INTRA:                  -0.407
REMARK UNBOUND:                -0.232
REMARK  Name = 78970929
REMARK  6 active torsions:
REMARK  status: ('A' for Active; 'I' for Inactive)
REMARK    1  A    between atoms: N_2  and  C_6
REMARK    2  A    between atoms: C_5  and  C_6
REMARK    3  A    between atoms: C_5  and  C_7
REMARK    4  A    between atoms: C_5  and  C_8
REMARK    5  A    between atoms: C_5  and  C_9
REMARK    6  A    between atoms: C_13  and  C_15
REMARK                            x       y       z     vdW  Elec       q    Type
REMARK                         _______ _______ _______ _____ _____    ______ ____
ROOT
ATOM      1  N   UNL     1     -17.473  43.748 -13.726  0.00  0.00    +0.000 N 
ATOM      2  N   UNL     1     -18.746  41.951 -12.894  0.00  0.00    +0.000 NA
ATOM      3  C   UNL     1     -17.878  42.961 -12.661  0.00  0.00    +0.000 A 
ATOM      4  C   UNL     1     -17.360  43.265 -11.413  0.00  0.00    +0.000 A 
ATOM      5  C   UNL     1     -17.758  42.484 -10.335  0.00  0.00    +0.000 A 
ATOM      6  C   UNL     1     -18.650  41.436 -10.534  0.00  0.00    +0.000 A 
ATOM      7  C   UNL     1     -19.110  41.213 -11.822  0.00  0.00    +0.000 A 
ATOM      8  H   UNL     1     -17.867  43.511 -14.628  0.00  0.00    +0.000 HD
ENDROOT
BRANCH   6  11
ATOM      9  O   UNL     1     -18.454  40.565  -8.355  0.00  0.00    +0.000 OA
ATOM     10  N   UNL     1     -20.245  39.852  -9.596  0.00  0.00    +0.000 N 
ATOM     11  C   UNL     1     -19.083  40.601  -9.428  0.00  0.00    +0.000 C 
ATOM     12  H   UNL     1     -20.816  39.830 -10.432  0.00  0.00    +0.000 HD
ATOM     13  H   UNL     1     -20.576  39.264  -8.836  0.00  0.00    +0.000 HD
ENDBRANCH   6  11
BRANCH   1  14
ATOM     14  C   UNL     1     -16.551  44.854 -13.600  0.00  0.00    +0.000 C 
BRANCH  14  15
ATOM     15  C   UNL     1     -17.245  46.219 -13.807  0.00  0.00    +0.000 C 
ATOM     16  C   UNL     1     -16.264  47.251 -14.390  0.00  0.00    +0.000 C 
ATOM     17  C   UNL     1     -17.820  46.751 -12.483  0.00  0.00    +0.000 C 
ATOM     18  C   UNL     1     -18.404  46.027 -14.804  0.00  0.00    +0.000 C 
ENDBRANCH  14  15
ENDBRANCH   1  14
TORSDOF 3
ENDMDL
MODEL 5
REMARK VINA RESULT:    -5.190      3.068      6.325
REMARK INTER + INTRA:          -6.332
REMARK INTER:                  -6.035
REMARK INTRA:                  -0.297
REMARK UNBOUND:                -0.232
REMARK  Name = 78970929
REMARK  6 active torsions:
REMARK  status: ('A' for Active; 'I' for Inactive)
REMARK    1  A    between atoms: N_2  and  C_6
REMARK    2  A    between atoms: C_5  and  C_6
REMARK    3  A    between atoms: C_5  and  C_7
REMARK    4  A    between atoms: C_5  and  C_8
REMARK    5  A    between atoms: C_5  and  C_9
REMARK    6  A    between atoms: C_13  and  C_15
REMARK                            x       y       z     vdW  Elec       q    Type
REMARK                         _______ _______ _______ _____ _____    ______ ____
ROOT
ATOM      1  N   UNL     1     -19.602  41.781 -13.398  0.00  0.00    +0.000 N 
ATOM      2  N   UNL     1     -20.350  42.704 -15.431  0.00  0.00    +0.000 NA
ATOM      3  C   UNL     1     -19.596  42.819 -14.315  0.00  0.00    +0.000 A 
ATOM      4  C   UNL     1     -18.806  43.919 -14.022  0.00  0.00    +0.000 A 
ATOM      5  C   UNL     1     -18.790  44.969 -14.932  0.00  0.00    +0.000 A 
ATOM      6  C   UNL     1     -19.552  44.888 -16.092  0.00  0.00    +0.000 A 
ATOM      7  C   UNL     1     -20.309  43.745 -16.292  0.00  0.00    +0.000 A 
ATOM      8  H   UNL     1     -20.182  40.984 -13.634  0.00  0.00    +0.000 HD
ENDROOT
BRANCH   6  11
ATOM      9  O   UNL     1     -19.191  45.789 -18.238  0.00  0.00    +0.000 OA
ATOM     10  N   UNL     1     -20.006  47.218 -16.641  0.00  0.00    +0.000 N 
ATOM     11  C   UNL     1     -19.557  45.969 -17.062  0.00  0.00    +0.000 C 
ATOM     12  H   UNL     1     -20.324  47.445 -15.707  0.00  0.00    +0.000 HD
ATOM     13  H   UNL     1     -20.026  47.991 -17.300  0.00  0.00    +0.000 HD
ENDBRANCH   6  11
BRANCH   1  14
ATOM     14  C   UNL     1     -18.838  41.789 -12.172  0.00  0.00    +0.000 C 
BRANCH  14  15
ATOM     15  C   UNL     1     -18.173  40.423 -11.888  0.00  0.00    +0.000 C 
ATOM     16  C   UNL     1     -19.233  39.316 -11.744  0.00  0.00    +0.000 C 
ATOM     17  C   UNL     1     -17.318  40.482 -10.611  0.00  0.00    +0.000 C 
ATOM     18  C   UNL     1     -17.257  40.074 -13.077  0.00  0.00    +0.000 C 
ENDBRANCH  14  15
ENDBRANCH   1  14
TORSDOF 3
ENDMDL
