MODEL 1
REMARK VINA RESULT:    -7.635      0.000      0.000
REMARK INTER + INTRA:         -10.002
REMARK INTER:                  -9.421
REMARK INTRA:                  -0.581
REMARK UNBOUND:                -0.581
REMARK  Name = 79033942
REMARK  4 active torsions:
REMARK  status: ('A' for Active; 'I' for Inactive)
REMARK    1  A    between atoms: N_5  and  C_8
REMARK    2  A    between atoms: C_8  and  C_9
REMARK    3  A    between atoms: C_9  and  C_11
REMARK    4  A    between atoms: C_13  and  C_16
REMARK                            x       y       z     vdW  Elec       q    Type
REMARK                         _______ _______ _______ _____ _____    ______ ____
ROOT
ATOM      1  N   UNL     1     -17.655  40.990  -9.577  0.00  0.00    +0.000 N 
ATOM      2  N   UNL     1     -18.799  42.080  -7.829  0.00  0.00    +0.000 NA
ATOM      3  C   UNL     1     -18.821  41.204  -8.859  0.00  0.00    +0.000 A 
ATOM      4  C   UNL     1     -19.946  40.496  -9.251  0.00  0.00    +0.000 A 
ATOM      5  C   UNL     1     -21.141  41.591  -7.475  0.00  0.00    +0.000 A 
ATOM      6  C   UNL     1     -21.124  40.699  -8.541  0.00  0.00    +0.000 A 
ATOM      7  C   UNL     1     -19.963  42.251  -7.162  0.00  0.00    +0.000 A 
ATOM      8  H   UNL     1     -16.836  41.509  -9.282  0.00  0.00    +0.000 HD
ENDROOT
BRANCH   5  11
ATOM      9  O   UNL     1     -23.285  40.998  -6.703  0.00  0.00    +0.000 OA
ATOM     10  N   UNL     1     -22.442  43.002  -5.974  0.00  0.00    +0.000 N 
ATOM     11  C   UNL     1     -22.355  41.825  -6.713  0.00  0.00    +0.000 C 
ATOM     12  H   UNL     1     -21.731  43.721  -5.926  0.00  0.00    +0.000 HD
ATOM     13  H   UNL     1     -23.277  43.188  -5.427  0.00  0.00    +0.000 HD
ENDBRANCH   5  11
BRANCH   1  14
ATOM     14  C   UNL     1     -17.556  40.083 -10.694  0.00  0.00    +0.000 C 
BRANCH  14  15
ATOM     15  C   UNL     1     -17.266  40.841 -11.987  0.00  0.00    +0.000 C 
BRANCH  15  19
ATOM     16  F   UNL     1     -18.294  41.752 -13.915  0.00  0.00    +0.000 F 
ATOM     17  F   UNL     1     -19.537  40.582 -12.559  0.00  0.00    +0.000 F 
ATOM     18  F   UNL     1     -18.885  42.579 -11.982  0.00  0.00    +0.000 F 
ATOM     19  C   UNL     1     -18.502  41.451 -12.616  0.00  0.00    +0.000 C 
ENDBRANCH  15  19
ENDBRANCH  14  15
ENDBRANCH   1  14
TORSDOF 4
ENDMDL
MODEL 2
REMARK VINA RESULT:    -6.862      1.634      2.157
REMARK INTER + INTRA:          -9.048
REMARK INTER:                  -8.556
REMARK INTRA:                  -0.492
REMARK UNBOUND:                -0.581
REMARK  Name = 79033942
REMARK  4 active torsions:
REMARK  status: ('A' for Active; 'I' for Inactive)
REMARK    1  A    between atoms: N_5  and  C_8
REMARK    2  A    between atoms: C_8  and  C_9
REMARK    3  A    between atoms: C_9  and  C_11
REMARK    4  A    between atoms: C_13  and  C_16
REMARK                            x       y       z     vdW  Elec       q    Type
REMARK                         _______ _______ _______ _____ _____    ______ ____
ROOT
ATOM      1  N   UNL     1     -18.449  39.957 -10.420  0.00  0.00    +0.000 N 
ATOM      2  N   UNL     1     -20.491  39.994  -9.244  0.00  0.00    +0.000 NA
ATOM      3  C   UNL     1     -19.255  40.508  -9.435  0.00  0.00    +0.000 A 
ATOM      4  C   UNL     1     -18.733  41.562  -8.704  0.00  0.00    +0.000 A 
ATOM      5  C   UNL     1     -20.806  41.624  -7.487  0.00  0.00    +0.000 A 
ATOM      6  C   UNL     1     -19.529  42.125  -7.712  0.00  0.00    +0.000 A 
ATOM      7  C   UNL     1     -21.237  40.568  -8.272  0.00  0.00    +0.000 A 
ATOM      8  H   UNL     1     -18.840  39.189 -10.953  0.00  0.00    +0.000 HD
ENDROOT
BRANCH   5  11
ATOM      9  O   UNL     1     -22.864  42.432  -6.676  0.00  0.00    +0.000 OA
ATOM     10  N   UNL     1     -21.100  42.442  -5.210  0.00  0.00    +0.000 N 
ATOM     11  C   UNL     1     -21.662  42.191  -6.460  0.00  0.00    +0.000 C 
ATOM     12  H   UNL     1     -20.136  42.271  -4.954  0.00  0.00    +0.000 HD
ATOM     13  H   UNL     1     -21.677  42.832  -4.472  0.00  0.00    +0.000 HD
ENDBRANCH   5  11
BRANCH   1  14
ATOM     14  C   UNL     1     -17.115  40.420 -10.714  0.00  0.00    +0.000 C 
BRANCH  14  15
ATOM     15  C   UNL     1     -17.086  41.197 -12.028  0.00  0.00    +0.000 C 
BRANCH  15  19
ATOM     16  F   UNL     1     -15.832  42.833 -10.862  0.00  0.00    +0.000 F 
ATOM     17  F   UNL     1     -16.186  43.150 -12.990  0.00  0.00    +0.000 F 
ATOM     18  F   UNL     1     -17.816  43.410 -11.569  0.00  0.00    +0.000 F 
ATOM     19  C   UNL     1     -16.732  42.660 -11.853  0.00  0.00    +0.000 C 
ENDBRANCH  15  19
ENDBRANCH  14  15
ENDBRANCH   1  14
TORSDOF 4
ENDMDL
MODEL 3
REMARK VINA RESULT:    -6.641      4.077      6.210
REMARK INTER + INTRA:          -8.775
REMARK INTER:                  -8.376
REMARK INTRA:                  -0.399
REMARK UNBOUND:                -0.581
REMARK  Name = 79033942
REMARK  4 active torsions:
REMARK  status: ('A' for Active; 'I' for Inactive)
REMARK    1  A    between atoms: N_5  and  C_8
REMARK    2  A    between atoms: C_8  and  C_9
REMARK    3  A    between atoms: C_9  and  C_11
REMARK    4  A    between atoms: C_13  and  C_16
REMARK                            x       y       z     vdW  Elec       q    Type
REMARK                         _______ _______ _______ _____ _____    ______ ____
ROOT
ATOM      1  N   UNL     1     -20.072  40.209  -9.881  0.00  0.00    +0.000 N 
ATOM      2  N   UNL     1     -19.230  40.888 -11.974  0.00  0.00    +0.000 NA
ATOM      3  C   UNL     1     -19.196  40.985 -10.626  0.00  0.00    +0.000 A 
ATOM      4  C   UNL     1     -18.335  41.816  -9.929  0.00  0.00    +0.000 A 
ATOM      5  C   UNL     1     -17.455  42.529 -12.050  0.00  0.00    +0.000 A 
ATOM      6  C   UNL     1     -17.451  42.601 -10.662  0.00  0.00    +0.000 A 
ATOM      7  C   UNL     1     -18.355  41.665 -12.653  0.00  0.00    +0.000 A 
ATOM      8  H   UNL     1     -20.696  39.601 -10.398  0.00  0.00    +0.000 HD
ENDROOT
BRANCH   5  11
ATOM      9  O   UNL     1     -16.958  44.244 -13.586  0.00  0.00    +0.000 OA
ATOM     10  N   UNL     1     -15.180  43.069 -12.738  0.00  0.00    +0.000 N 
ATOM     11  C   UNL     1     -16.544  43.334 -12.844  0.00  0.00    +0.000 C 
ATOM     12  H   UNL     1     -14.764  42.352 -12.157  0.00  0.00    +0.000 HD
ATOM     13  H   UNL     1     -14.521  43.620 -13.277  0.00  0.00    +0.000 HD
ENDBRANCH   5  11
BRANCH   1  14
ATOM     14  C   UNL     1     -20.129  40.227  -8.440  0.00  0.00    +0.000 C 
BRANCH  14  15
ATOM     15  C   UNL     1     -21.321  41.046  -7.953  0.00  0.00    +0.000 C 
BRANCH  15  19
ATOM     16  F   UNL     1     -19.677  42.444  -6.979  0.00  0.00    +0.000 F 
ATOM     17  F   UNL     1     -21.740  43.148  -6.973  0.00  0.00    +0.000 F 
ATOM     18  F   UNL     1     -21.140  41.537  -5.635  0.00  0.00    +0.000 F 
ATOM     19  C   UNL     1     -20.962  42.046  -6.872  0.00  0.00    +0.000 C 
ENDBRANCH  15  19
ENDBRANCH  14  15
ENDBRANCH   1  14
TORSDOF 4
ENDMDL
MODEL 4
REMARK VINA RESULT:    -6.113      4.211      6.281
REMARK INTER + INTRA:          -8.123
REMARK INTER:                  -7.617
REMARK INTRA:                  -0.506
REMARK UNBOUND:                -0.581
REMARK  Name = 79033942
REMARK  4 active torsions:
REMARK  status: ('A' for Active; 'I' for Inactive)
REMARK    1  A    between atoms: N_5  and  C_8
REMARK    2  A    between atoms: C_8  and  C_9
REMARK    3  A    between atoms: C_9  and  C_11
REMARK    4  A    between atoms: C_13  and  C_16
REMARK                            x       y       z     vdW  Elec       q    Type
REMARK                         _______ _______ _______ _____ _____    ______ ____
ROOT
ATOM      1  N   UNL     1     -19.726  40.459 -11.869  0.00  0.00    +0.000 N 
ATOM      2  N   UNL     1     -19.635  42.181 -13.474  0.00  0.00    +0.000 NA
ATOM      3  C   UNL     1     -19.092  41.574 -12.395  0.00  0.00    +0.000 A 
ATOM      4  C   UNL     1     -17.929  41.995 -11.772  0.00  0.00    +0.000 A 
ATOM      5  C   UNL     1     -17.809  43.764 -13.397  0.00  0.00    +0.000 A 
ATOM      6  C   UNL     1     -17.281  43.113 -12.288  0.00  0.00    +0.000 A 
ATOM      7  C   UNL     1     -18.977  43.264 -13.948  0.00  0.00    +0.000 A 
ATOM      8  H   UNL     1     -20.574  40.154 -12.333  0.00  0.00    +0.000 HD
ENDROOT
BRANCH   5  11
ATOM      9  O   UNL     1     -17.800  45.952 -14.269  0.00  0.00    +0.000 OA
ATOM     10  N   UNL     1     -15.774  44.887 -14.129  0.00  0.00    +0.000 N 
ATOM     11  C   UNL     1     -17.156  44.933 -13.960  0.00  0.00    +0.000 C 
ATOM     12  H   UNL     1     -15.179  44.101 -13.900  0.00  0.00    +0.000 HD
ATOM     13  H   UNL     1     -15.291  45.692 -14.515  0.00  0.00    +0.000 HD
ENDBRANCH   5  11
BRANCH   1  14
ATOM     14  C   UNL     1     -19.242  39.729 -10.723  0.00  0.00    +0.000 C 
BRANCH  14  15
ATOM     15  C   UNL     1     -19.973  40.161  -9.455  0.00  0.00    +0.000 C 
BRANCH  15  19
ATOM     16  F   UNL     1     -19.425  40.499  -7.176  0.00  0.00    +0.000 F 
ATOM     17  F   UNL     1     -17.788  40.427  -8.614  0.00  0.00    +0.000 F 
ATOM     18  F   UNL     1     -19.093  42.170  -8.543  0.00  0.00    +0.000 F 
ATOM     19  C   UNL     1     -19.068  40.825  -8.436  0.00  0.00    +0.000 C 
ENDBRANCH  15  19
ENDBRANCH  14  15
ENDBRANCH   1  14
TORSDOF 4
ENDMDL
MODEL 5
REMARK VINA RESULT:    -5.747      4.857      6.367
REMARK INTER + INTRA:          -7.671
REMARK INTER:                  -7.442
REMARK INTRA:                  -0.230
REMARK UNBOUND:                -0.581
REMARK  Name = 79033942
REMARK  4 active torsions:
REMARK  status: ('A' for Active; 'I' for Inactive)
REMARK    1  A    between atoms: N_5  and  C_8
REMARK    2  A    between atoms: C_8  and  C_9
REMARK    3  A    between atoms: C_9  and  C_11
REMARK    4  A    between atoms: C_13  and  C_16
REMARK                            x       y       z     vdW  Elec       q    Type
REMARK                         _______ _______ _______ _____ _____    ______ ____
ROOT
ATOM      1  N   UNL     1     -20.268  42.900 -14.751  0.00  0.00    +0.000 N 
ATOM      2  N   UNL     1     -19.928  41.272 -13.082  0.00  0.00    +0.000 NA
ATOM      3  C   UNL     1     -19.425  42.261 -13.854  0.00  0.00    +0.000 A 
ATOM      4  C   UNL     1     -18.108  42.686 -13.810  0.00  0.00    +0.000 A 
ATOM      5  C   UNL     1     -17.730  41.034 -12.104  0.00  0.00    +0.000 A 
ATOM      6  C   UNL     1     -17.249  42.055 -12.916  0.00  0.00    +0.000 A 
ATOM      7  C   UNL     1     -19.064  40.682 -12.224  0.00  0.00    +0.000 A 
ATOM      8  H   UNL     1     -21.232  42.586 -14.775  0.00  0.00    +0.000 HD
ENDROOT
BRANCH   5  11
ATOM      9  O   UNL     1     -17.176  40.222  -9.964  0.00  0.00    +0.000 OA
ATOM     10  N   UNL     1     -15.657  39.839 -11.638  0.00  0.00    +0.000 N 
ATOM     11  C   UNL     1     -16.859  40.356 -11.159  0.00  0.00    +0.000 C 
ATOM     12  H   UNL     1     -15.329  39.902 -12.594  0.00  0.00    +0.000 HD
ATOM     13  H   UNL     1     -15.032  39.355 -11.001  0.00  0.00    +0.000 HD
ENDBRANCH   5  11
BRANCH   1  14
ATOM     14  C   UNL     1     -19.847  43.966 -15.626  0.00  0.00    +0.000 C 
BRANCH  14  15
ATOM     15  C   UNL     1     -19.795  43.492 -17.076  0.00  0.00    +0.000 C 
BRANCH  15  19
ATOM     16  F   UNL     1     -22.145  43.731 -16.924  0.00  0.00    +0.000 F 
ATOM     17  F   UNL     1     -21.260  43.644 -18.914  0.00  0.00    +0.000 F 
ATOM     18  F   UNL     1     -21.382  41.839 -17.701  0.00  0.00    +0.000 F 
ATOM     19  C   UNL     1     -21.158  43.168 -17.652  0.00  0.00    +0.000 C 
ENDBRANCH  15  19
ENDBRANCH  14  15
ENDBRANCH   1  14
TORSDOF 4
ENDMDL
