MODEL 1
REMARK VINA RESULT:    -6.852      0.000      0.000
REMARK INTER + INTRA:          -8.831
REMARK INTER:                  -8.454
REMARK INTRA:                  -0.376
REMARK UNBOUND:                -0.376
REMARK  Name = 79034156
REMARK  6 active torsions:
REMARK  status: ('A' for Active; 'I' for Inactive)
REMARK    1  A    between atoms: N_5  and  C_8
REMARK    2  A    between atoms: N_6  and  C_17
REMARK    3  A    between atoms: N_6  and  C_18
REMARK    4  A    between atoms: C_8  and  C_9
REMARK    5  A    between atoms: C_9  and  C_12
REMARK    6  A    between atoms: C_11  and  C_15
REMARK                            x       y       z     vdW  Elec       q    Type
REMARK                         _______ _______ _______ _____ _____    ______ ____
ROOT
ATOM      1  N   UNL     1     -20.079  40.156  -9.849  0.00  0.00    +0.000 N 
ATOM      2  N   UNL     1     -19.285  40.953 -11.919  0.00  0.00    +0.000 NA
ATOM      3  C   UNL     1     -19.250  41.003 -10.568  0.00  0.00    +0.000 A 
ATOM      4  C   UNL     1     -17.599  42.685 -11.943  0.00  0.00    +0.000 A 
ATOM      5  C   UNL     1     -18.429  41.853  -9.845  0.00  0.00    +0.000 A 
ATOM      6  C   UNL     1     -17.590  42.706 -10.553  0.00  0.00    +0.000 A 
ATOM      7  C   UNL     1     -18.457  41.797 -12.573  0.00  0.00    +0.000 A 
ATOM      8  H   UNL     1     -20.674  39.535 -10.386  0.00  0.00    +0.000 HD
ENDROOT
BRANCH   4  11
ATOM      9  O   UNL     1     -15.590  43.158 -12.955  0.00  0.00    +0.000 OA
ATOM     10  N   UNL     1     -17.236  44.807 -13.144  0.00  0.00    +0.000 N 
ATOM     11  C   UNL     1     -16.735  43.565 -12.711  0.00  0.00    +0.000 C 
ATOM     12  C   UNL     1     -16.435  45.735 -13.930  0.00  0.00    +0.000 C 
ATOM     13  C   UNL     1     -18.594  45.250 -12.834  0.00  0.00    +0.000 C 
ENDBRANCH   4  11
BRANCH   1  14
ATOM     14  C   UNL     1     -20.129  40.119  -8.407  0.00  0.00    +0.000 C 
BRANCH  14  15
ATOM     15  C   UNL     1     -21.360  40.854  -7.887  0.00  0.00    +0.000 C 
BRANCH  15  19
ATOM     16  F   UNL     1     -21.229  41.511  -5.628  0.00  0.00    +0.000 F 
ATOM     17  F   UNL     1     -19.744  42.344  -6.986  0.00  0.00    +0.000 F 
ATOM     18  F   UNL     1     -21.815  43.032  -7.076  0.00  0.00    +0.000 F 
ATOM     19  C   UNL     1     -21.031  41.949  -6.891  0.00  0.00    +0.000 C 
ENDBRANCH  15  19
ENDBRANCH  14  15
ENDBRANCH   1  14
TORSDOF 4
ENDMDL
MODEL 2
REMARK VINA RESULT:    -6.112      1.672      2.278
REMARK INTER + INTRA:          -7.917
REMARK INTER:                  -7.416
REMARK INTRA:                  -0.501
REMARK UNBOUND:                -0.376
REMARK  Name = 79034156
REMARK  6 active torsions:
REMARK  status: ('A' for Active; 'I' for Inactive)
REMARK    1  A    between atoms: N_5  and  C_8
REMARK    2  A    between atoms: N_6  and  C_17
REMARK    3  A    between atoms: N_6  and  C_18
REMARK    4  A    between atoms: C_8  and  C_9
REMARK    5  A    between atoms: C_9  and  C_12
REMARK    6  A    between atoms: C_11  and  C_15
REMARK                            x       y       z     vdW  Elec       q    Type
REMARK                         _______ _______ _______ _____ _____    ______ ____
ROOT
ATOM      1  N   UNL     1     -19.644  40.641 -11.668  0.00  0.00    +0.000 N 
ATOM      2  N   UNL     1     -19.354  42.486 -13.105  0.00  0.00    +0.000 NA
ATOM      3  C   UNL     1     -18.914  41.754 -12.056  0.00  0.00    +0.000 A 
ATOM      4  C   UNL     1     -17.445  43.934 -12.787  0.00  0.00    +0.000 A 
ATOM      5  C   UNL     1     -17.767  42.045 -11.335  0.00  0.00    +0.000 A 
ATOM      6  C   UNL     1     -17.024  43.156 -11.714  0.00  0.00    +0.000 A 
ATOM      7  C   UNL     1     -18.607  43.559 -13.444  0.00  0.00    +0.000 A 
ATOM      8  H   UNL     1     -20.480  40.434 -12.203  0.00  0.00    +0.000 HD
ENDROOT
BRANCH   4  11
ATOM      9  O   UNL     1     -15.811  44.928 -14.061  0.00  0.00    +0.000 OA
ATOM     10  N   UNL     1     -17.001  46.355 -12.642  0.00  0.00    +0.000 N 
ATOM     11  C   UNL     1     -16.691  45.103 -13.206  0.00  0.00    +0.000 C 
ATOM     12  C   UNL     1     -16.299  47.572 -13.024  0.00  0.00    +0.000 C 
ATOM     13  C   UNL     1     -18.047  46.517 -11.635  0.00  0.00    +0.000 C 
ENDBRANCH   4  11
BRANCH   1  14
ATOM     14  C   UNL     1     -19.274  39.785 -10.567  0.00  0.00    +0.000 C 
BRANCH  14  15
ATOM     15  C   UNL     1     -20.054  40.151  -9.308  0.00  0.00    +0.000 C 
BRANCH  15  19
ATOM     16  F   UNL     1     -19.254  42.157  -8.366  0.00  0.00    +0.000 F 
ATOM     17  F   UNL     1     -19.623  40.503  -6.999  0.00  0.00    +0.000 F 
ATOM     18  F   UNL     1     -17.908  40.442  -8.350  0.00  0.00    +0.000 F 
ATOM     19  C   UNL     1     -19.202  40.812  -8.243  0.00  0.00    +0.000 C 
ENDBRANCH  15  19
ENDBRANCH  14  15
ENDBRANCH   1  14
TORSDOF 4
ENDMDL
MODEL 3
REMARK VINA RESULT:    -5.779      1.965      2.506
REMARK INTER + INTRA:          -7.507
REMARK INTER:                  -7.489
REMARK INTRA:                  -0.018
REMARK UNBOUND:                -0.376
REMARK  Name = 79034156
REMARK  6 active torsions:
REMARK  status: ('A' for Active; 'I' for Inactive)
REMARK    1  A    between atoms: N_5  and  C_8
REMARK    2  A    between atoms: N_6  and  C_17
REMARK    3  A    between atoms: N_6  and  C_18
REMARK    4  A    between atoms: C_8  and  C_9
REMARK    5  A    between atoms: C_9  and  C_12
REMARK    6  A    between atoms: C_11  and  C_15
REMARK                            x       y       z     vdW  Elec       q    Type
REMARK                         _______ _______ _______ _____ _____    ______ ____
ROOT
ATOM      1  N   UNL     1     -19.281  39.852 -10.037  0.00  0.00    +0.000 N 
ATOM      2  N   UNL     1     -17.341  40.121 -11.348  0.00  0.00    +0.000 NA
ATOM      3  C   UNL     1     -18.274  40.665 -10.534  0.00  0.00    +0.000 A 
ATOM      4  C   UNL     1     -16.311  42.303 -11.487  0.00  0.00    +0.000 A 
ATOM      5  C   UNL     1     -18.291  41.999 -10.158  0.00  0.00    +0.000 A 
ATOM      6  C   UNL     1     -17.287  42.827 -10.647  0.00  0.00    +0.000 A 
ATOM      7  C   UNL     1     -16.382  40.956 -11.804  0.00  0.00    +0.000 A 
ATOM      8  H   UNL     1     -19.259  38.877 -10.315  0.00  0.00    +0.000 HD
ENDROOT
BRANCH   4  11
ATOM      9  O   UNL     1     -15.556  43.945 -12.907  0.00  0.00    +0.000 OA
ATOM     10  N   UNL     1     -13.950  43.015 -11.485  0.00  0.00    +0.000 N 
ATOM     11  C   UNL     1     -15.249  43.142 -12.015  0.00  0.00    +0.000 C 
ATOM     12  C   UNL     1     -12.839  43.831 -11.954  0.00  0.00    +0.000 C 
ATOM     13  C   UNL     1     -13.630  42.054 -10.432  0.00  0.00    +0.000 C 
ENDBRANCH   4  11
BRANCH   1  14
ATOM     14  C   UNL     1     -20.329  40.318  -9.162  0.00  0.00    +0.000 C 
BRANCH  14  15
ATOM     15  C   UNL     1     -19.802  40.528  -7.746  0.00  0.00    +0.000 C 
BRANCH  15  19
ATOM     16  F   UNL     1     -21.440  42.221  -7.706  0.00  0.00    +0.000 F 
ATOM     17  F   UNL     1     -20.592  41.622  -5.791  0.00  0.00    +0.000 F 
ATOM     18  F   UNL     1     -19.401  42.796  -7.196  0.00  0.00    +0.000 F 
ATOM     19  C   UNL     1     -20.308  41.802  -7.098  0.00  0.00    +0.000 C 
ENDBRANCH  15  19
ENDBRANCH  14  15
ENDBRANCH   1  14
TORSDOF 4
ENDMDL
MODEL 4
REMARK VINA RESULT:    -5.595      3.103      4.257
REMARK INTER + INTRA:          -7.279
REMARK INTER:                  -6.761
REMARK INTRA:                  -0.518
REMARK UNBOUND:                -0.376
REMARK  Name = 79034156
REMARK  6 active torsions:
REMARK  status: ('A' for Active; 'I' for Inactive)
REMARK    1  A    between atoms: N_5  and  C_8
REMARK    2  A    between atoms: N_6  and  C_17
REMARK    3  A    between atoms: N_6  and  C_18
REMARK    4  A    between atoms: C_8  and  C_9
REMARK    5  A    between atoms: C_9  and  C_12
REMARK    6  A    between atoms: C_11  and  C_15
REMARK                            x       y       z     vdW  Elec       q    Type
REMARK                         _______ _______ _______ _____ _____    ______ ____
ROOT
ATOM      1  N   UNL     1     -16.622  41.294 -12.841  0.00  0.00    +0.000 N 
ATOM      2  N   UNL     1     -16.131  43.572 -13.187  0.00  0.00    +0.000 NA
ATOM      3  C   UNL     1     -17.050  42.583 -13.117  0.00  0.00    +0.000 A 
ATOM      4  C   UNL     1     -17.939  45.105 -13.659  0.00  0.00    +0.000 A 
ATOM      5  C   UNL     1     -18.410  42.775 -13.303  0.00  0.00    +0.000 A 
ATOM      6  C   UNL     1     -18.855  44.062 -13.579  0.00  0.00    +0.000 A 
ATOM      7  C   UNL     1     -16.600  44.811 -13.457  0.00  0.00    +0.000 A 
ATOM      8  H   UNL     1     -15.626  41.164 -12.703  0.00  0.00    +0.000 HD
ENDROOT
BRANCH   4  11
ATOM      9  O   UNL     1     -18.568  47.208 -12.976  0.00  0.00    +0.000 OA
ATOM     10  N   UNL     1     -18.532  46.859 -15.288  0.00  0.00    +0.000 N 
ATOM     11  C   UNL     1     -18.373  46.462 -13.946  0.00  0.00    +0.000 C 
ATOM     12  C   UNL     1     -18.949  48.206 -15.653  0.00  0.00    +0.000 C 
ATOM     13  C   UNL     1     -18.291  45.947 -16.404  0.00  0.00    +0.000 C 
ENDBRANCH   4  11
BRANCH   1  14
ATOM     14  C   UNL     1     -17.508  40.160 -12.742  0.00  0.00    +0.000 C 
BRANCH  14  15
ATOM     15  C   UNL     1     -17.674  39.725 -11.289  0.00  0.00    +0.000 C 
BRANCH  15  19
ATOM     16  F   UNL     1     -18.410  41.638 -10.126  0.00  0.00    +0.000 F 
ATOM     17  F   UNL     1     -19.868  40.630 -11.393  0.00  0.00    +0.000 F 
ATOM     18  F   UNL     1     -19.238  39.718  -9.511  0.00  0.00    +0.000 F 
ATOM     19  C   UNL     1     -18.813  40.428 -10.577  0.00  0.00    +0.000 C 
ENDBRANCH  15  19
ENDBRANCH  14  15
ENDBRANCH   1  14
TORSDOF 4
ENDMDL
MODEL 5
REMARK VINA RESULT:    -5.528      2.892      3.773
REMARK INTER + INTRA:          -7.197
REMARK INTER:                  -6.806
REMARK INTRA:                  -0.390
REMARK UNBOUND:                -0.376
REMARK  Name = 79034156
REMARK  6 active torsions:
REMARK  status: ('A' for Active; 'I' for Inactive)
REMARK    1  A    between atoms: N_5  and  C_8
REMARK    2  A    between atoms: N_6  and  C_17
REMARK    3  A    between atoms: N_6  and  C_18
REMARK    4  A    between atoms: C_8  and  C_9
REMARK    5  A    between atoms: C_9  and  C_12
REMARK    6  A    between atoms: C_11  and  C_15
REMARK                            x       y       z     vdW  Elec       q    Type
REMARK                         _______ _______ _______ _____ _____    ______ ____
ROOT
ATOM      1  N   UNL     1     -18.017  41.108 -13.072  0.00  0.00    +0.000 N 
ATOM      2  N   UNL     1     -18.305  43.360 -13.702  0.00  0.00    +0.000 NA
ATOM      3  C   UNL     1     -17.964  42.457 -12.755  0.00  0.00    +0.000 A 
ATOM      4  C   UNL     1     -17.841  45.099 -12.088  0.00  0.00    +0.000 A 
ATOM      5  C   UNL     1     -17.558  42.792 -11.474  0.00  0.00    +0.000 A 
ATOM      6  C   UNL     1     -17.497  44.141 -11.142  0.00  0.00    +0.000 A 
ATOM      7  C   UNL     1     -18.234  44.661 -13.343  0.00  0.00    +0.000 A 
ATOM      8  H   UNL     1     -18.312  40.872 -14.013  0.00  0.00    +0.000 HD
ENDROOT
BRANCH   4  11
ATOM      9  O   UNL     1     -18.859  47.068 -11.479  0.00  0.00    +0.000 OA
ATOM     10  N   UNL     1     -16.546  47.177 -11.799  0.00  0.00    +0.000 N 
ATOM     11  C   UNL     1     -17.789  46.516 -11.772  0.00  0.00    +0.000 C 
ATOM     12  C   UNL     1     -16.413  48.592 -11.480  0.00  0.00    +0.000 C 
ATOM     13  C   UNL     1     -15.306  46.489 -12.151  0.00  0.00    +0.000 C 
ENDBRANCH   4  11
BRANCH   1  14
ATOM     14  C   UNL     1     -17.678  40.054 -12.148  0.00  0.00    +0.000 C 
BRANCH  14  15
ATOM     15  C   UNL     1     -18.935  39.408 -11.574  0.00  0.00    +0.000 C 
BRANCH  15  19
ATOM     16  F   UNL     1     -19.976  41.187 -10.430  0.00  0.00    +0.000 F 
ATOM     17  F   UNL     1     -20.224  39.192  -9.590  0.00  0.00    +0.000 F 
ATOM     18  F   UNL     1     -18.298  40.211  -9.439  0.00  0.00    +0.000 F 
ATOM     19  C   UNL     1     -19.360  39.997 -10.243  0.00  0.00    +0.000 C 
ENDBRANCH  15  19
ENDBRANCH  14  15
ENDBRANCH   1  14
TORSDOF 4
ENDMDL
