MODEL 1
REMARK VINA RESULT:    -7.723      0.000      0.000
REMARK INTER + INTRA:         -10.677
REMARK INTER:                  -9.980
REMARK INTRA:                  -0.697
REMARK UNBOUND:                -0.697
REMARK  Name = 79040504
REMARK  5 active torsions:
REMARK  status: ('A' for Active; 'I' for Inactive)
REMARK    1  A    between atoms: N_5  and  C_9
REMARK    2  A    between atoms: C_8  and  C_9
REMARK    3  A    between atoms: C_8  and  C_10
REMARK    4  A    between atoms: C_10  and  C_11
REMARK    5  A    between atoms: C_15  and  C_17
REMARK                            x       y       z     vdW  Elec       q    Type
REMARK                         _______ _______ _______ _____ _____    ______ ____
ROOT
ATOM      1  N   UNL     1     -17.640  41.015  -9.474  0.00  0.00    +0.000 N 
ATOM      2  N   UNL     1     -18.853  42.139  -7.797  0.00  0.00    +0.000 NA
ATOM      3  C   UNL     1     -18.829  41.228  -8.795  0.00  0.00    +0.000 A 
ATOM      4  C   UNL     1     -19.928  40.483  -9.191  0.00  0.00    +0.000 A 
ATOM      5  C   UNL     1     -21.129  40.686  -8.519  0.00  0.00    +0.000 A 
ATOM      6  C   UNL     1     -21.193  41.614  -7.486  0.00  0.00    +0.000 A 
ATOM      7  C   UNL     1     -20.037  42.308  -7.166  0.00  0.00    +0.000 A 
ATOM      8  H   UNL     1     -16.841  41.565  -9.178  0.00  0.00    +0.000 HD
ENDROOT
BRANCH   6  11
ATOM      9  O   UNL     1     -23.351  41.009  -6.764  0.00  0.00    +0.000 OA
ATOM     10  N   UNL     1     -22.554  43.039  -6.054  0.00  0.00    +0.000 N 
ATOM     11  C   UNL     1     -22.431  41.847  -6.765  0.00  0.00    +0.000 C 
ATOM     12  H   UNL     1     -21.854  43.767  -6.001  0.00  0.00    +0.000 HD
ATOM     13  H   UNL     1     -23.407  43.226  -5.536  0.00  0.00    +0.000 HD
ENDBRANCH   6  11
BRANCH   1  14
ATOM     14  C   UNL     1     -17.493  40.072 -10.556  0.00  0.00    +0.000 C 
BRANCH  14  15
ATOM     15  C   UNL     1     -16.880  40.745 -11.782  0.00  0.00    +0.000 C 
BRANCH  15  16
ATOM     16  C   UNL     1     -17.790  40.671 -13.011  0.00  0.00    +0.000 C 
BRANCH  16  20
ATOM     17  F   UNL     1     -20.044  41.092 -12.466  0.00  0.00    +0.000 F 
ATOM     18  F   UNL     1     -18.615  42.699 -12.107  0.00  0.00    +0.000 F 
ATOM     19  F   UNL     1     -19.201  42.193 -14.149  0.00  0.00    +0.000 F 
ATOM     20  C   UNL     1     -18.920  41.677 -12.934  0.00  0.00    +0.000 C 
ENDBRANCH  16  20
ENDBRANCH  15  16
ENDBRANCH  14  15
ENDBRANCH   1  14
TORSDOF 5
ENDMDL
MODEL 2
REMARK VINA RESULT:    -6.938      4.422      6.609
REMARK INTER + INTRA:          -9.663
REMARK INTER:                  -9.278
REMARK INTRA:                  -0.385
REMARK UNBOUND:                -0.697
REMARK  Name = 79040504
REMARK  5 active torsions:
REMARK  status: ('A' for Active; 'I' for Inactive)
REMARK    1  A    between atoms: N_5  and  C_9
REMARK    2  A    between atoms: C_8  and  C_9
REMARK    3  A    between atoms: C_8  and  C_10
REMARK    4  A    between atoms: C_10  and  C_11
REMARK    5  A    between atoms: C_15  and  C_17
REMARK                            x       y       z     vdW  Elec       q    Type
REMARK                         _______ _______ _______ _____ _____    ______ ____
ROOT
ATOM      1  N   UNL     1     -19.979  40.306 -10.429  0.00  0.00    +0.000 N 
ATOM      2  N   UNL     1     -19.224  41.281 -12.436  0.00  0.00    +0.000 NA
ATOM      3  C   UNL     1     -19.098  41.140 -11.097  0.00  0.00    +0.000 A 
ATOM      4  C   UNL     1     -18.134  41.783 -10.339  0.00  0.00    +0.000 A 
ATOM      5  C   UNL     1     -17.242  42.624 -10.995  0.00  0.00    +0.000 A 
ATOM      6  C   UNL     1     -17.340  42.794 -12.372  0.00  0.00    +0.000 A 
ATOM      7  C   UNL     1     -18.339  42.105 -13.040  0.00  0.00    +0.000 A 
ATOM      8  H   UNL     1     -20.683  39.840 -10.992  0.00  0.00    +0.000 HD
ENDROOT
BRANCH   6  11
ATOM      9  O   UNL     1     -15.199  43.648 -12.859  0.00  0.00    +0.000 OA
ATOM     10  N   UNL     1     -16.955  44.513 -14.054  0.00  0.00    +0.000 N 
ATOM     11  C   UNL     1     -16.423  43.664 -13.086  0.00  0.00    +0.000 C 
ATOM     12  H   UNL     1     -17.933  44.584 -14.301  0.00  0.00    +0.000 HD
ATOM     13  H   UNL     1     -16.336  45.128 -14.573  0.00  0.00    +0.000 HD
ENDBRANCH   6  11
BRANCH   1  14
ATOM     14  C   UNL     1     -19.943  40.078  -9.004  0.00  0.00    +0.000 C 
BRANCH  14  15
ATOM     15  C   UNL     1     -21.087  40.813  -8.309  0.00  0.00    +0.000 C 
BRANCH  15  16
ATOM     16  C   UNL     1     -20.592  41.840  -7.288  0.00  0.00    +0.000 C 
BRANCH  16  20
ATOM     17  F   UNL     1     -22.145  43.530  -6.756  0.00  0.00    +0.000 F 
ATOM     18  F   UNL     1     -22.762  41.467  -6.416  0.00  0.00    +0.000 F 
ATOM     19  F   UNL     1     -21.291  42.400  -5.097  0.00  0.00    +0.000 F 
ATOM     20  C   UNL     1     -21.708  42.309  -6.378  0.00  0.00    +0.000 C 
ENDBRANCH  16  20
ENDBRANCH  15  16
ENDBRANCH  14  15
ENDBRANCH   1  14
TORSDOF 5
ENDMDL
MODEL 3
REMARK VINA RESULT:    -6.534      4.191      6.161
REMARK INTER + INTRA:          -9.141
REMARK INTER:                  -8.729
REMARK INTRA:                  -0.413
REMARK UNBOUND:                -0.697
REMARK  Name = 79040504
REMARK  5 active torsions:
REMARK  status: ('A' for Active; 'I' for Inactive)
REMARK    1  A    between atoms: N_5  and  C_9
REMARK    2  A    between atoms: C_8  and  C_9
REMARK    3  A    between atoms: C_8  and  C_10
REMARK    4  A    between atoms: C_10  and  C_11
REMARK    5  A    between atoms: C_15  and  C_17
REMARK                            x       y       z     vdW  Elec       q    Type
REMARK                         _______ _______ _______ _____ _____    ______ ____
ROOT
ATOM      1  N   UNL     1     -17.842  41.774  -9.549  0.00  0.00    +0.000 N 
ATOM      2  N   UNL     1     -17.539  43.213 -11.389  0.00  0.00    +0.000 NA
ATOM      3  C   UNL     1     -18.203  42.180 -10.824  0.00  0.00    +0.000 A 
ATOM      4  C   UNL     1     -19.233  41.490 -11.441  0.00  0.00    +0.000 A 
ATOM      5  C   UNL     1     -19.607  41.886 -12.721  0.00  0.00    +0.000 A 
ATOM      6  C   UNL     1     -18.947  42.945 -13.336  0.00  0.00    +0.000 A 
ATOM      7  C   UNL     1     -17.930  43.570 -12.633  0.00  0.00    +0.000 A 
ATOM      8  H   UNL     1     -17.086  42.284  -9.104  0.00  0.00    +0.000 HD
ENDROOT
BRANCH   6  11
ATOM      9  O   UNL     1     -18.891  44.451 -15.146  0.00  0.00    +0.000 OA
ATOM     10  N   UNL     1     -20.150  42.553 -15.417  0.00  0.00    +0.000 N 
ATOM     11  C   UNL     1     -19.315  43.382 -14.671  0.00  0.00    +0.000 C 
ATOM     12  H   UNL     1     -20.533  41.670 -15.107  0.00  0.00    +0.000 HD
ATOM     13  H   UNL     1     -20.418  42.831 -16.356  0.00  0.00    +0.000 HD
ENDBRANCH   6  11
BRANCH   1  14
ATOM     14  C   UNL     1     -18.476  40.685  -8.845  0.00  0.00    +0.000 C 
BRANCH  14  15
ATOM     15  C   UNL     1     -19.383  41.214  -7.736  0.00  0.00    +0.000 C 
BRANCH  15  16
ATOM     16  C   UNL     1     -20.867  41.134  -8.101  0.00  0.00    +0.000 C 
BRANCH  16  20
ATOM     17  F   UNL     1     -22.892  40.941  -6.912  0.00  0.00    +0.000 F 
ATOM     18  F   UNL     1     -21.132  41.567  -5.788  0.00  0.00    +0.000 F 
ATOM     19  F   UNL     1     -22.085  42.947  -7.188  0.00  0.00    +0.000 F 
ATOM     20  C   UNL     1     -21.749  41.656  -6.985  0.00  0.00    +0.000 C 
ENDBRANCH  16  20
ENDBRANCH  15  16
ENDBRANCH  14  15
ENDBRANCH   1  14
TORSDOF 5
ENDMDL
MODEL 4
REMARK VINA RESULT:    -6.470      2.242      2.635
REMARK INTER + INTRA:          -9.058
REMARK INTER:                  -8.620
REMARK INTRA:                  -0.439
REMARK UNBOUND:                -0.697
REMARK  Name = 79040504
REMARK  5 active torsions:
REMARK  status: ('A' for Active; 'I' for Inactive)
REMARK    1  A    between atoms: N_5  and  C_9
REMARK    2  A    between atoms: C_8  and  C_9
REMARK    3  A    between atoms: C_8  and  C_10
REMARK    4  A    between atoms: C_10  and  C_11
REMARK    5  A    between atoms: C_15  and  C_17
REMARK                            x       y       z     vdW  Elec       q    Type
REMARK                         _______ _______ _______ _____ _____    ______ ____
ROOT
ATOM      1  N   UNL     1     -18.538  40.034 -10.459  0.00  0.00    +0.000 N 
ATOM      2  N   UNL     1     -20.524  40.212  -9.204  0.00  0.00    +0.000 NA
ATOM      3  C   UNL     1     -19.247  40.603  -9.413  0.00  0.00    +0.000 A 
ATOM      4  C   UNL     1     -18.590  41.548  -8.642  0.00  0.00    +0.000 A 
ATOM      5  C   UNL     1     -19.288  42.128  -7.588  0.00  0.00    +0.000 A 
ATOM      6  C   UNL     1     -20.604  41.751  -7.342  0.00  0.00    +0.000 A 
ATOM      7  C   UNL     1     -21.171  40.798  -8.172  0.00  0.00    +0.000 A 
ATOM      8  H   UNL     1     -19.026  39.343 -11.019  0.00  0.00    +0.000 HD
ENDROOT
BRANCH   6  11
ATOM      9  O   UNL     1     -21.210  41.957  -5.075  0.00  0.00    +0.000 OA
ATOM     10  N   UNL     1     -22.250  43.366  -6.556  0.00  0.00    +0.000 N 
ATOM     11  C   UNL     1     -21.359  42.339  -6.250  0.00  0.00    +0.000 C 
ATOM     12  H   UNL     1     -22.425  43.736  -7.481  0.00  0.00    +0.000 HD
ATOM     13  H   UNL     1     -22.786  43.800  -5.811  0.00  0.00    +0.000 HD
ENDBRANCH   6  11
BRANCH   1  14
ATOM     14  C   UNL     1     -17.172  40.371 -10.779  0.00  0.00    +0.000 C 
BRANCH  14  15
ATOM     15  C   UNL     1     -17.103  41.189 -12.066  0.00  0.00    +0.000 C 
BRANCH  15  16
ATOM     16  C   UNL     1     -17.230  42.694 -11.816  0.00  0.00    +0.000 C 
BRANCH  16  20
ATOM     17  F   UNL     1     -16.026  44.713 -11.653  0.00  0.00    +0.000 F 
ATOM     18  F   UNL     1     -15.023  42.897 -10.983  0.00  0.00    +0.000 F 
ATOM     19  F   UNL     1     -15.332  43.252 -13.116  0.00  0.00    +0.000 F 
ATOM     20  C   UNL     1     -15.888  43.391 -11.893  0.00  0.00    +0.000 C 
ENDBRANCH  16  20
ENDBRANCH  15  16
ENDBRANCH  14  15
ENDBRANCH   1  14
TORSDOF 5
ENDMDL
MODEL 5
REMARK VINA RESULT:    -6.045      4.245      6.364
REMARK INTER + INTRA:          -8.510
REMARK INTER:                  -8.272
REMARK INTRA:                  -0.238
REMARK UNBOUND:                -0.697
REMARK  Name = 79040504
REMARK  5 active torsions:
REMARK  status: ('A' for Active; 'I' for Inactive)
REMARK    1  A    between atoms: N_5  and  C_9
REMARK    2  A    between atoms: C_8  and  C_9
REMARK    3  A    between atoms: C_8  and  C_10
REMARK    4  A    between atoms: C_10  and  C_11
REMARK    5  A    between atoms: C_15  and  C_17
REMARK                            x       y       z     vdW  Elec       q    Type
REMARK                         _______ _______ _______ _____ _____    ______ ____
ROOT
ATOM      1  N   UNL     1     -19.580  40.351 -12.276  0.00  0.00    +0.000 N 
ATOM      2  N   UNL     1     -19.915  42.065 -13.855  0.00  0.00    +0.000 NA
ATOM      3  C   UNL     1     -19.245  41.598 -12.778  0.00  0.00    +0.000 A 
ATOM      4  C   UNL     1     -18.232  42.290 -12.135  0.00  0.00    +0.000 A 
ATOM      5  C   UNL     1     -17.885  43.543 -12.628  0.00  0.00    +0.000 A 
ATOM      6  C   UNL     1     -18.551  44.058 -13.735  0.00  0.00    +0.000 A 
ATOM      7  C   UNL     1     -19.549  43.286 -14.307  0.00  0.00    +0.000 A 
ATOM      8  H   UNL     1     -20.323  39.851 -12.752  0.00  0.00    +0.000 HD
ENDROOT
BRANCH   6  11
ATOM      9  O   UNL     1     -18.705  46.407 -13.812  0.00  0.00    +0.000 OA
ATOM     10  N   UNL     1     -17.291  45.413 -15.319  0.00  0.00    +0.000 N 
ATOM     11  C   UNL     1     -18.210  45.363 -14.273  0.00  0.00    +0.000 C 
ATOM     12  H   UNL     1     -16.842  44.613 -15.746  0.00  0.00    +0.000 HD
ATOM     13  H   UNL     1     -17.030  46.312 -15.711  0.00  0.00    +0.000 HD
ENDBRANCH   6  11
BRANCH   1  14
ATOM     14  C   UNL     1     -18.937  39.748 -11.132  0.00  0.00    +0.000 C 
BRANCH  14  15
ATOM     15  C   UNL     1     -19.698  40.075  -9.849  0.00  0.00    +0.000 C 
BRANCH  15  16
ATOM     16  C   UNL     1     -19.001  41.146  -9.008  0.00  0.00    +0.000 C 
BRANCH  16  20
ATOM     17  F   UNL     1     -21.120  41.615  -8.091  0.00  0.00    +0.000 F 
ATOM     18  F   UNL     1     -19.690  40.575  -6.816  0.00  0.00    +0.000 F 
ATOM     19  F   UNL     1     -19.415  42.694  -7.266  0.00  0.00    +0.000 F 
ATOM     20  C   UNL     1     -19.810  41.511  -7.780  0.00  0.00    +0.000 C 
ENDBRANCH  16  20
ENDBRANCH  15  16
ENDBRANCH  14  15
ENDBRANCH   1  14
TORSDOF 5
ENDMDL
