MODEL 1
REMARK VINA RESULT:    -7.143      0.000      0.000
REMARK INTER + INTRA:         -10.270
REMARK INTER:                  -9.649
REMARK INTRA:                  -0.621
REMARK UNBOUND:                -0.621
REMARK  Name = 79040050
REMARK  6 active torsions:
REMARK  status: ('A' for Active; 'I' for Inactive)
REMARK    1  A    between atoms: N_5  and  C_9
REMARK    2  A    between atoms: N_5  and  C_12
REMARK    3  A    between atoms: C_8  and  C_9
REMARK    4  A    between atoms: C_8  and  C_10
REMARK    5  A    between atoms: C_10  and  C_11
REMARK    6  A    between atoms: C_13  and  C_16
REMARK                            x       y       z     vdW  Elec       q    Type
REMARK                         _______ _______ _______ _____ _____    ______ ____
ROOT
ATOM      1  N   UNL     1     -19.023  39.634 -10.781  0.00  0.00    +0.000 NA
ATOM      2  C   UNL     1     -17.980  40.460 -10.537  0.00  0.00    +0.000 A 
ATOM      3  C   UNL     1     -17.107  40.915 -11.512  0.00  0.00    +0.000 A 
ATOM      4  C   UNL     1     -17.316  40.496 -12.821  0.00  0.00    +0.000 A 
ATOM      5  C   UNL     1     -18.378  39.647 -13.111  0.00  0.00    +0.000 A 
ATOM      6  C   UNL     1     -19.195  39.248 -12.065  0.00  0.00    +0.000 A 
ENDROOT
BRANCH   3   9
ATOM      7  O   UNL     1     -16.165  43.015 -11.010  0.00  0.00    +0.000 OA
ATOM      8  N   UNL     1     -14.718  41.242 -11.158  0.00  0.00    +0.000 N 
ATOM      9  C   UNL     1     -15.990  41.803 -11.218  0.00  0.00    +0.000 C 
ATOM     10  H   UNL     1     -14.557  40.253 -11.317  0.00  0.00    +0.000 HD
ATOM     11  H   UNL     1     -13.906  41.813 -10.950  0.00  0.00    +0.000 HD
ENDBRANCH   3   9
BRANCH   2  12
ATOM     12  N   UNL     1     -17.775  40.872  -9.229  0.00  0.00    +0.000 N 
ATOM     13  H   UNL     1     -17.166  40.291  -8.664  0.00  0.00    +0.000 HD
BRANCH  12  14
ATOM     14  C   UNL     1     -18.680  41.738  -8.511  0.00  0.00    +0.000 C 
BRANCH  14  15
ATOM     15  C   UNL     1     -19.611  40.925  -7.616  0.00  0.00    +0.000 C 
BRANCH  15  16
ATOM     16  C   UNL     1     -21.091  41.192  -7.906  0.00  0.00    +0.000 C 
BRANCH  16  20
ATOM     17  F   UNL     1     -21.949  43.175  -6.966  0.00  0.00    +0.000 F 
ATOM     18  F   UNL     1     -23.002  41.320  -6.516  0.00  0.00    +0.000 F 
ATOM     19  F   UNL     1     -21.061  41.725  -5.601  0.00  0.00    +0.000 F 
ATOM     20  C   UNL     1     -21.783  41.854  -6.735  0.00  0.00    +0.000 C 
ENDBRANCH  16  20
ENDBRANCH  15  16
ENDBRANCH  14  15
ENDBRANCH  12  14
ENDBRANCH   2  12
TORSDOF 6
ENDMDL
MODEL 2
REMARK VINA RESULT:    -6.653      1.940      2.484
REMARK INTER + INTRA:          -9.607
REMARK INTER:                  -8.847
REMARK INTRA:                  -0.760
REMARK UNBOUND:                -0.621
REMARK  Name = 79040050
REMARK  6 active torsions:
REMARK  status: ('A' for Active; 'I' for Inactive)
REMARK    1  A    between atoms: N_5  and  C_9
REMARK    2  A    between atoms: N_5  and  C_12
REMARK    3  A    between atoms: C_8  and  C_9
REMARK    4  A    between atoms: C_8  and  C_10
REMARK    5  A    between atoms: C_10  and  C_11
REMARK    6  A    between atoms: C_13  and  C_16
REMARK                            x       y       z     vdW  Elec       q    Type
REMARK                         _______ _______ _______ _____ _____    ______ ____
ROOT
ATOM      1  N   UNL     1     -19.802  41.486 -12.679  0.00  0.00    +0.000 NA
ATOM      2  C   UNL     1     -18.727  40.889 -12.115  0.00  0.00    +0.000 A 
ATOM      3  C   UNL     1     -17.416  41.275 -12.347  0.00  0.00    +0.000 A 
ATOM      4  C   UNL     1     -17.194  42.340 -13.213  0.00  0.00    +0.000 A 
ATOM      5  C   UNL     1     -18.274  42.978 -13.811  0.00  0.00    +0.000 A 
ATOM      6  C   UNL     1     -19.547  42.517 -13.515  0.00  0.00    +0.000 A 
ENDROOT
BRANCH   3   9
ATOM      7  O   UNL     1     -16.144  39.377 -11.776  0.00  0.00    +0.000 OA
ATOM      8  N   UNL     1     -15.332  41.409 -11.091  0.00  0.00    +0.000 N 
ATOM      9  C   UNL     1     -16.278  40.611 -11.726  0.00  0.00    +0.000 C 
ATOM     10  H   UNL     1     -15.421  42.419 -11.049  0.00  0.00    +0.000 HD
ATOM     11  H   UNL     1     -14.517  40.999 -10.649  0.00  0.00    +0.000 HD
ENDBRANCH   3   9
BRANCH   2  12
ATOM     12  N   UNL     1     -18.956  39.827 -11.255  0.00  0.00    +0.000 N 
ATOM     13  H   UNL     1     -18.924  38.899 -11.666  0.00  0.00    +0.000 HD
BRANCH  12  14
ATOM     14  C   UNL     1     -19.664  39.947 -10.003  0.00  0.00    +0.000 C 
BRANCH  14  15
ATOM     15  C   UNL     1     -18.800  40.646  -8.957  0.00  0.00    +0.000 C 
BRANCH  15  16
ATOM     16  C   UNL     1     -19.392  40.557  -7.548  0.00  0.00    +0.000 C 
BRANCH  16  20
ATOM     17  F   UNL     1     -20.463  41.802  -5.858  0.00  0.00    +0.000 F 
ATOM     18  F   UNL     1     -19.364  42.918  -7.374  0.00  0.00    +0.000 F 
ATOM     19  F   UNL     1     -21.263  41.966  -7.879  0.00  0.00    +0.000 F 
ATOM     20  C   UNL     1     -20.126  41.824  -7.167  0.00  0.00    +0.000 C 
ENDBRANCH  16  20
ENDBRANCH  15  16
ENDBRANCH  14  15
ENDBRANCH  12  14
ENDBRANCH   2  12
TORSDOF 6
ENDMDL
MODEL 3
REMARK VINA RESULT:    -6.609      3.662      5.577
REMARK INTER + INTRA:          -9.548
REMARK INTER:                  -8.594
REMARK INTRA:                  -0.954
REMARK UNBOUND:                -0.621
REMARK  Name = 79040050
REMARK  6 active torsions:
REMARK  status: ('A' for Active; 'I' for Inactive)
REMARK    1  A    between atoms: N_5  and  C_9
REMARK    2  A    between atoms: N_5  and  C_12
REMARK    3  A    between atoms: C_8  and  C_9
REMARK    4  A    between atoms: C_8  and  C_10
REMARK    5  A    between atoms: C_10  and  C_11
REMARK    6  A    between atoms: C_13  and  C_16
REMARK                            x       y       z     vdW  Elec       q    Type
REMARK                         _______ _______ _______ _____ _____    ______ ____
ROOT
ATOM      1  N   UNL     1     -18.611  42.329  -8.272  0.00  0.00    +0.000 NA
ATOM      2  C   UNL     1     -18.386  41.631  -9.410  0.00  0.00    +0.000 A 
ATOM      3  C   UNL     1     -19.193  40.598  -9.858  0.00  0.00    +0.000 A 
ATOM      4  C   UNL     1     -20.302  40.258  -9.092  0.00  0.00    +0.000 A 
ATOM      5  C   UNL     1     -20.566  40.952  -7.916  0.00  0.00    +0.000 A 
ATOM      6  C   UNL     1     -19.698  41.970  -7.554  0.00  0.00    +0.000 A 
ENDROOT
BRANCH   3   9
ATOM      7  O   UNL     1     -17.861  39.239 -11.246  0.00  0.00    +0.000 OA
ATOM      8  N   UNL     1     -19.905  39.870 -12.072  0.00  0.00    +0.000 N 
ATOM      9  C   UNL     1     -18.923  39.864 -11.087  0.00  0.00    +0.000 C 
ATOM     10  H   UNL     1     -20.782  40.367 -11.955  0.00  0.00    +0.000 HD
ATOM     11  H   UNL     1     -19.772  39.369 -12.943  0.00  0.00    +0.000 HD
ENDBRANCH   3   9
BRANCH   2  12
ATOM     12  N   UNL     1     -17.277  41.974 -10.167  0.00  0.00    +0.000 N 
ATOM     13  H   UNL     1     -16.411  41.496  -9.941  0.00  0.00    +0.000 HD
BRANCH  12  14
ATOM     14  C   UNL     1     -17.150  43.221 -10.885  0.00  0.00    +0.000 C 
BRANCH  14  15
ATOM     15  C   UNL     1     -16.497  42.998 -12.246  0.00  0.00    +0.000 C 
BRANCH  15  16
ATOM     16  C   UNL     1     -17.379  42.185 -13.197  0.00  0.00    +0.000 C 
BRANCH  16  20
ATOM     17  F   UNL     1     -18.966  42.522 -14.906  0.00  0.00    +0.000 F 
ATOM     18  F   UNL     1     -19.594  42.948 -12.863  0.00  0.00    +0.000 F 
ATOM     19  F   UNL     1     -18.208  44.292 -13.883  0.00  0.00    +0.000 F 
ATOM     20  C   UNL     1     -18.547  42.997 -13.712  0.00  0.00    +0.000 C 
ENDBRANCH  16  20
ENDBRANCH  15  16
ENDBRANCH  14  15
ENDBRANCH  12  14
ENDBRANCH   2  12
TORSDOF 6
ENDMDL
MODEL 4
REMARK VINA RESULT:    -6.224      2.310      2.929
REMARK INTER + INTRA:          -9.028
REMARK INTER:                  -8.895
REMARK INTRA:                  -0.134
REMARK UNBOUND:                -0.621
REMARK  Name = 79040050
REMARK  6 active torsions:
REMARK  status: ('A' for Active; 'I' for Inactive)
REMARK    1  A    between atoms: N_5  and  C_9
REMARK    2  A    between atoms: N_5  and  C_12
REMARK    3  A    between atoms: C_8  and  C_9
REMARK    4  A    between atoms: C_8  and  C_10
REMARK    5  A    between atoms: C_10  and  C_11
REMARK    6  A    between atoms: C_13  and  C_16
REMARK                            x       y       z     vdW  Elec       q    Type
REMARK                         _______ _______ _______ _____ _____    ______ ____
ROOT
ATOM      1  N   UNL     1     -17.481  43.474 -10.953  0.00  0.00    +0.000 NA
ATOM      2  C   UNL     1     -17.480  42.175 -11.332  0.00  0.00    +0.000 A 
ATOM      3  C   UNL     1     -17.854  41.734 -12.591  0.00  0.00    +0.000 A 
ATOM      4  C   UNL     1     -18.256  42.687 -13.522  0.00  0.00    +0.000 A 
ATOM      5  C   UNL     1     -18.269  44.031 -13.169  0.00  0.00    +0.000 A 
ATOM      6  C   UNL     1     -17.876  44.370 -11.884  0.00  0.00    +0.000 A 
ENDROOT
BRANCH   3   9
ATOM      7  O   UNL     1     -18.901  39.681 -13.077  0.00  0.00    +0.000 OA
ATOM      8  N   UNL     1     -16.613  39.735 -13.222  0.00  0.00    +0.000 N 
ATOM      9  C   UNL     1     -17.846  40.328 -12.968  0.00  0.00    +0.000 C 
ATOM     10  H   UNL     1     -15.741  40.250 -13.147  0.00  0.00    +0.000 HD
ATOM     11  H   UNL     1     -16.549  38.761 -13.496  0.00  0.00    +0.000 HD
ENDBRANCH   3   9
BRANCH   2  12
ATOM     12  N   UNL     1     -17.082  41.231 -10.398  0.00  0.00    +0.000 N 
ATOM     13  H   UNL     1     -16.120  40.913 -10.461  0.00  0.00    +0.000 HD
BRANCH  12  14
ATOM     14  C   UNL     1     -17.997  40.365  -9.692  0.00  0.00    +0.000 C 
BRANCH  14  15
ATOM     15  C   UNL     1     -19.234  41.137  -9.242  0.00  0.00    +0.000 C 
BRANCH  15  16
ATOM     16  C   UNL     1     -19.710  40.726  -7.847  0.00  0.00    +0.000 C 
BRANCH  16  20
ATOM     17  F   UNL     1     -21.489  42.257  -7.646  0.00  0.00    +0.000 F 
ATOM     18  F   UNL     1     -20.548  41.575  -5.802  0.00  0.00    +0.000 F 
ATOM     19  F   UNL     1     -19.496  42.966  -7.117  0.00  0.00    +0.000 F 
ATOM     20  C   UNL     1     -20.312  41.891  -7.092  0.00  0.00    +0.000 C 
ENDBRANCH  16  20
ENDBRANCH  15  16
ENDBRANCH  14  15
ENDBRANCH  12  14
ENDBRANCH   2  12
TORSDOF 6
ENDMDL
MODEL 5
REMARK VINA RESULT:    -6.085      2.377      3.322
REMARK INTER + INTRA:          -8.841
REMARK INTER:                  -8.154
REMARK INTRA:                  -0.686
REMARK UNBOUND:                -0.621
REMARK  Name = 79040050
REMARK  6 active torsions:
REMARK  status: ('A' for Active; 'I' for Inactive)
REMARK    1  A    between atoms: N_5  and  C_9
REMARK    2  A    between atoms: N_5  and  C_12
REMARK    3  A    between atoms: C_8  and  C_9
REMARK    4  A    between atoms: C_8  and  C_10
REMARK    5  A    between atoms: C_10  and  C_11
REMARK    6  A    between atoms: C_13  and  C_16
REMARK                            x       y       z     vdW  Elec       q    Type
REMARK                         _______ _______ _______ _____ _____    ______ ____
ROOT
ATOM      1  N   UNL     1     -16.804  42.225 -10.678  0.00  0.00    +0.000 NA
ATOM      2  C   UNL     1     -17.958  42.131 -11.377  0.00  0.00    +0.000 A 
ATOM      3  C   UNL     1     -18.137  42.647 -12.651  0.00  0.00    +0.000 A 
ATOM      4  C   UNL     1     -17.064  43.301 -13.246  0.00  0.00    +0.000 A 
ATOM      5  C   UNL     1     -15.861  43.417 -12.558  0.00  0.00    +0.000 A 
ATOM      6  C   UNL     1     -15.783  42.867 -11.289  0.00  0.00    +0.000 A 
ENDROOT
BRANCH   3   9
ATOM      7  O   UNL     1     -19.989  41.447 -13.473  0.00  0.00    +0.000 OA
ATOM      8  N   UNL     1     -19.918  43.689 -13.946  0.00  0.00    +0.000 N 
ATOM      9  C   UNL     1     -19.394  42.533 -13.377  0.00  0.00    +0.000 C 
ATOM     10  H   UNL     1     -19.451  44.587 -13.871  0.00  0.00    +0.000 HD
ATOM     11  H   UNL     1     -20.794  43.668 -14.457  0.00  0.00    +0.000 HD
ENDBRANCH   3   9
BRANCH   2  12
ATOM     12  N   UNL     1     -19.025  41.481 -10.776  0.00  0.00    +0.000 N 
ATOM     13  H   UNL     1     -19.809  42.061 -10.501  0.00  0.00    +0.000 HD
BRANCH  12  14
ATOM     14  C   UNL     1     -18.915  40.200 -10.119  0.00  0.00    +0.000 C 
BRANCH  14  15
ATOM     15  C   UNL     1     -19.775  40.163  -8.858  0.00  0.00    +0.000 C 
BRANCH  15  16
ATOM     16  C   UNL     1     -19.768  41.494  -8.101  0.00  0.00    +0.000 C 
BRANCH  16  20
ATOM     17  F   UNL     1     -20.780  41.259  -5.987  0.00  0.00    +0.000 F 
ATOM     18  F   UNL     1     -21.402  42.955  -7.208  0.00  0.00    +0.000 F 
ATOM     19  F   UNL     1     -22.038  40.934  -7.737  0.00  0.00    +0.000 F 
ATOM     20  C   UNL     1     -21.011  41.664  -7.255  0.00  0.00    +0.000 C 
ENDBRANCH  16  20
ENDBRANCH  15  16
ENDBRANCH  14  15
ENDBRANCH  12  14
ENDBRANCH   2  12
TORSDOF 6
ENDMDL
