MODEL 1
REMARK VINA RESULT:    -7.605      0.000      0.000
REMARK INTER + INTRA:          -9.074
REMARK INTER:                  -8.939
REMARK INTRA:                  -0.135
REMARK UNBOUND:                -0.135
REMARK  Name = 79099278
REMARK  3 active torsions:
REMARK  status: ('A' for Active; 'I' for Inactive)
REMARK    1  A    between atoms: N_4  and  C_7
REMARK    2  A    between atoms: C_7  and  C_11
REMARK    3  A    between atoms: C_10  and  C_14
REMARK                            x       y       z     vdW  Elec       q    Type
REMARK                         _______ _______ _______ _____ _____    ______ ____
ROOT
ATOM      1  N   UNL     1     -17.718  40.662  -9.830  0.00  0.00    +0.000 N 
ATOM      2  N   UNL     1     -18.661  41.894  -8.022  0.00  0.00    +0.000 NA
ATOM      3  C   UNL     1     -18.835  41.010  -9.031  0.00  0.00    +0.000 A 
ATOM      4  C   UNL     1     -20.046  40.413  -9.338  0.00  0.00    +0.000 A 
ATOM      5  C   UNL     1     -21.013  41.650  -7.516  0.00  0.00    +0.000 A 
ATOM      6  C   UNL     1     -21.151  40.745  -8.563  0.00  0.00    +0.000 A 
ATOM      7  C   UNL     1     -19.759  42.192  -7.289  0.00  0.00    +0.000 A 
ATOM      8  H   UNL     1     -16.838  41.105  -9.594  0.00  0.00    +0.000 HD
ENDROOT
BRANCH   5  11
ATOM      9  O   UNL     1     -23.059  41.205  -6.437  0.00  0.00    +0.000 OA
ATOM     10  N   UNL     1     -22.179  43.305  -6.161  0.00  0.00    +0.000 N 
ATOM     11  C   UNL     1     -22.148  42.016  -6.687  0.00  0.00    +0.000 C 
ATOM     12  H   UNL     1     -21.479  44.020  -6.312  0.00  0.00    +0.000 HD
ATOM     13  H   UNL     1     -22.957  43.586  -5.573  0.00  0.00    +0.000 HD
ENDBRANCH   5  11
BRANCH   1  14
ATOM     14  C   UNL     1     -17.805  39.740 -10.915  0.00  0.00    +0.000 C 
BRANCH  14  17
ATOM     15  F   UNL     1     -17.185  39.750 -13.186  0.00  0.00    +0.000 F 
ATOM     16  F   UNL     1     -15.640  39.284 -11.720  0.00  0.00    +0.000 F 
ATOM     17  C   UNL     1     -16.738  40.047 -11.943  0.00  0.00    +0.000 C 
ENDBRANCH  14  17
ENDBRANCH   1  14
TORSDOF 3
ENDMDL
MODEL 2
REMARK VINA RESULT:    -7.319      4.175      5.866
REMARK INTER + INTRA:          -8.738
REMARK INTER:                  -8.504
REMARK INTRA:                  -0.234
REMARK UNBOUND:                -0.135
REMARK  Name = 79099278
REMARK  3 active torsions:
REMARK  status: ('A' for Active; 'I' for Inactive)
REMARK    1  A    between atoms: N_4  and  C_7
REMARK    2  A    between atoms: C_7  and  C_11
REMARK    3  A    between atoms: C_10  and  C_14
REMARK                            x       y       z     vdW  Elec       q    Type
REMARK                         _______ _______ _______ _____ _____    ______ ____
ROOT
ATOM      1  N   UNL     1     -20.013  42.311  -6.650  0.00  0.00    +0.000 N 
ATOM      2  N   UNL     1     -18.599  42.142  -8.560  0.00  0.00    +0.000 NA
ATOM      3  C   UNL     1     -19.659  41.672  -7.864  0.00  0.00    +0.000 A 
ATOM      4  C   UNL     1     -20.434  40.596  -8.265  0.00  0.00    +0.000 A 
ATOM      5  C   UNL     1     -19.014  40.413 -10.197  0.00  0.00    +0.000 A 
ATOM      6  C   UNL     1     -20.098  39.959  -9.454  0.00  0.00    +0.000 A 
ATOM      7  C   UNL     1     -18.304  41.497  -9.712  0.00  0.00    +0.000 A 
ATOM      8  H   UNL     1     -19.439  43.097  -6.369  0.00  0.00    +0.000 HD
ENDROOT
BRANCH   5  11
ATOM      9  O   UNL     1     -17.450  39.529 -11.721  0.00  0.00    +0.000 OA
ATOM     10  N   UNL     1     -19.660  39.409 -12.321  0.00  0.00    +0.000 N 
ATOM     11  C   UNL     1     -18.640  39.769 -11.444  0.00  0.00    +0.000 C 
ATOM     12  H   UNL     1     -20.648  39.564 -12.170  0.00  0.00    +0.000 HD
ATOM     13  H   UNL     1     -19.427  38.953 -13.198  0.00  0.00    +0.000 HD
ENDBRANCH   5  11
BRANCH   1  14
ATOM     14  C   UNL     1     -21.115  41.886  -5.850  0.00  0.00    +0.000 C 
BRANCH  14  17
ATOM     15  F   UNL     1     -23.107  41.941  -7.103  0.00  0.00    +0.000 F 
ATOM     16  F   UNL     1     -22.020  43.815  -6.853  0.00  0.00    +0.000 F 
ATOM     17  C   UNL     1     -22.359  42.659  -6.231  0.00  0.00    +0.000 C 
ENDBRANCH  14  17
ENDBRANCH   1  14
TORSDOF 3
ENDMDL
MODEL 3
REMARK VINA RESULT:    -6.904      4.321      6.371
REMARK INTER + INTRA:          -8.250
REMARK INTER:                  -8.094
REMARK INTRA:                  -0.155
REMARK UNBOUND:                -0.135
REMARK  Name = 79099278
REMARK  3 active torsions:
REMARK  status: ('A' for Active; 'I' for Inactive)
REMARK    1  A    between atoms: N_4  and  C_7
REMARK    2  A    between atoms: C_7  and  C_11
REMARK    3  A    between atoms: C_10  and  C_14
REMARK                            x       y       z     vdW  Elec       q    Type
REMARK                         _______ _______ _______ _____ _____    ______ ____
ROOT
ATOM      1  N   UNL     1     -20.759  40.703  -8.400  0.00  0.00    +0.000 N 
ATOM      2  N   UNL     1     -19.937  39.533 -10.306  0.00  0.00    +0.000 NA
ATOM      3  C   UNL     1     -19.745  40.485  -9.365  0.00  0.00    +0.000 A 
ATOM      4  C   UNL     1     -18.607  41.271  -9.279  0.00  0.00    +0.000 A 
ATOM      5  C   UNL     1     -17.765  40.099 -11.203  0.00  0.00    +0.000 A 
ATOM      6  C   UNL     1     -17.603  41.069 -10.219  0.00  0.00    +0.000 A 
ATOM      7  C   UNL     1     -18.939  39.365 -11.203  0.00  0.00    +0.000 A 
ATOM      8  H   UNL     1     -21.585  40.122  -8.474  0.00  0.00    +0.000 HD
ENDROOT
BRANCH   5  11
ATOM      9  O   UNL     1     -17.003  39.799 -13.412  0.00  0.00    +0.000 OA
ATOM     10  N   UNL     1     -15.421  39.727 -11.753  0.00  0.00    +0.000 N 
ATOM     11  C   UNL     1     -16.734  39.863 -12.198  0.00  0.00    +0.000 C 
ATOM     12  H   UNL     1     -15.119  39.770 -10.789  0.00  0.00    +0.000 HD
ATOM     13  H   UNL     1     -14.679  39.567 -12.428  0.00  0.00    +0.000 HD
ENDBRANCH   5  11
BRANCH   1  14
ATOM     14  C   UNL     1     -20.644  41.685  -7.371  0.00  0.00    +0.000 C 
BRANCH  14  17
ATOM     15  F   UNL     1     -22.975  41.415  -7.562  0.00  0.00    +0.000 F 
ATOM     16  F   UNL     1     -22.233  43.366  -6.932  0.00  0.00    +0.000 F 
ATOM     17  C   UNL     1     -22.015  42.032  -6.832  0.00  0.00    +0.000 C 
ENDBRANCH  14  17
ENDBRANCH   1  14
TORSDOF 3
ENDMDL
MODEL 4
REMARK VINA RESULT:    -6.043      1.825      2.274
REMARK INTER + INTRA:          -7.238
REMARK INTER:                  -6.973
REMARK INTRA:                  -0.265
REMARK UNBOUND:                -0.135
REMARK  Name = 79099278
REMARK  3 active torsions:
REMARK  status: ('A' for Active; 'I' for Inactive)
REMARK    1  A    between atoms: N_4  and  C_7
REMARK    2  A    between atoms: C_7  and  C_11
REMARK    3  A    between atoms: C_10  and  C_14
REMARK                            x       y       z     vdW  Elec       q    Type
REMARK                         _______ _______ _______ _____ _____    ______ ____
ROOT
ATOM      1  N   UNL     1     -17.701  40.189 -10.970  0.00  0.00    +0.000 N 
ATOM      2  N   UNL     1     -19.705  39.785  -9.746  0.00  0.00    +0.000 NA
ATOM      3  C   UNL     1     -18.601  40.543  -9.933  0.00  0.00    +0.000 A 
ATOM      4  C   UNL     1     -18.286  41.656  -9.171  0.00  0.00    +0.000 A 
ATOM      5  C   UNL     1     -20.305  41.260  -7.927  0.00  0.00    +0.000 A 
ATOM      6  C   UNL     1     -19.159  42.015  -8.151  0.00  0.00    +0.000 A 
ATOM      7  C   UNL     1     -20.531  40.165  -8.744  0.00  0.00    +0.000 A 
ATOM      8  H   UNL     1     -17.943  39.374 -11.520  0.00  0.00    +0.000 HD
ENDROOT
BRANCH   5  11
ATOM      9  O   UNL     1     -20.841  41.976  -5.747  0.00  0.00    +0.000 OA
ATOM     10  N   UNL     1     -22.599  41.541  -7.155  0.00  0.00    +0.000 N 
ATOM     11  C   UNL     1     -21.237  41.610  -6.869  0.00  0.00    +0.000 C 
ATOM     12  H   UNL     1     -23.001  41.259  -8.039  0.00  0.00    +0.000 HD
ATOM     13  H   UNL     1     -23.273  41.786  -6.436  0.00  0.00    +0.000 HD
ENDBRANCH   5  11
BRANCH   1  14
ATOM     14  C   UNL     1     -16.512  40.929 -11.241  0.00  0.00    +0.000 C 
BRANCH  14  17
ATOM     15  F   UNL     1     -16.319  43.039 -12.266  0.00  0.00    +0.000 F 
ATOM     16  F   UNL     1     -18.000  41.782 -12.854  0.00  0.00    +0.000 F 
ATOM     17  C   UNL     1     -16.694  41.758 -12.494  0.00  0.00    +0.000 C 
ENDBRANCH  14  17
ENDBRANCH   1  14
TORSDOF 3
ENDMDL
MODEL 5
REMARK VINA RESULT:    -6.009      4.567      6.427
REMARK INTER + INTRA:          -7.198
REMARK INTER:                  -7.016
REMARK INTRA:                  -0.183
REMARK UNBOUND:                -0.135
REMARK  Name = 79099278
REMARK  3 active torsions:
REMARK  status: ('A' for Active; 'I' for Inactive)
REMARK    1  A    between atoms: N_4  and  C_7
REMARK    2  A    between atoms: C_7  and  C_11
REMARK    3  A    between atoms: C_10  and  C_14
REMARK                            x       y       z     vdW  Elec       q    Type
REMARK                         _______ _______ _______ _____ _____    ______ ____
ROOT
ATOM      1  N   UNL     1     -19.812  40.488 -10.763  0.00  0.00    +0.000 N 
ATOM      2  N   UNL     1     -18.970  41.683 -12.644  0.00  0.00    +0.000 NA
ATOM      3  C   UNL     1     -18.821  41.311 -11.352  0.00  0.00    +0.000 A 
ATOM      4  C   UNL     1     -17.750  41.684 -10.556  0.00  0.00    +0.000 A 
ATOM      5  C   UNL     1     -16.888  42.897 -12.446  0.00  0.00    +0.000 A 
ATOM      6  C   UNL     1     -16.770  42.493 -11.121  0.00  0.00    +0.000 A 
ATOM      7  C   UNL     1     -17.996  42.469 -13.158  0.00  0.00    +0.000 A 
ATOM      8  H   UNL     1     -20.589  40.221 -11.356  0.00  0.00    +0.000 HD
ENDROOT
BRANCH   5  11
ATOM      9  O   UNL     1     -16.192  44.697 -13.798  0.00  0.00    +0.000 OA
ATOM     10  N   UNL     1     -14.543  43.456 -12.797  0.00  0.00    +0.000 N 
ATOM     11  C   UNL     1     -15.880  43.740 -13.065  0.00  0.00    +0.000 C 
ATOM     12  H   UNL     1     -14.207  42.703 -12.211  0.00  0.00    +0.000 HD
ATOM     13  H   UNL     1     -13.818  44.033 -13.211  0.00  0.00    +0.000 HD
ENDBRANCH   5  11
BRANCH   1  14
ATOM     14  C   UNL     1     -19.739  40.045  -9.409  0.00  0.00    +0.000 C 
BRANCH  14  17
ATOM     15  F   UNL     1     -20.209  41.094  -7.354  0.00  0.00    +0.000 F 
ATOM     16  F   UNL     1     -21.839  40.035  -8.342  0.00  0.00    +0.000 F 
ATOM     17  C   UNL     1     -20.742  40.801  -8.564  0.00  0.00    +0.000 C 
ENDBRANCH  14  17
ENDBRANCH   1  14
TORSDOF 3
ENDMDL
