MODEL 1
REMARK VINA RESULT:    -6.786      0.000      0.000
REMARK INTER + INTRA:          -7.516
REMARK INTER:                  -7.579
REMARK INTRA:                   0.063
REMARK UNBOUND:                 0.063
REMARK  Name = 80583554
REMARK  4 active torsions:
REMARK  status: ('A' for Active; 'I' for Inactive)
REMARK    1  A    between atoms: N_2  and  C_10
REMARK    2  A    between atoms: N_2  and  C_11
REMARK    3  A    between atoms: N_4  and  C_14
REMARK    4  A    between atoms: C_7  and  C_8
REMARK                            x       y       z     vdW  Elec       q    Type
REMARK                         _______ _______ _______ _____ _____    ______ ____
ROOT
ATOM      1  N   UNL     1     -18.868  42.351  -7.905  0.00  0.00    +0.000 NA
ATOM      2  C   UNL     1     -18.560  40.762  -9.700  0.00  0.00    +0.000 A 
ATOM      3  C   UNL     1     -19.678  40.052  -9.273  0.00  0.00    +0.000 A 
ATOM      4  C   UNL     1     -18.200  41.895  -8.988  0.00  0.00    +0.000 A 
ATOM      5  C   UNL     1     -20.390  40.491  -8.163  0.00  0.00    +0.000 A 
ATOM      6  C   UNL     1     -19.948  41.636  -7.519  0.00  0.00    +0.000 A 
ENDROOT
BRANCH   2   9
ATOM      7  O   UNL     1     -16.689  39.814 -10.640  0.00  0.00    +0.000 OA
ATOM      8  N   UNL     1     -18.344  40.501 -12.141  0.00  0.00    +0.000 N 
ATOM      9  C   UNL     1     -17.785  40.324 -10.871  0.00  0.00    +0.000 C 
ATOM     10  C   UNL     1     -17.657  40.084 -13.356  0.00  0.00    +0.000 C 
ATOM     11  C   UNL     1     -19.655  41.117 -12.336  0.00  0.00    +0.000 C 
ENDBRANCH   2   9
BRANCH   6  12
ATOM     12  N   UNL     1     -20.632  42.117  -6.399  0.00  0.00    +0.000 NA
ATOM     13  N   UNL     1     -21.859  42.248  -6.599  0.00  0.00    +0.000 NA
ATOM     14  N   UNL     1     -22.981  42.372  -6.776  0.00  0.00    +0.000 NA
ENDBRANCH   6  12
TORSDOF 2
ENDMDL
MODEL 2
REMARK VINA RESULT:    -5.734      2.468      2.900
REMARK INTER + INTRA:          -6.341
REMARK INTER:                  -6.347
REMARK INTRA:                   0.006
REMARK UNBOUND:                 0.063
REMARK  Name = 80583554
REMARK  4 active torsions:
REMARK  status: ('A' for Active; 'I' for Inactive)
REMARK    1  A    between atoms: N_2  and  C_10
REMARK    2  A    between atoms: N_2  and  C_11
REMARK    3  A    between atoms: N_4  and  C_14
REMARK    4  A    between atoms: C_7  and  C_8
REMARK                            x       y       z     vdW  Elec       q    Type
REMARK                         _______ _______ _______ _____ _____    ______ ____
ROOT
ATOM      1  N   UNL     1     -19.296  40.130 -10.717  0.00  0.00    +0.000 NA
ATOM      2  C   UNL     1     -17.699  41.942 -10.787  0.00  0.00    +0.000 A 
ATOM      3  C   UNL     1     -18.030  42.295  -9.483  0.00  0.00    +0.000 A 
ATOM      4  C   UNL     1     -18.355  40.862 -11.354  0.00  0.00    +0.000 A 
ATOM      5  C   UNL     1     -18.994  41.565  -8.796  0.00  0.00    +0.000 A 
ATOM      6  C   UNL     1     -19.593  40.501  -9.452  0.00  0.00    +0.000 A 
ENDROOT
BRANCH   2   9
ATOM      7  O   UNL     1     -15.508  42.437 -11.278  0.00  0.00    +0.000 OA
ATOM      8  N   UNL     1     -17.114  43.620 -12.496  0.00  0.00    +0.000 N 
ATOM      9  C   UNL     1     -16.683  42.694 -11.541  0.00  0.00    +0.000 C 
ATOM     10  C   UNL     1     -16.181  44.397 -13.300  0.00  0.00    +0.000 C 
ATOM     11  C   UNL     1     -18.531  43.871 -12.752  0.00  0.00    +0.000 C 
ENDBRANCH   2   9
BRANCH   6  12
ATOM     12  N   UNL     1     -20.566  39.737  -8.802  0.00  0.00    +0.000 NA
ATOM     13  N   UNL     1     -21.483  40.433  -8.313  0.00  0.00    +0.000 NA
ATOM     14  N   UNL     1     -22.323  41.062  -7.864  0.00  0.00    +0.000 NA
ENDBRANCH   6  12
TORSDOF 2
ENDMDL
MODEL 3
REMARK VINA RESULT:    -5.685      2.689      3.173
REMARK INTER + INTRA:          -6.286
REMARK INTER:                  -6.195
REMARK INTRA:                  -0.091
REMARK UNBOUND:                 0.063
REMARK  Name = 80583554
REMARK  4 active torsions:
REMARK  status: ('A' for Active; 'I' for Inactive)
REMARK    1  A    between atoms: N_2  and  C_10
REMARK    2  A    between atoms: N_2  and  C_11
REMARK    3  A    between atoms: N_4  and  C_14
REMARK    4  A    between atoms: C_7  and  C_8
REMARK                            x       y       z     vdW  Elec       q    Type
REMARK                         _______ _______ _______ _____ _____    ______ ____
ROOT
ATOM      1  N   UNL     1     -19.712  40.629 -10.701  0.00  0.00    +0.000 NA
ATOM      2  C   UNL     1     -18.005  42.336 -10.595  0.00  0.00    +0.000 A 
ATOM      3  C   UNL     1     -18.088  42.345  -9.207  0.00  0.00    +0.000 A 
ATOM      4  C   UNL     1     -18.831  41.468 -11.290  0.00  0.00    +0.000 A 
ATOM      5  C   UNL     1     -18.983  41.496  -8.566  0.00  0.00    +0.000 A 
ATOM      6  C   UNL     1     -19.766  40.664  -9.350  0.00  0.00    +0.000 A 
ENDROOT
BRANCH   2   9
ATOM      7  O   UNL     1     -17.486  44.346 -11.584  0.00  0.00    +0.000 OA
ATOM      8  N   UNL     1     -15.787  42.741 -11.592  0.00  0.00    +0.000 N 
ATOM      9  C   UNL     1     -17.068  43.222 -11.304  0.00  0.00    +0.000 C 
ATOM     10  C   UNL     1     -14.789  43.552 -12.276  0.00  0.00    +0.000 C 
ATOM     11  C   UNL     1     -15.363  41.391 -11.226  0.00  0.00    +0.000 C 
ENDBRANCH   2   9
BRANCH   6  12
ATOM     12  N   UNL     1     -20.679  39.792  -8.752  0.00  0.00    +0.000 NA
ATOM     13  N   UNL     1     -21.664  40.385  -8.258  0.00  0.00    +0.000 NA
ATOM     14  N   UNL     1     -22.565  40.919  -7.804  0.00  0.00    +0.000 NA
ENDBRANCH   6  12
TORSDOF 2
ENDMDL
MODEL 4
REMARK VINA RESULT:    -5.353      4.753      6.249
REMARK INTER + INTRA:          -5.916
REMARK INTER:                  -5.835
REMARK INTRA:                  -0.081
REMARK UNBOUND:                 0.063
REMARK  Name = 80583554
REMARK  4 active torsions:
REMARK  status: ('A' for Active; 'I' for Inactive)
REMARK    1  A    between atoms: N_2  and  C_10
REMARK    2  A    between atoms: N_2  and  C_11
REMARK    3  A    between atoms: N_4  and  C_14
REMARK    4  A    between atoms: C_7  and  C_8
REMARK                            x       y       z     vdW  Elec       q    Type
REMARK                         _______ _______ _______ _____ _____    ______ ____
ROOT
ATOM      1  N   UNL     1     -19.610  42.020 -13.589  0.00  0.00    +0.000 NA
ATOM      2  C   UNL     1     -18.500  44.138 -13.239  0.00  0.00    +0.000 A 
ATOM      3  C   UNL     1     -17.321  43.475 -12.914  0.00  0.00    +0.000 A 
ATOM      4  C   UNL     1     -19.607  43.371 -13.567  0.00  0.00    +0.000 A 
ATOM      5  C   UNL     1     -17.287  42.085 -12.927  0.00  0.00    +0.000 A 
ATOM      6  C   UNL     1     -18.447  41.410 -13.268  0.00  0.00    +0.000 A 
ENDROOT
BRANCH   2   9
ATOM      7  O   UNL     1     -18.776  46.141 -12.145  0.00  0.00    +0.000 OA
ATOM      8  N   UNL     1     -18.383  46.285 -14.445  0.00  0.00    +0.000 N 
ATOM      9  C   UNL     1     -18.569  45.608 -13.235  0.00  0.00    +0.000 C 
ATOM     10  C   UNL     1     -18.419  47.738 -14.534  0.00  0.00    +0.000 C 
ATOM     11  C   UNL     1     -18.141  45.580 -15.702  0.00  0.00    +0.000 C 
ENDBRANCH   2   9
BRANCH   6  12
ATOM     12  N   UNL     1     -18.462  40.012 -13.296  0.00  0.00    +0.000 NA
ATOM     13  N   UNL     1     -18.833  39.509 -12.213  0.00  0.00    +0.000 NA
ATOM     14  N   UNL     1     -19.171  39.043 -11.227  0.00  0.00    +0.000 NA
ENDBRANCH   6  12
TORSDOF 2
ENDMDL
MODEL 5
REMARK VINA RESULT:    -5.259      3.348      4.586
REMARK INTER + INTRA:          -5.811
REMARK INTER:                  -5.834
REMARK INTRA:                   0.023
REMARK UNBOUND:                 0.063
REMARK  Name = 80583554
REMARK  4 active torsions:
REMARK  status: ('A' for Active; 'I' for Inactive)
REMARK    1  A    between atoms: N_2  and  C_10
REMARK    2  A    between atoms: N_2  and  C_11
REMARK    3  A    between atoms: N_4  and  C_14
REMARK    4  A    between atoms: C_7  and  C_8
REMARK                            x       y       z     vdW  Elec       q    Type
REMARK                         _______ _______ _______ _____ _____    ______ ____
ROOT
ATOM      1  N   UNL     1     -18.060  40.548 -12.643  0.00  0.00    +0.000 NA
ATOM      2  C   UNL     1     -16.983  42.698 -12.397  0.00  0.00    +0.000 A 
ATOM      3  C   UNL     1     -17.204  42.660 -11.024  0.00  0.00    +0.000 A 
ATOM      4  C   UNL     1     -17.426  41.626 -13.156  0.00  0.00    +0.000 A 
ATOM      5  C   UNL     1     -17.853  41.568 -10.461  0.00  0.00    +0.000 A 
ATOM      6  C   UNL     1     -18.257  40.546 -11.305  0.00  0.00    +0.000 A 
ENDROOT
BRANCH   2   9
ATOM      7  O   UNL     1     -15.073  43.769 -13.095  0.00  0.00    +0.000 OA
ATOM      8  N   UNL     1     -17.077  44.900 -13.501  0.00  0.00    +0.000 N 
ATOM      9  C   UNL     1     -16.299  43.840 -13.024  0.00  0.00    +0.000 C 
ATOM     10  C   UNL     1     -16.489  46.064 -14.149  0.00  0.00    +0.000 C 
ATOM     11  C   UNL     1     -18.533  44.912 -13.380  0.00  0.00    +0.000 C 
ENDBRANCH   2   9
BRANCH   6  12
ATOM     12  N   UNL     1     -18.912  39.426 -10.785  0.00  0.00    +0.000 NA
ATOM     13  N   UNL     1     -19.706  39.713  -9.863  0.00  0.00    +0.000 NA
ATOM     14  N   UNL     1     -20.432  39.968  -9.020  0.00  0.00    +0.000 NA
ENDBRANCH   6  12
TORSDOF 2
ENDMDL
