MODEL 1
REMARK VINA RESULT:    -4.717      0.000      0.000
REMARK INTER + INTRA:          -5.974
REMARK INTER:                  -5.820
REMARK INTRA:                  -0.153
REMARK UNBOUND:                -0.153
REMARK  Name = 82075846
REMARK  6 active torsions:
REMARK  status: ('A' for Active; 'I' for Inactive)
REMARK    1  A    between atoms: N_2  and  C_5
REMARK    2  A    between atoms: N_2  and  C_6
REMARK    3  A    between atoms: N_2  and  C_7
REMARK    4  A    between atoms: C_5  and  C_9
REMARK    5  A    between atoms: C_6  and  C_10
REMARK    6  A    between atoms: C_8  and  C_12
REMARK                            x       y       z     vdW  Elec       q    Type
REMARK                         _______ _______ _______ _____ _____    ______ ____
ROOT
ATOM      1  N   UNL     1     -17.874  44.149 -12.412  0.00  0.00    +0.000 NA
ATOM      2  C   UNL     1     -17.960  42.806 -12.280  0.00  0.00    +0.000 A 
ATOM      3  C   UNL     1     -18.613  41.979 -13.178  0.00  0.00    +0.000 A 
ATOM      4  C   UNL     1     -19.217  42.566 -14.284  0.00  0.00    +0.000 A 
ATOM      5  C   UNL     1     -19.149  43.944 -14.456  0.00  0.00    +0.000 A 
ATOM      6  C   UNL     1     -18.472  44.684 -13.499  0.00  0.00    +0.000 A 
ENDROOT
BRANCH   3   9
ATOM      7  O   UNL     1     -17.740  39.795 -13.308  0.00  0.00    +0.000 OA
ATOM      8  N   UNL     1     -19.865  40.010 -12.475  0.00  0.00    +0.000 N 
ATOM      9  C   UNL     1     -18.692  40.534 -13.006  0.00  0.00    +0.000 C 
ATOM     10  H   UNL     1     -20.650  40.600 -12.214  0.00  0.00    +0.000 HD
ATOM     11  H   UNL     1     -19.973  39.012 -12.331  0.00  0.00    +0.000 HD
ENDBRANCH   3   9
BRANCH   2  12
ATOM     12  N   UNL     1     -17.344  42.215 -11.147  0.00  0.00    +0.000 N 
BRANCH  12  13
ATOM     13  C   UNL     1     -16.006  41.677 -11.245  0.00  0.00    +0.000 C 
ATOM     14  C   UNL     1     -14.994  42.804 -11.312  0.00  0.00    +0.000 C 
ENDBRANCH  12  13
BRANCH  12  15
ATOM     15  C   UNL     1     -18.055  42.139  -9.891  0.00  0.00    +0.000 C 
ATOM     16  C   UNL     1     -18.061  40.711  -9.378  0.00  0.00    +0.000 C 
ENDBRANCH  12  15
ENDBRANCH   2  12
TORSDOF 4
ENDMDL
MODEL 2
REMARK VINA RESULT:    -4.250      5.203      6.711
REMARK INTER + INTRA:          -5.397
REMARK INTER:                  -5.439
REMARK INTRA:                   0.042
REMARK UNBOUND:                -0.153
REMARK  Name = 82075846
REMARK  6 active torsions:
REMARK  status: ('A' for Active; 'I' for Inactive)
REMARK    1  A    between atoms: N_2  and  C_5
REMARK    2  A    between atoms: N_2  and  C_6
REMARK    3  A    between atoms: N_2  and  C_7
REMARK    4  A    between atoms: C_5  and  C_9
REMARK    5  A    between atoms: C_6  and  C_10
REMARK    6  A    between atoms: C_8  and  C_12
REMARK                            x       y       z     vdW  Elec       q    Type
REMARK                         _______ _______ _______ _____ _____    ______ ____
ROOT
ATOM      1  N   UNL     1     -21.732  46.517 -17.765  0.00  0.00    +0.000 NA
ATOM      2  C   UNL     1     -21.035  45.437 -17.346  0.00  0.00    +0.000 A 
ATOM      3  C   UNL     1     -21.618  44.283 -16.847  0.00  0.00    +0.000 A 
ATOM      4  C   UNL     1     -23.005  44.234 -16.774  0.00  0.00    +0.000 A 
ATOM      5  C   UNL     1     -23.758  45.325 -17.196  0.00  0.00    +0.000 A 
ATOM      6  C   UNL     1     -23.079  46.433 -17.678  0.00  0.00    +0.000 A 
ENDROOT
BRANCH   3   9
ATOM      7  O   UNL     1     -20.419  42.288 -17.204  0.00  0.00    +0.000 OA
ATOM      8  N   UNL     1     -20.567  43.031 -15.040  0.00  0.00    +0.000 N 
ATOM      9  C   UNL     1     -20.839  43.136 -16.400  0.00  0.00    +0.000 C 
ATOM     10  H   UNL     1     -20.895  43.719 -14.370  0.00  0.00    +0.000 HD
ATOM     11  H   UNL     1     -20.026  42.254 -14.675  0.00  0.00    +0.000 HD
ENDBRANCH   3   9
BRANCH   2  12
ATOM     12  N   UNL     1     -19.620  45.495 -17.421  0.00  0.00    +0.000 N 
BRANCH  12  13
ATOM     13  C   UNL     1     -18.830  45.545 -16.212  0.00  0.00    +0.000 C 
ATOM     14  C   UNL     1     -18.938  46.916 -15.573  0.00  0.00    +0.000 C 
ENDBRANCH  12  13
BRANCH  12  15
ATOM     15  C   UNL     1     -18.962  45.514 -18.708  0.00  0.00    +0.000 C 
ATOM     16  C   UNL     1     -18.354  44.155 -19.004  0.00  0.00    +0.000 C 
ENDBRANCH  12  15
ENDBRANCH   2  12
TORSDOF 4
ENDMDL
MODEL 3
REMARK VINA RESULT:    -4.117      3.658      6.444
REMARK INTER + INTRA:          -5.234
REMARK INTER:                  -4.932
REMARK INTRA:                  -0.301
REMARK UNBOUND:                -0.153
REMARK  Name = 82075846
REMARK  6 active torsions:
REMARK  status: ('A' for Active; 'I' for Inactive)
REMARK    1  A    between atoms: N_2  and  C_5
REMARK    2  A    between atoms: N_2  and  C_6
REMARK    3  A    between atoms: N_2  and  C_7
REMARK    4  A    between atoms: C_5  and  C_9
REMARK    5  A    between atoms: C_6  and  C_10
REMARK    6  A    between atoms: C_8  and  C_12
REMARK                            x       y       z     vdW  Elec       q    Type
REMARK                         _______ _______ _______ _____ _____    ______ ____
ROOT
ATOM      1  N   UNL     1     -20.015  42.653 -14.829  0.00  0.00    +0.000 NA
ATOM      2  C   UNL     1     -19.624  43.780 -15.465  0.00  0.00    +0.000 A 
ATOM      3  C   UNL     1     -18.762  44.718 -14.922  0.00  0.00    +0.000 A 
ATOM      4  C   UNL     1     -18.269  44.485 -13.643  0.00  0.00    +0.000 A 
ATOM      5  C   UNL     1     -18.647  43.337 -12.956  0.00  0.00    +0.000 A 
ATOM      6  C   UNL     1     -19.516  42.460 -13.588  0.00  0.00    +0.000 A 
ENDROOT
BRANCH   3   9
ATOM      7  O   UNL     1     -18.979  46.994 -15.488  0.00  0.00    +0.000 OA
ATOM      8  N   UNL     1     -17.250  45.846 -16.463  0.00  0.00    +0.000 N 
ATOM      9  C   UNL     1     -18.361  45.925 -15.631  0.00  0.00    +0.000 C 
ATOM     10  H   UNL     1     -16.728  44.984 -16.586  0.00  0.00    +0.000 HD
ATOM     11  H   UNL     1     -16.925  46.658 -16.978  0.00  0.00    +0.000 HD
ENDBRANCH   3   9
BRANCH   2  12
ATOM     12  N   UNL     1     -20.134  44.012 -16.768  0.00  0.00    +0.000 N 
BRANCH  12  13
ATOM     13  C   UNL     1     -21.251  44.908 -16.962  0.00  0.00    +0.000 C 
ATOM     14  C   UNL     1     -22.557  44.142 -16.874  0.00  0.00    +0.000 C 
ENDBRANCH  12  13
BRANCH  12  15
ATOM     15  C   UNL     1     -19.544  43.346 -17.908  0.00  0.00    +0.000 C 
ATOM     16  C   UNL     1     -19.350  44.331 -19.045  0.00  0.00    +0.000 C 
ENDBRANCH  12  15
ENDBRANCH   2  12
TORSDOF 4
ENDMDL
MODEL 4
REMARK VINA RESULT:    -3.992     13.391     14.837
REMARK INTER + INTRA:          -5.079
REMARK INTER:                  -4.768
REMARK INTRA:                  -0.311
REMARK UNBOUND:                -0.153
REMARK  Name = 82075846
REMARK  6 active torsions:
REMARK  status: ('A' for Active; 'I' for Inactive)
REMARK    1  A    between atoms: N_2  and  C_5
REMARK    2  A    between atoms: N_2  and  C_6
REMARK    3  A    between atoms: N_2  and  C_7
REMARK    4  A    between atoms: C_5  and  C_9
REMARK    5  A    between atoms: C_6  and  C_10
REMARK    6  A    between atoms: C_8  and  C_12
REMARK                            x       y       z     vdW  Elec       q    Type
REMARK                         _______ _______ _______ _____ _____    ______ ____
ROOT
ATOM      1  N   UNL     1     -33.012  42.487 -15.092  0.00  0.00    +0.000 NA
ATOM      2  C   UNL     1     -32.125  43.395 -15.556  0.00  0.00    +0.000 A 
ATOM      3  C   UNL     1     -31.656  44.469 -14.819  0.00  0.00    +0.000 A 
ATOM      4  C   UNL     1     -32.127  44.622 -13.520  0.00  0.00    +0.000 A 
ATOM      5  C   UNL     1     -33.040  43.708 -13.005  0.00  0.00    +0.000 A 
ATOM      6  C   UNL     1     -33.448  42.668 -13.825  0.00  0.00    +0.000 A 
ENDROOT
BRANCH   3   9
ATOM      7  O   UNL     1     -31.067  46.369 -16.081  0.00  0.00    +0.000 OA
ATOM      8  N   UNL     1     -29.366  45.283 -14.992  0.00  0.00    +0.000 N 
ATOM      9  C   UNL     1     -30.701  45.434 -15.348  0.00  0.00    +0.000 C 
ATOM     10  H   UNL     1     -29.051  44.531 -14.387  0.00  0.00    +0.000 HD
ATOM     11  H   UNL     1     -28.660  45.929 -15.329  0.00  0.00    +0.000 HD
ENDBRANCH   3   9
BRANCH   2  12
ATOM     12  N   UNL     1     -31.651  43.234 -16.883  0.00  0.00    +0.000 N 
BRANCH  12  13
ATOM     13  C   UNL     1     -30.444  42.481 -17.138  0.00  0.00    +0.000 C 
ATOM     14  C   UNL     1     -30.787  41.044 -17.481  0.00  0.00    +0.000 C 
ENDBRANCH  12  13
BRANCH  12  15
ATOM     15  C   UNL     1     -32.369  43.829 -17.988  0.00  0.00    +0.000 C 
ATOM     16  C   UNL     1     -31.392  44.383 -19.008  0.00  0.00    +0.000 C 
ENDBRANCH  12  15
ENDBRANCH   2  12
TORSDOF 4
ENDMDL
MODEL 5
REMARK VINA RESULT:    -3.979      2.082      3.458
REMARK INTER + INTRA:          -5.063
REMARK INTER:                  -4.713
REMARK INTRA:                  -0.351
REMARK UNBOUND:                -0.153
REMARK  Name = 82075846
REMARK  6 active torsions:
REMARK  status: ('A' for Active; 'I' for Inactive)
REMARK    1  A    between atoms: N_2  and  C_5
REMARK    2  A    between atoms: N_2  and  C_6
REMARK    3  A    between atoms: N_2  and  C_7
REMARK    4  A    between atoms: C_5  and  C_9
REMARK    5  A    between atoms: C_6  and  C_10
REMARK    6  A    between atoms: C_8  and  C_12
REMARK                            x       y       z     vdW  Elec       q    Type
REMARK                         _______ _______ _______ _____ _____    ______ ____
ROOT
ATOM      1  N   UNL     1     -18.577  43.790 -13.933  0.00  0.00    +0.000 NA
ATOM      2  C   UNL     1     -17.894  43.525 -12.797  0.00  0.00    +0.000 A 
ATOM      3  C   UNL     1     -18.188  42.477 -11.941  0.00  0.00    +0.000 A 
ATOM      4  C   UNL     1     -19.253  41.646 -12.272  0.00  0.00    +0.000 A 
ATOM      5  C   UNL     1     -19.979  41.885 -13.433  0.00  0.00    +0.000 A 
ATOM      6  C   UNL     1     -19.605  42.961 -14.222  0.00  0.00    +0.000 A 
ENDROOT
BRANCH   3   9
ATOM      7  O   UNL     1     -17.774  42.719  -9.635  0.00  0.00    +0.000 OA
ATOM      8  N   UNL     1     -16.332  41.378 -10.809  0.00  0.00    +0.000 N 
ATOM      9  C   UNL     1     -17.435  42.219 -10.721  0.00  0.00    +0.000 C 
ATOM     10  H   UNL     1     -16.046  40.952 -11.686  0.00  0.00    +0.000 HD
ATOM     11  H   UNL     1     -15.774  41.161  -9.990  0.00  0.00    +0.000 HD
ENDBRANCH   3   9
BRANCH   2  12
ATOM     12  N   UNL     1     -16.811  44.379 -12.465  0.00  0.00    +0.000 N 
BRANCH  12  13
ATOM     13  C   UNL     1     -17.022  45.517 -11.600  0.00  0.00    +0.000 C 
ATOM     14  C   UNL     1     -17.291  46.760 -12.427  0.00  0.00    +0.000 C 
ENDBRANCH  12  13
BRANCH  12  15
ATOM     15  C   UNL     1     -15.492  44.120 -12.997  0.00  0.00    +0.000 C 
ATOM     16  C   UNL     1     -14.447  44.299 -11.912  0.00  0.00    +0.000 C 
ENDBRANCH  12  15
ENDBRANCH   2  12
TORSDOF 4
ENDMDL
