MODEL 1
REMARK VINA RESULT:    -6.392      0.000      0.000
REMARK INTER + INTRA:          -7.317
REMARK INTER:                  -7.139
REMARK INTRA:                  -0.178
REMARK UNBOUND:                -0.178
REMARK  Name = 83388488
REMARK  4 active torsions:
REMARK  status: ('A' for Active; 'I' for Inactive)
REMARK    1  A    between atoms: C_4  and  C_5
REMARK    2  A    between atoms: C_4  and  C_6
REMARK    3  A    between atoms: C_4  and  C_7
REMARK    4  A    between atoms: C_5  and  C_8
REMARK                            x       y       z     vdW  Elec       q    Type
REMARK                         _______ _______ _______ _____ _____    ______ ____
ROOT
ATOM      1  N   UNL     1     -18.769  42.224  -7.894  0.00  0.00    +0.000 NA
ATOM      2  N   UNL     1     -20.434  42.503  -6.213  0.00  0.00    +0.000 N 
ATOM      3  C   UNL     1     -19.135  40.634  -9.677  0.00  0.00    +0.000 A 
ATOM      4  C   UNL     1     -20.370  40.298  -9.135  0.00  0.00    +0.000 A 
ATOM      5  C   UNL     1     -18.379  41.594  -9.026  0.00  0.00    +0.000 A 
ATOM      6  C   UNL     1     -20.806  40.926  -7.972  0.00  0.00    +0.000 A 
ATOM      7  C   UNL     1     -19.976  41.873  -7.396  0.00  0.00    +0.000 A 
ATOM      8  H   UNL     1     -21.432  42.591  -6.069  0.00  0.00    +0.000 HD
ATOM      9  H   UNL     1     -19.826  43.200  -5.798  0.00  0.00    +0.000 HD
ENDROOT
BRANCH   3  11
ATOM     10  O   UNL     1     -19.144  38.913 -11.274  0.00  0.00    +0.000 OA
ATOM     11  C   UNL     1     -18.638  39.979 -10.924  0.00  0.00    +0.000 C 
BRANCH  11  12
ATOM     12  C   UNL     1     -17.513  40.626 -11.727  0.00  0.00    +0.000 C 
ATOM     13  C   UNL     1     -18.015  41.015 -13.117  0.00  0.00    +0.000 C 
ATOM     14  C   UNL     1     -16.336  39.659 -11.837  0.00  0.00    +0.000 C 
ENDBRANCH  11  12
ENDBRANCH   3  11
TORSDOF 2
ENDMDL
MODEL 2
REMARK VINA RESULT:    -5.315      2.719      5.017
REMARK INTER + INTRA:          -6.114
REMARK INTER:                  -5.933
REMARK INTRA:                  -0.180
REMARK UNBOUND:                -0.178
REMARK  Name = 83388488
REMARK  4 active torsions:
REMARK  status: ('A' for Active; 'I' for Inactive)
REMARK    1  A    between atoms: C_4  and  C_5
REMARK    2  A    between atoms: C_4  and  C_6
REMARK    3  A    between atoms: C_4  and  C_7
REMARK    4  A    between atoms: C_5  and  C_8
REMARK                            x       y       z     vdW  Elec       q    Type
REMARK                         _______ _______ _______ _____ _____    ______ ____
ROOT
ATOM      1  N   UNL     1     -19.237  41.079 -11.679  0.00  0.00    +0.000 NA
ATOM      2  N   UNL     1     -17.690  42.273 -13.042  0.00  0.00    +0.000 N 
ATOM      3  C   UNL     1     -19.207  41.403  -9.284  0.00  0.00    +0.000 A 
ATOM      4  C   UNL     1     -18.160  42.308  -9.411  0.00  0.00    +0.000 A 
ATOM      5  C   UNL     1     -19.707  40.821 -10.437  0.00  0.00    +0.000 A 
ATOM      6  C   UNL     1     -17.651  42.600 -10.672  0.00  0.00    +0.000 A 
ATOM      7  C   UNL     1     -18.219  41.965 -11.764  0.00  0.00    +0.000 A 
ATOM      8  H   UNL     1     -17.271  43.183 -13.183  0.00  0.00    +0.000 HD
ATOM      9  H   UNL     1     -18.113  41.811 -13.838  0.00  0.00    +0.000 HD
ENDROOT
BRANCH   3  11
ATOM     10  O   UNL     1     -19.238  40.185  -7.277  0.00  0.00    +0.000 OA
ATOM     11  C   UNL     1     -19.776  41.067  -7.944  0.00  0.00    +0.000 C 
BRANCH  11  12
ATOM     12  C   UNL     1     -21.012  41.805  -7.436  0.00  0.00    +0.000 C 
ATOM     13  C   UNL     1     -20.883  42.076  -5.937  0.00  0.00    +0.000 C 
ATOM     14  C   UNL     1     -22.261  40.976  -7.722  0.00  0.00    +0.000 C 
ENDBRANCH  11  12
ENDBRANCH   3  11
TORSDOF 2
ENDMDL
MODEL 3
REMARK VINA RESULT:    -5.076      2.489      2.953
REMARK INTER + INTRA:          -5.847
REMARK INTER:                  -5.627
REMARK INTRA:                  -0.220
REMARK UNBOUND:                -0.178
REMARK  Name = 83388488
REMARK  4 active torsions:
REMARK  status: ('A' for Active; 'I' for Inactive)
REMARK    1  A    between atoms: C_4  and  C_5
REMARK    2  A    between atoms: C_4  and  C_6
REMARK    3  A    between atoms: C_4  and  C_7
REMARK    4  A    between atoms: C_5  and  C_8
REMARK                            x       y       z     vdW  Elec       q    Type
REMARK                         _______ _______ _______ _____ _____    ______ ____
ROOT
ATOM      1  N   UNL     1     -19.596  39.509 -10.445  0.00  0.00    +0.000 NA
ATOM      2  N   UNL     1     -21.195  39.735  -8.694  0.00  0.00    +0.000 N 
ATOM      3  C   UNL     1     -17.658  40.953 -10.478  0.00  0.00    +0.000 A 
ATOM      4  C   UNL     1     -18.094  41.578  -9.316  0.00  0.00    +0.000 A 
ATOM      5  C   UNL     1     -18.437  39.933 -10.999  0.00  0.00    +0.000 A 
ATOM      6  C   UNL     1     -19.281  41.170  -8.717  0.00  0.00    +0.000 A 
ATOM      7  C   UNL     1     -19.989  40.140  -9.315  0.00  0.00    +0.000 A 
ATOM      8  H   UNL     1     -21.288  39.860  -7.694  0.00  0.00    +0.000 HD
ATOM      9  H   UNL     1     -21.707  38.977  -9.132  0.00  0.00    +0.000 HD
ENDROOT
BRANCH   3  11
ATOM     10  O   UNL     1     -15.480  40.546 -11.253  0.00  0.00    +0.000 OA
ATOM     11  C   UNL     1     -16.389  41.368 -11.146  0.00  0.00    +0.000 C 
BRANCH  11  12
ATOM     12  C   UNL     1     -16.233  42.796 -11.666  0.00  0.00    +0.000 C 
ATOM     13  C   UNL     1     -16.774  42.898 -13.092  0.00  0.00    +0.000 C 
ATOM     14  C   UNL     1     -14.763  43.202 -11.622  0.00  0.00    +0.000 C 
ENDBRANCH  11  12
ENDBRANCH   3  11
TORSDOF 2
ENDMDL
MODEL 4
REMARK VINA RESULT:    -5.070      2.427      3.422
REMARK INTER + INTRA:          -5.841
REMARK INTER:                  -5.648
REMARK INTRA:                  -0.193
REMARK UNBOUND:                -0.178
REMARK  Name = 83388488
REMARK  4 active torsions:
REMARK  status: ('A' for Active; 'I' for Inactive)
REMARK    1  A    between atoms: C_4  and  C_5
REMARK    2  A    between atoms: C_4  and  C_6
REMARK    3  A    between atoms: C_4  and  C_7
REMARK    4  A    between atoms: C_5  and  C_8
REMARK                            x       y       z     vdW  Elec       q    Type
REMARK                         _______ _______ _______ _____ _____    ______ ____
ROOT
ATOM      1  N   UNL     1     -19.546  40.038 -10.184  0.00  0.00    +0.000 NA
ATOM      2  N   UNL     1     -19.270  40.116  -7.819  0.00  0.00    +0.000 N 
ATOM      3  C   UNL     1     -18.482  41.714 -11.561  0.00  0.00    +0.000 A 
ATOM      4  C   UNL     1     -17.948  42.317 -10.428  0.00  0.00    +0.000 A 
ATOM      5  C   UNL     1     -19.267  40.587 -11.387  0.00  0.00    +0.000 A 
ATOM      6  C   UNL     1     -18.213  41.781  -9.172  0.00  0.00    +0.000 A 
ATOM      7  C   UNL     1     -19.010  40.651  -9.104  0.00  0.00    +0.000 A 
ATOM      8  H   UNL     1     -18.585  40.261  -7.088  0.00  0.00    +0.000 HD
ATOM      9  H   UNL     1     -19.849  39.285  -7.775  0.00  0.00    +0.000 HD
ENDROOT
BRANCH   3  11
ATOM     10  O   UNL     1     -17.236  41.860 -13.545  0.00  0.00    +0.000 OA
ATOM     11  C   UNL     1     -18.217  42.266 -12.923  0.00  0.00    +0.000 C 
BRANCH  11  12
ATOM     12  C   UNL     1     -19.148  43.324 -13.511  0.00  0.00    +0.000 C 
ATOM     13  C   UNL     1     -19.511  42.963 -14.951  0.00  0.00    +0.000 C 
ATOM     14  C   UNL     1     -18.472  44.691 -13.458  0.00  0.00    +0.000 C 
ENDBRANCH  11  12
ENDBRANCH   3  11
TORSDOF 2
ENDMDL
MODEL 5
REMARK VINA RESULT:    -4.855      4.168      5.232
REMARK INTER + INTRA:          -5.600
REMARK INTER:                  -5.371
REMARK INTRA:                  -0.230
REMARK UNBOUND:                -0.178
REMARK  Name = 83388488
REMARK  4 active torsions:
REMARK  status: ('A' for Active; 'I' for Inactive)
REMARK    1  A    between atoms: C_4  and  C_5
REMARK    2  A    between atoms: C_4  and  C_6
REMARK    3  A    between atoms: C_4  and  C_7
REMARK    4  A    between atoms: C_5  and  C_8
REMARK                            x       y       z     vdW  Elec       q    Type
REMARK                         _______ _______ _______ _____ _____    ______ ____
ROOT
ATOM      1  N   UNL     1     -18.861  41.212 -13.559  0.00  0.00    +0.000 NA
ATOM      2  N   UNL     1     -19.928  39.436 -12.383  0.00  0.00    +0.000 N 
ATOM      3  C   UNL     1     -17.606  42.869 -12.326  0.00  0.00    +0.000 A 
ATOM      4  C   UNL     1     -17.909  42.223 -11.134  0.00  0.00    +0.000 A 
ATOM      5  C   UNL     1     -18.101  42.329 -13.501  0.00  0.00    +0.000 A 
ATOM      6  C   UNL     1     -18.688  41.070 -11.153  0.00  0.00    +0.000 A 
ATOM      7  C   UNL     1     -19.136  40.610 -12.380  0.00  0.00    +0.000 A 
ATOM      8  H   UNL     1     -19.793  38.762 -11.640  0.00  0.00    +0.000 HD
ATOM      9  H   UNL     1     -20.248  39.099 -13.284  0.00  0.00    +0.000 HD
ENDROOT
BRANCH   3  11
ATOM     10  O   UNL     1     -15.666  44.071 -12.879  0.00  0.00    +0.000 OA
ATOM     11  C   UNL     1     -16.772  44.108 -12.340  0.00  0.00    +0.000 C 
BRANCH  11  12
ATOM     12  C   UNL     1     -17.291  45.383 -11.680  0.00  0.00    +0.000 C 
ATOM     13  C   UNL     1     -18.582  45.838 -12.360  0.00  0.00    +0.000 C 
ATOM     14  C   UNL     1     -16.230  46.476 -11.764  0.00  0.00    +0.000 C 
ENDBRANCH  11  12
ENDBRANCH   3  11
TORSDOF 2
ENDMDL
