MODEL 1
REMARK VINA RESULT:    -6.281      0.000      0.000
REMARK INTER + INTRA:          -6.804
REMARK INTER:                  -6.649
REMARK INTRA:                  -0.156
REMARK UNBOUND:                -0.156
REMARK  Name = 835746
REMARK  2 active torsions:
REMARK  status: ('A' for Active; 'I' for Inactive)
REMARK    1  A    between atoms: C_6  and  C_12
REMARK    2  A    between atoms: C_8  and  C_10
REMARK                            x       y       z     vdW  Elec       q    Type
REMARK                         _______ _______ _______ _____ _____    ______ ____
ROOT
ATOM      1  O   UNL     1     -18.572  44.495 -14.472  0.00  0.00    +0.000 OA
ATOM      2  N   UNL     1     -19.647  42.412 -14.347  0.00  0.00    +0.000 N 
ATOM      3  N   UNL     1     -19.749  40.749 -12.669  0.00  0.00    +0.000 NA
ATOM      4  C   UNL     1     -19.283  41.948 -13.059  0.00  0.00    +0.000 A 
ATOM      5  C   UNL     1     -18.565  41.089 -10.589  0.00  0.00    +0.000 A 
ATOM      6  C   UNL     1     -18.473  42.770 -12.306  0.00  0.00    +0.000 A 
ATOM      7  C   UNL     1     -18.110  42.323 -11.040  0.00  0.00    +0.000 A 
ATOM      8  C   UNL     1     -19.292  43.616 -14.974  0.00  0.00    +0.000 C 
ATOM      9  C   UNL     1     -19.375  40.347 -11.433  0.00  0.00    +0.000 A 
ATOM     10  C   UNL     1     -18.193  40.580  -9.241  0.00  0.00    +0.000 C 
ATOM     11  H   UNL     1     -20.214  41.740 -14.855  0.00  0.00    +0.000 HD
ENDROOT
BRANCH   8  13
ATOM     12  N   UNL     1     -19.779  45.028 -18.398  0.00  0.00    +0.000 NA
ATOM     13  C   UNL     1     -19.845  43.827 -16.301  0.00  0.00    +0.000 A 
ATOM     14  C   UNL     1     -20.929  43.082 -16.752  0.00  0.00    +0.000 A 
ATOM     15  C   UNL     1     -19.312  44.779 -17.154  0.00  0.00    +0.000 A 
ATOM     16  C   UNL     1     -21.438  43.309 -18.026  0.00  0.00    +0.000 A 
ATOM     17  C   UNL     1     -20.833  44.283 -18.803  0.00  0.00    +0.000 A 
ENDBRANCH   8  13
TORSDOF 1
ENDMDL
MODEL 2
REMARK VINA RESULT:    -6.274      1.244      6.599
REMARK INTER + INTRA:          -6.796
REMARK INTER:                  -6.647
REMARK INTRA:                  -0.149
REMARK UNBOUND:                -0.156
REMARK  Name = 835746
REMARK  2 active torsions:
REMARK  status: ('A' for Active; 'I' for Inactive)
REMARK    1  A    between atoms: C_6  and  C_12
REMARK    2  A    between atoms: C_8  and  C_10
REMARK                            x       y       z     vdW  Elec       q    Type
REMARK                         _______ _______ _______ _____ _____    ______ ____
ROOT
ATOM      1  O   UNL     1     -18.749  44.094 -13.219  0.00  0.00    +0.000 OA
ATOM      2  N   UNL     1     -19.600  42.396 -14.599  0.00  0.00    +0.000 N 
ATOM      3  N   UNL     1     -20.423  42.382 -16.816  0.00  0.00    +0.000 NA
ATOM      4  C   UNL     1     -19.903  43.088 -15.797  0.00  0.00    +0.000 A 
ATOM      5  C   UNL     1     -20.475  44.444 -18.075  0.00  0.00    +0.000 A 
ATOM      6  C   UNL     1     -19.641  44.441 -15.819  0.00  0.00    +0.000 A 
ATOM      7  C   UNL     1     -19.936  45.129 -16.991  0.00  0.00    +0.000 A 
ATOM      8  C   UNL     1     -19.058  42.905 -13.409  0.00  0.00    +0.000 C 
ATOM      9  C   UNL     1     -20.697  43.084 -17.938  0.00  0.00    +0.000 A 
ATOM     10  C   UNL     1     -20.805  45.152 -19.342  0.00  0.00    +0.000 C 
ATOM     11  H   UNL     1     -19.851  41.413 -14.644  0.00  0.00    +0.000 HD
ENDROOT
BRANCH   8  13
ATOM     12  N   UNL     1     -19.203  39.719 -11.465  0.00  0.00    +0.000 NA
ATOM     13  C   UNL     1     -18.831  41.938 -12.350  0.00  0.00    +0.000 A 
ATOM     14  C   UNL     1     -18.065  42.262 -11.236  0.00  0.00    +0.000 A 
ATOM     15  C   UNL     1     -19.373  40.665 -12.416  0.00  0.00    +0.000 A 
ATOM     16  C   UNL     1     -17.867  41.315 -10.236  0.00  0.00    +0.000 A 
ATOM     17  C   UNL     1     -18.452  40.070 -10.397  0.00  0.00    +0.000 A 
ENDBRANCH   8  13
TORSDOF 1
ENDMDL
MODEL 3
REMARK VINA RESULT:    -5.927      1.974      6.828
REMARK INTER + INTRA:          -6.429
REMARK INTER:                  -6.281
REMARK INTRA:                  -0.148
REMARK UNBOUND:                -0.156
REMARK  Name = 835746
REMARK  2 active torsions:
REMARK  status: ('A' for Active; 'I' for Inactive)
REMARK    1  A    between atoms: C_6  and  C_12
REMARK    2  A    between atoms: C_8  and  C_10
REMARK                            x       y       z     vdW  Elec       q    Type
REMARK                         _______ _______ _______ _____ _____    ______ ____
ROOT
ATOM      1  O   UNL     1     -19.857  41.049 -13.220  0.00  0.00    +0.000 OA
ATOM      2  N   UNL     1     -18.883  43.152 -12.849  0.00  0.00    +0.000 N 
ATOM      3  N   UNL     1     -18.526  45.031 -14.238  0.00  0.00    +0.000 NA
ATOM      4  C   UNL     1     -19.002  43.781 -14.112  0.00  0.00    +0.000 A 
ATOM      5  C   UNL     1     -19.245  44.955 -16.545  0.00  0.00    +0.000 A 
ATOM      6  C   UNL     1     -19.601  43.052 -15.117  0.00  0.00    +0.000 A 
ATOM      7  C   UNL     1     -19.722  43.662 -16.362  0.00  0.00    +0.000 A 
ATOM      8  C   UNL     1     -19.297  41.866 -12.470  0.00  0.00    +0.000 C 
ATOM      9  C   UNL     1     -18.661  45.591 -15.462  0.00  0.00    +0.000 A 
ATOM     10  C   UNL     1     -19.357  45.634 -17.864  0.00  0.00    +0.000 C 
ATOM     11  H   UNL     1     -18.402  43.734 -12.169  0.00  0.00    +0.000 HD
ENDROOT
BRANCH   8  13
ATOM     12  N   UNL     1     -17.915  41.948  -9.001  0.00  0.00    +0.000 NA
ATOM     13  C   UNL     1     -19.061  41.506 -11.083  0.00  0.00    +0.000 A 
ATOM     14  C   UNL     1     -19.710  40.421 -10.504  0.00  0.00    +0.000 A 
ATOM     15  C   UNL     1     -18.182  42.230 -10.295  0.00  0.00    +0.000 A 
ATOM     16  C   UNL     1     -19.463  40.098  -9.174  0.00  0.00    +0.000 A 
ATOM     17  C   UNL     1     -18.565  40.886  -8.472  0.00  0.00    +0.000 A 
ENDBRANCH   8  13
TORSDOF 1
ENDMDL
MODEL 4
REMARK VINA RESULT:    -5.876      1.440      1.748
REMARK INTER + INTRA:          -6.375
REMARK INTER:                  -6.234
REMARK INTRA:                  -0.141
REMARK UNBOUND:                -0.156
REMARK  Name = 835746
REMARK  2 active torsions:
REMARK  status: ('A' for Active; 'I' for Inactive)
REMARK    1  A    between atoms: C_6  and  C_12
REMARK    2  A    between atoms: C_8  and  C_10
REMARK                            x       y       z     vdW  Elec       q    Type
REMARK                         _______ _______ _______ _____ _____    ______ ____
ROOT
ATOM      1  O   UNL     1     -21.106  42.800 -15.251  0.00  0.00    +0.000 OA
ATOM      2  N   UNL     1     -18.801  43.142 -14.974  0.00  0.00    +0.000 N 
ATOM      3  N   UNL     1     -17.260  42.472 -13.310  0.00  0.00    +0.000 NA
ATOM      4  C   UNL     1     -18.527  42.465 -13.761  0.00  0.00    +0.000 A 
ATOM      5  C   UNL     1     -18.037  41.162 -11.433  0.00  0.00    +0.000 A 
ATOM      6  C   UNL     1     -19.590  41.851 -13.135  0.00  0.00    +0.000 A 
ATOM      7  C   UNL     1     -19.331  41.185 -11.942  0.00  0.00    +0.000 A 
ATOM      8  C   UNL     1     -20.027  43.276 -15.642  0.00  0.00    +0.000 C 
ATOM      9  C   UNL     1     -17.047  41.814 -12.148  0.00  0.00    +0.000 A 
ATOM     10  C   UNL     1     -17.727  40.460 -10.158  0.00  0.00    +0.000 C 
ATOM     11  H   UNL     1     -17.979  43.598 -15.359  0.00  0.00    +0.000 HD
ENDROOT
BRANCH   8  13
ATOM     12  N   UNL     1     -19.043  45.806 -18.209  0.00  0.00    +0.000 NA
ATOM     13  C   UNL     1     -19.991  44.012 -16.894  0.00  0.00    +0.000 A 
ATOM     14  C   UNL     1     -20.827  43.669 -17.951  0.00  0.00    +0.000 A 
ATOM     15  C   UNL     1     -19.125  45.078 -17.072  0.00  0.00    +0.000 A 
ATOM     16  C   UNL     1     -20.772  44.394 -19.137  0.00  0.00    +0.000 A 
ATOM     17  C   UNL     1     -19.871  45.443 -19.214  0.00  0.00    +0.000 A 
ENDBRANCH   8  13
TORSDOF 1
ENDMDL
MODEL 5
REMARK VINA RESULT:    -5.646      4.665      6.848
REMARK INTER + INTRA:          -6.132
REMARK INTER:                  -5.999
REMARK INTRA:                  -0.133
REMARK UNBOUND:                -0.156
REMARK  Name = 835746
REMARK  2 active torsions:
REMARK  status: ('A' for Active; 'I' for Inactive)
REMARK    1  A    between atoms: C_6  and  C_12
REMARK    2  A    between atoms: C_8  and  C_10
REMARK                            x       y       z     vdW  Elec       q    Type
REMARK                         _______ _______ _______ _____ _____    ______ ____
ROOT
ATOM      1  O   UNL     1     -16.370  43.334 -11.908  0.00  0.00    +0.000 OA
ATOM      2  N   UNL     1     -14.899  41.627 -11.251  0.00  0.00    +0.000 N 
ATOM      3  N   UNL     1     -12.616  41.614 -10.639  0.00  0.00    +0.000 NA
ATOM      4  C   UNL     1     -13.686  42.324 -11.035  0.00  0.00    +0.000 A 
ATOM      5  C   UNL     1     -11.377  43.690 -10.632  0.00  0.00    +0.000 A 
ATOM      6  C   UNL     1     -13.702  43.685 -11.251  0.00  0.00    +0.000 A 
ATOM      7  C   UNL     1     -12.514  44.378 -11.042  0.00  0.00    +0.000 A 
ATOM      8  C   UNL     1     -16.140  42.138 -11.661  0.00  0.00    +0.000 C 
ATOM      9  C   UNL     1     -11.479  42.321 -10.446  0.00  0.00    +0.000 A 
ATOM     10  C   UNL     1     -10.091  44.401 -10.403  0.00  0.00    +0.000 C 
ATOM     11  H   UNL     1     -14.804  40.626 -11.106  0.00  0.00    +0.000 HD
ENDROOT
BRANCH   8  13
ATOM     12  N   UNL     1     -18.704  39.887 -13.181  0.00  0.00    +0.000 NA
ATOM     13  C   UNL     1     -17.220  41.173 -11.772  0.00  0.00    +0.000 A 
ATOM     14  C   UNL     1     -17.803  40.618 -10.638  0.00  0.00    +0.000 A 
ATOM     15  C   UNL     1     -17.702  40.778 -13.008  0.00  0.00    +0.000 A 
ATOM     16  C   UNL     1     -18.837  39.698 -10.774  0.00  0.00    +0.000 A 
ATOM     17  C   UNL     1     -19.247  39.368 -12.056  0.00  0.00    +0.000 A 
ENDBRANCH   8  13
TORSDOF 1
ENDMDL
