MODEL 1
REMARK VINA RESULT:    -6.113      0.000      0.000
REMARK INTER + INTRA:          -6.576
REMARK INTER:                  -6.470
REMARK INTRA:                  -0.106
REMARK UNBOUND:                -0.106
REMARK  Name = 83652456
REMARK  2 active torsions:
REMARK  status: ('A' for Active; 'I' for Inactive)
REMARK    1  A    between atoms: C_11  and  C_13
REMARK    2  A    between atoms: C_12  and  C_14
REMARK                            x       y       z     vdW  Elec       q    Type
REMARK                         _______ _______ _______ _____ _____    ______ ____
ROOT
ATOM      1  O   UNL     1     -15.409  42.186 -11.285  0.00  0.00    +0.000 OA
ATOM      2  O   UNL     1     -18.857  47.884 -14.386  0.00  0.00    +0.000 OA
ATOM      3  N   UNL     1     -16.880  43.786 -12.143  0.00  0.00    +0.000 N 
ATOM      4  N   UNL     1     -17.473  46.118 -13.778  0.00  0.00    +0.000 N 
ATOM      5  C   UNL     1     -18.235  44.345 -12.232  0.00  0.00    +0.000 C 
ATOM      6  C   UNL     1     -15.814  44.541 -12.803  0.00  0.00    +0.000 C 
ATOM      7  C   UNL     1     -18.222  45.836 -12.553  0.00  0.00    +0.000 C 
ATOM      8  C   UNL     1     -16.314  45.259 -14.052  0.00  0.00    +0.000 C 
ATOM      9  C   UNL     1     -16.546  42.635 -11.421  0.00  0.00    +0.000 C 
ATOM     10  C   UNL     1     -17.885  47.158 -14.611  0.00  0.00    +0.000 C 
ATOM     11  C   UNL     1     -17.058  47.384 -15.853  0.00  0.00    +0.000 C 
ENDROOT
BRANCH   9  14
ATOM     12  N   UNL     1     -19.316  40.158 -10.887  0.00  0.00    +0.000 NA
ATOM     13  N   UNL     1     -20.701  39.736  -8.995  0.00  0.00    +0.000 N 
ATOM     14  C   UNL     1     -17.632  41.889 -10.764  0.00  0.00    +0.000 A 
ATOM     15  C   UNL     1     -18.008  42.173  -9.456  0.00  0.00    +0.000 A 
ATOM     16  C   UNL     1     -18.311  40.881 -11.430  0.00  0.00    +0.000 A 
ATOM     17  C   UNL     1     -19.038  41.451  -8.863  0.00  0.00    +0.000 A 
ATOM     18  C   UNL     1     -19.654  40.463  -9.614  0.00  0.00    +0.000 A 
ATOM     19  H   UNL     1     -20.686  39.632  -7.988  0.00  0.00    +0.000 HD
ATOM     20  H   UNL     1     -21.145  39.011  -9.545  0.00  0.00    +0.000 HD
ENDBRANCH   9  14
TORSDOF 1
ENDMDL
MODEL 2
REMARK VINA RESULT:    -5.730      3.711      6.940
REMARK INTER + INTRA:          -6.171
REMARK INTER:                  -6.681
REMARK INTRA:                   0.511
REMARK UNBOUND:                -0.106
REMARK  Name = 83652456
REMARK  2 active torsions:
REMARK  status: ('A' for Active; 'I' for Inactive)
REMARK    1  A    between atoms: C_11  and  C_13
REMARK    2  A    between atoms: C_12  and  C_14
REMARK                            x       y       z     vdW  Elec       q    Type
REMARK                         _______ _______ _______ _____ _____    ______ ____
ROOT
ATOM      1  O   UNL     1     -18.486  45.801 -14.521  0.00  0.00    +0.000 OA
ATOM      2  O   UNL     1     -18.006  39.269 -11.193  0.00  0.00    +0.000 OA
ATOM      3  N   UNL     1     -18.604  43.585 -13.792  0.00  0.00    +0.000 N 
ATOM      4  N   UNL     1     -18.176  41.506 -11.802  0.00  0.00    +0.000 N 
ATOM      5  C   UNL     1     -18.971  42.184 -14.043  0.00  0.00    +0.000 C 
ATOM      6  C   UNL     1     -17.884  43.861 -12.549  0.00  0.00    +0.000 C 
ATOM      7  C   UNL     1     -18.117  41.213 -13.234  0.00  0.00    +0.000 C 
ATOM      8  C   UNL     1     -18.303  42.920 -11.425  0.00  0.00    +0.000 C 
ATOM      9  C   UNL     1     -18.838  44.634 -14.686  0.00  0.00    +0.000 C 
ATOM     10  C   UNL     1     -18.114  40.459 -10.883  0.00  0.00    +0.000 C 
ATOM     11  C   UNL     1     -18.180  40.846  -9.426  0.00  0.00    +0.000 C 
ENDROOT
BRANCH   9  14
ATOM     12  N   UNL     1     -19.788  44.648 -18.318  0.00  0.00    +0.000 NA
ATOM     13  N   UNL     1     -21.552  43.549 -19.484  0.00  0.00    +0.000 N 
ATOM     14  C   UNL     1     -19.565  44.336 -15.931  0.00  0.00    +0.000 A 
ATOM     15  C   UNL     1     -20.674  43.496 -15.930  0.00  0.00    +0.000 A 
ATOM     16  C   UNL     1     -19.166  44.881 -17.140  0.00  0.00    +0.000 A 
ATOM     17  C   UNL     1     -21.340  43.233 -17.122  0.00  0.00    +0.000 A 
ATOM     18  C   UNL     1     -20.862  43.828 -18.278  0.00  0.00    +0.000 A 
ATOM     19  H   UNL     1     -22.040  42.666 -19.567  0.00  0.00    +0.000 HD
ATOM     20  H   UNL     1     -21.195  43.981 -20.328  0.00  0.00    +0.000 HD
ENDBRANCH   9  14
TORSDOF 1
ENDMDL
MODEL 3
REMARK VINA RESULT:    -5.729      2.971      6.531
REMARK INTER + INTRA:          -6.170
REMARK INTER:                  -6.706
REMARK INTRA:                   0.536
REMARK UNBOUND:                -0.106
REMARK  Name = 83652456
REMARK  2 active torsions:
REMARK  status: ('A' for Active; 'I' for Inactive)
REMARK    1  A    between atoms: C_11  and  C_13
REMARK    2  A    between atoms: C_12  and  C_14
REMARK                            x       y       z     vdW  Elec       q    Type
REMARK                         _______ _______ _______ _____ _____    ______ ____
ROOT
ATOM      1  O   UNL     1     -16.511  43.963 -13.218  0.00  0.00    +0.000 OA
ATOM      2  O   UNL     1     -20.635  39.557  -9.029  0.00  0.00    +0.000 OA
ATOM      3  N   UNL     1     -18.148  42.661 -12.178  0.00  0.00    +0.000 N 
ATOM      4  N   UNL     1     -19.151  41.098  -9.938  0.00  0.00    +0.000 N 
ATOM      5  C   UNL     1     -19.472  42.024 -12.208  0.00  0.00    +0.000 C 
ATOM      6  C   UNL     1     -17.300  42.355 -11.025  0.00  0.00    +0.000 C 
ATOM      7  C   UNL     1     -19.536  40.789 -11.316  0.00  0.00    +0.000 C 
ATOM      8  C   UNL     1     -18.118  42.126  -9.759  0.00  0.00    +0.000 C 
ATOM      9  C   UNL     1     -17.638  43.470 -13.198  0.00  0.00    +0.000 C 
ATOM     10  C   UNL     1     -19.767  40.423  -8.885  0.00  0.00    +0.000 C 
ATOM     11  C   UNL     1     -19.313  40.799  -7.496  0.00  0.00    +0.000 C 
ENDROOT
BRANCH   9  14
ATOM     12  N   UNL     1     -20.097  42.982 -15.991  0.00  0.00    +0.000 NA
ATOM     13  N   UNL     1     -20.983  44.513 -17.589  0.00  0.00    +0.000 N 
ATOM     14  C   UNL     1     -18.507  43.767 -14.348  0.00  0.00    +0.000 A 
ATOM     15  C   UNL     1     -18.580  45.050 -14.879  0.00  0.00    +0.000 A 
ATOM     16  C   UNL     1     -19.279  42.778 -14.935  0.00  0.00    +0.000 A 
ATOM     17  C   UNL     1     -19.410  45.300 -15.966  0.00  0.00    +0.000 A 
ATOM     18  C   UNL     1     -20.142  44.242 -16.481  0.00  0.00    +0.000 A 
ATOM     19  H   UNL     1     -21.357  45.448 -17.692  0.00  0.00    +0.000 HD
ATOM     20  H   UNL     1     -21.521  43.738 -17.958  0.00  0.00    +0.000 HD
ENDBRANCH   9  14
TORSDOF 1
ENDMDL
MODEL 4
REMARK VINA RESULT:    -5.663      3.739      4.581
REMARK INTER + INTRA:          -6.100
REMARK INTER:                  -6.181
REMARK INTRA:                   0.081
REMARK UNBOUND:                -0.106
REMARK  Name = 83652456
REMARK  2 active torsions:
REMARK  status: ('A' for Active; 'I' for Inactive)
REMARK    1  A    between atoms: C_11  and  C_13
REMARK    2  A    between atoms: C_12  and  C_14
REMARK                            x       y       z     vdW  Elec       q    Type
REMARK                         _______ _______ _______ _____ _____    ______ ____
ROOT
ATOM      1  O   UNL     1     -18.359  45.282 -13.439  0.00  0.00    +0.000 OA
ATOM      2  O   UNL     1     -21.178  43.991 -20.099  0.00  0.00    +0.000 OA
ATOM      3  N   UNL     1     -19.194  44.439 -15.452  0.00  0.00    +0.000 N 
ATOM      4  N   UNL     1     -20.064  44.760 -18.209  0.00  0.00    +0.000 N 
ATOM      5  C   UNL     1     -19.674  43.303 -16.250  0.00  0.00    +0.000 C 
ATOM      6  C   UNL     1     -19.306  45.764 -16.063  0.00  0.00    +0.000 C 
ATOM      7  C   UNL     1     -20.649  43.738 -17.340  0.00  0.00    +0.000 C 
ATOM      8  C   UNL     1     -19.139  45.710 -17.578  0.00  0.00    +0.000 C 
ATOM      9  C   UNL     1     -18.709  44.336 -14.144  0.00  0.00    +0.000 C 
ATOM     10  C   UNL     1     -20.400  44.785 -19.563  0.00  0.00    +0.000 C 
ATOM     11  C   UNL     1     -19.756  45.871 -20.389  0.00  0.00    +0.000 C 
ENDROOT
BRANCH   9  14
ATOM     12  N   UNL     1     -19.708  41.030 -12.672  0.00  0.00    +0.000 NA
ATOM     13  N   UNL     1     -18.398  39.211 -11.866  0.00  0.00    +0.000 N 
ATOM     14  C   UNL     1     -18.603  42.995 -13.548  0.00  0.00    +0.000 A 
ATOM     15  C   UNL     1     -17.363  42.418 -13.295  0.00  0.00    +0.000 A 
ATOM     16  C   UNL     1     -19.735  42.266 -13.221  0.00  0.00    +0.000 A 
ATOM     17  C   UNL     1     -17.294  41.149 -12.731  0.00  0.00    +0.000 A 
ATOM     18  C   UNL     1     -18.485  40.503 -12.441  0.00  0.00    +0.000 A 
ATOM     19  H   UNL     1     -17.585  38.645 -12.074  0.00  0.00    +0.000 HD
ATOM     20  H   UNL     1     -19.271  38.739 -11.661  0.00  0.00    +0.000 HD
ENDBRANCH   9  14
TORSDOF 1
ENDMDL
MODEL 5
REMARK VINA RESULT:    -5.508     14.979     16.368
REMARK INTER + INTRA:          -5.936
REMARK INTER:                  -5.831
REMARK INTRA:                  -0.105
REMARK UNBOUND:                -0.106
REMARK  Name = 83652456
REMARK  2 active torsions:
REMARK  status: ('A' for Active; 'I' for Inactive)
REMARK    1  A    between atoms: C_11  and  C_13
REMARK    2  A    between atoms: C_12  and  C_14
REMARK                            x       y       z     vdW  Elec       q    Type
REMARK                         _______ _______ _______ _____ _____    ______ ____
ROOT
ATOM      1  O   UNL     1     -30.421  44.601 -15.796  0.00  0.00    +0.000 OA
ATOM      2  O   UNL     1     -36.236  42.570 -11.793  0.00  0.00    +0.000 OA
ATOM      3  N   UNL     1     -32.373  43.703 -14.880  0.00  0.00    +0.000 N 
ATOM      4  N   UNL     1     -34.481  43.643 -12.876  0.00  0.00    +0.000 N 
ATOM      5  C   UNL     1     -33.456  42.711 -14.923  0.00  0.00    +0.000 C 
ATOM      6  C   UNL     1     -32.326  44.571 -13.702  0.00  0.00    +0.000 C 
ATOM      7  C   UNL     1     -34.025  42.420 -13.539  0.00  0.00    +0.000 C 
ATOM      8  C   UNL     1     -33.719  44.866 -13.155  0.00  0.00    +0.000 C 
ATOM      9  C   UNL     1     -31.368  43.817 -15.845  0.00  0.00    +0.000 C 
ATOM     10  C   UNL     1     -35.592  43.594 -12.033  0.00  0.00    +0.000 C 
ATOM     11  C   UNL     1     -35.996  44.897 -11.388  0.00  0.00    +0.000 C 
ENDROOT
BRANCH   9  14
ATOM     12  N   UNL     1     -32.198  42.568 -19.286  0.00  0.00    +0.000 NA
ATOM     13  N   UNL     1     -31.668  40.521 -20.384  0.00  0.00    +0.000 N 
ATOM     14  C   UNL     1     -31.433  42.936 -17.022  0.00  0.00    +0.000 A 
ATOM     15  C   UNL     1     -30.827  41.685 -17.016  0.00  0.00    +0.000 A 
ATOM     16  C   UNL     1     -32.100  43.327 -18.172  0.00  0.00    +0.000 A 
ATOM     17  C   UNL     1     -30.906  40.875 -18.144  0.00  0.00    +0.000 A 
ATOM     18  C   UNL     1     -31.597  41.358 -19.243  0.00  0.00    +0.000 A 
ATOM     19  H   UNL     1     -30.919  39.858 -20.543  0.00  0.00    +0.000 HD
ATOM     20  H   UNL     1     -32.169  40.880 -21.187  0.00  0.00    +0.000 HD
ENDBRANCH   9  14
TORSDOF 1
ENDMDL
