MODEL 1
REMARK VINA RESULT:    -4.887      0.000      0.000
REMARK INTER + INTRA:          -6.083
REMARK INTER:                  -5.744
REMARK INTRA:                  -0.339
REMARK UNBOUND:                -0.339
REMARK  Name = 84584264
REMARK  7 active torsions:
REMARK  status: ('A' for Active; 'I' for Inactive)
REMARK    1  A    between atoms: N_2  and  C_5
REMARK    2  A    between atoms: N_2  and  C_6
REMARK    3  A    between atoms: N_3  and  C_14
REMARK    4  A    between atoms: N_3  and  C_15
REMARK    5  A    between atoms: C_5  and  C_8
REMARK    6  A    between atoms: C_5  and  C_9
REMARK    7  A    between atoms: C_7  and  C_10
REMARK                            x       y       z     vdW  Elec       q    Type
REMARK                         _______ _______ _______ _____ _____    ______ ____
ROOT
ATOM      1  N   UNL     1     -19.578  39.781 -11.343  0.00  0.00    +0.000 NA
ATOM      2  C   UNL     1     -19.144  41.003 -10.962  0.00  0.00    +0.000 A 
ATOM      3  C   UNL     1     -18.147  41.710 -11.614  0.00  0.00    +0.000 A 
ATOM      4  C   UNL     1     -17.558  41.126 -12.730  0.00  0.00    +0.000 A 
ATOM      5  C   UNL     1     -17.980  39.870 -13.154  0.00  0.00    +0.000 A 
ATOM      6  C   UNL     1     -18.983  39.245 -12.433  0.00  0.00    +0.000 A 
ENDROOT
BRANCH   3   9
ATOM      7  O   UNL     1     -17.040  43.071 -10.130  0.00  0.00    +0.000 OA
ATOM      8  N   UNL     1     -18.015  44.147 -11.960  0.00  0.00    +0.000 N 
ATOM      9  C   UNL     1     -17.697  43.025 -11.176  0.00  0.00    +0.000 C 
ATOM     10  C   UNL     1     -17.588  45.492 -11.599  0.00  0.00    +0.000 C 
ATOM     11  C   UNL     1     -18.794  44.041 -13.192  0.00  0.00    +0.000 C 
ENDBRANCH   3   9
BRANCH   2  12
ATOM     12  N   UNL     1     -19.732  41.576  -9.848  0.00  0.00    +0.000 N 
ATOM     13  H   UNL     1     -19.810  42.588  -9.839  0.00  0.00    +0.000 HD
BRANCH  12  14
ATOM     14  C   UNL     1     -19.816  40.921  -8.560  0.00  0.00    +0.000 C 
ATOM     15  C   UNL     1     -21.237  40.416  -8.345  0.00  0.00    +0.000 C 
ATOM     16  C   UNL     1     -19.402  41.898  -7.467  0.00  0.00    +0.000 C 
ENDBRANCH  12  14
ENDBRANCH   2  12
TORSDOF 3
ENDMDL
MODEL 2
REMARK VINA RESULT:    -4.607      3.130      6.050
REMARK INTER + INTRA:          -5.754
REMARK INTER:                  -5.491
REMARK INTRA:                  -0.263
REMARK UNBOUND:                -0.339
REMARK  Name = 84584264
REMARK  7 active torsions:
REMARK  status: ('A' for Active; 'I' for Inactive)
REMARK    1  A    between atoms: N_2  and  C_5
REMARK    2  A    between atoms: N_2  and  C_6
REMARK    3  A    between atoms: N_3  and  C_14
REMARK    4  A    between atoms: N_3  and  C_15
REMARK    5  A    between atoms: C_5  and  C_8
REMARK    6  A    between atoms: C_5  and  C_9
REMARK    7  A    between atoms: C_7  and  C_10
REMARK                            x       y       z     vdW  Elec       q    Type
REMARK                         _______ _______ _______ _____ _____    ______ ____
ROOT
ATOM      1  N   UNL     1     -18.282  45.688 -14.280  0.00  0.00    +0.000 NA
ATOM      2  C   UNL     1     -18.579  44.370 -14.286  0.00  0.00    +0.000 A 
ATOM      3  C   UNL     1     -18.532  43.558 -13.164  0.00  0.00    +0.000 A 
ATOM      4  C   UNL     1     -18.156  44.138 -11.957  0.00  0.00    +0.000 A 
ATOM      5  C   UNL     1     -17.844  45.492 -11.911  0.00  0.00    +0.000 A 
ATOM      6  C   UNL     1     -17.921  46.217 -13.089  0.00  0.00    +0.000 A 
ENDROOT
BRANCH   3   9
ATOM      7  O   UNL     1     -20.015  41.836 -13.507  0.00  0.00    +0.000 OA
ATOM      8  N   UNL     1     -17.845  41.204 -12.912  0.00  0.00    +0.000 N 
ATOM      9  C   UNL     1     -18.855  42.138 -13.203  0.00  0.00    +0.000 C 
ATOM     10  C   UNL     1     -18.084  39.768 -12.945  0.00  0.00    +0.000 C 
ATOM     11  C   UNL     1     -16.486  41.612 -12.557  0.00  0.00    +0.000 C 
ENDBRANCH   3   9
BRANCH   2  12
ATOM     12  N   UNL     1     -18.948  43.799 -15.492  0.00  0.00    +0.000 N 
ATOM     13  H   UNL     1     -18.277  43.175 -15.929  0.00  0.00    +0.000 HD
BRANCH  12  14
ATOM     14  C   UNL     1     -19.962  44.352 -16.363  0.00  0.00    +0.000 C 
ATOM     15  C   UNL     1     -21.115  43.364 -16.483  0.00  0.00    +0.000 C 
ATOM     16  C   UNL     1     -19.351  44.659 -17.723  0.00  0.00    +0.000 C 
ENDBRANCH  12  14
ENDBRANCH   2  12
TORSDOF 3
ENDMDL
MODEL 3
REMARK VINA RESULT:    -4.497      2.945      4.681
REMARK INTER + INTRA:          -5.625
REMARK INTER:                  -5.668
REMARK INTRA:                   0.043
REMARK UNBOUND:                -0.339
REMARK  Name = 84584264
REMARK  7 active torsions:
REMARK  status: ('A' for Active; 'I' for Inactive)
REMARK    1  A    between atoms: N_2  and  C_5
REMARK    2  A    between atoms: N_2  and  C_6
REMARK    3  A    between atoms: N_3  and  C_14
REMARK    4  A    between atoms: N_3  and  C_15
REMARK    5  A    between atoms: C_5  and  C_8
REMARK    6  A    between atoms: C_5  and  C_9
REMARK    7  A    between atoms: C_7  and  C_10
REMARK                            x       y       z     vdW  Elec       q    Type
REMARK                         _______ _______ _______ _____ _____    ______ ____
ROOT
ATOM      1  N   UNL     1     -16.876  43.391 -11.889  0.00  0.00    +0.000 NA
ATOM      2  C   UNL     1     -17.750  42.911 -12.801  0.00  0.00    +0.000 A 
ATOM      3  C   UNL     1     -18.702  43.684 -13.446  0.00  0.00    +0.000 A 
ATOM      4  C   UNL     1     -18.759  45.038 -13.136  0.00  0.00    +0.000 A 
ATOM      5  C   UNL     1     -17.875  45.570 -12.203  0.00  0.00    +0.000 A 
ATOM      6  C   UNL     1     -16.961  44.712 -11.613  0.00  0.00    +0.000 A 
ENDROOT
BRANCH   3   9
ATOM      7  O   UNL     1     -20.300  42.156 -14.071  0.00  0.00    +0.000 OA
ATOM      8  N   UNL     1     -19.736  43.750 -15.683  0.00  0.00    +0.000 N 
ATOM      9  C   UNL     1     -19.634  43.137 -14.422  0.00  0.00    +0.000 C 
ATOM     10  C   UNL     1     -20.655  43.273 -16.706  0.00  0.00    +0.000 C 
ATOM     11  C   UNL     1     -18.926  44.911 -16.052  0.00  0.00    +0.000 C 
ENDBRANCH   3   9
BRANCH   2  12
ATOM     12  N   UNL     1     -17.690  41.561 -13.102  0.00  0.00    +0.000 N 
ATOM     13  H   UNL     1     -17.923  41.292 -14.052  0.00  0.00    +0.000 HD
BRANCH  12  14
ATOM     14  C   UNL     1     -17.770  40.514 -12.107  0.00  0.00    +0.000 C 
ATOM     15  C   UNL     1     -16.460  39.738 -12.086  0.00  0.00    +0.000 C 
ATOM     16  C   UNL     1     -18.949  39.603 -12.423  0.00  0.00    +0.000 C 
ENDBRANCH  12  14
ENDBRANCH   2  12
TORSDOF 3
ENDMDL
MODEL 4
REMARK VINA RESULT:    -4.390      2.127      5.134
REMARK INTER + INTRA:          -5.499
REMARK INTER:                  -5.004
REMARK INTRA:                  -0.494
REMARK UNBOUND:                -0.339
REMARK  Name = 84584264
REMARK  7 active torsions:
REMARK  status: ('A' for Active; 'I' for Inactive)
REMARK    1  A    between atoms: N_2  and  C_5
REMARK    2  A    between atoms: N_2  and  C_6
REMARK    3  A    between atoms: N_3  and  C_14
REMARK    4  A    between atoms: N_3  and  C_15
REMARK    5  A    between atoms: C_5  and  C_8
REMARK    6  A    between atoms: C_5  and  C_9
REMARK    7  A    between atoms: C_7  and  C_10
REMARK                            x       y       z     vdW  Elec       q    Type
REMARK                         _______ _______ _______ _____ _____    ______ ____
ROOT
ATOM      1  N   UNL     1     -15.961  44.703 -12.357  0.00  0.00    +0.000 NA
ATOM      2  C   UNL     1     -16.845  43.681 -12.309  0.00  0.00    +0.000 A 
ATOM      3  C   UNL     1     -16.547  42.420 -11.818  0.00  0.00    +0.000 A 
ATOM      4  C   UNL     1     -15.259  42.193 -11.347  0.00  0.00    +0.000 A 
ATOM      5  C   UNL     1     -14.322  43.220 -11.379  0.00  0.00    +0.000 A 
ATOM      6  C   UNL     1     -14.719  44.445 -11.889  0.00  0.00    +0.000 A 
ENDROOT
BRANCH   3   9
ATOM      7  O   UNL     1     -17.608  40.630 -12.794  0.00  0.00    +0.000 OA
ATOM      8  N   UNL     1     -18.285  41.148 -10.618  0.00  0.00    +0.000 N 
ATOM      9  C   UNL     1     -17.521  41.337 -11.783  0.00  0.00    +0.000 C 
ATOM     10  C   UNL     1     -19.266  40.079 -10.499  0.00  0.00    +0.000 C 
ATOM     11  C   UNL     1     -18.144  42.012  -9.447  0.00  0.00    +0.000 C 
ENDBRANCH   3   9
BRANCH   2  12
ATOM     12  N   UNL     1     -18.124  43.915 -12.783  0.00  0.00    +0.000 N 
ATOM     13  H   UNL     1     -18.888  43.779 -12.129  0.00  0.00    +0.000 HD
BRANCH  12  14
ATOM     14  C   UNL     1     -18.476  43.885 -14.186  0.00  0.00    +0.000 C 
ATOM     15  C   UNL     1     -18.676  45.310 -14.684  0.00  0.00    +0.000 C 
ATOM     16  C   UNL     1     -19.735  43.049 -14.375  0.00  0.00    +0.000 C 
ENDBRANCH  12  14
ENDBRANCH   2  12
TORSDOF 3
ENDMDL
MODEL 5
REMARK VINA RESULT:    -4.383     13.882     14.910
REMARK INTER + INTRA:          -5.491
REMARK INTER:                  -4.937
REMARK INTRA:                  -0.554
REMARK UNBOUND:                -0.339
REMARK  Name = 84584264
REMARK  7 active torsions:
REMARK  status: ('A' for Active; 'I' for Inactive)
REMARK    1  A    between atoms: N_2  and  C_5
REMARK    2  A    between atoms: N_2  and  C_6
REMARK    3  A    between atoms: N_3  and  C_14
REMARK    4  A    between atoms: N_3  and  C_15
REMARK    5  A    between atoms: C_5  and  C_8
REMARK    6  A    between atoms: C_5  and  C_9
REMARK    7  A    between atoms: C_7  and  C_10
REMARK                            x       y       z     vdW  Elec       q    Type
REMARK                         _______ _______ _______ _____ _____    ______ ____
ROOT
ATOM      1  N   UNL     1     -31.808  44.921 -12.841  0.00  0.00    +0.000 NA
ATOM      2  C   UNL     1     -32.096  44.029 -13.814  0.00  0.00    +0.000 A 
ATOM      3  C   UNL     1     -31.718  44.178 -15.139  0.00  0.00    +0.000 A 
ATOM      4  C   UNL     1     -30.998  45.315 -15.487  0.00  0.00    +0.000 A 
ATOM      5  C   UNL     1     -30.681  46.256 -14.512  0.00  0.00    +0.000 A 
ATOM      6  C   UNL     1     -31.106  46.014 -13.216  0.00  0.00    +0.000 A 
ENDROOT
BRANCH   3   9
ATOM      7  O   UNL     1     -31.310  42.210 -16.254  0.00  0.00    +0.000 OA
ATOM      8  N   UNL     1     -33.171  43.422 -16.981  0.00  0.00    +0.000 N 
ATOM      9  C   UNL     1     -32.047  43.200 -16.167  0.00  0.00    +0.000 C 
ATOM     10  C   UNL     1     -33.575  42.485 -18.019  0.00  0.00    +0.000 C 
ATOM     11  C   UNL     1     -34.013  44.609 -16.839  0.00  0.00    +0.000 C 
ENDBRANCH   3   9
BRANCH   2  12
ATOM     12  N   UNL     1     -32.816  42.902 -13.461  0.00  0.00    +0.000 N 
ATOM     13  H   UNL     1     -32.564  42.033 -13.922  0.00  0.00    +0.000 HD
BRANCH  12  14
ATOM     14  C   UNL     1     -34.134  42.946 -12.867  0.00  0.00    +0.000 C 
ATOM     15  C   UNL     1     -34.195  41.964 -11.704  0.00  0.00    +0.000 C 
ATOM     16  C   UNL     1     -35.179  42.619 -13.925  0.00  0.00    +0.000 C 
ENDBRANCH  12  14
ENDBRANCH   2  12
TORSDOF 3
ENDMDL
