MODEL 1
REMARK VINA RESULT:    -6.294      0.000      0.000
REMARK INTER + INTRA:          -6.478
REMARK INTER:                  -6.478
REMARK INTRA:                   0.000
REMARK UNBOUND:                 0.000
REMARK  Name = 85795465
REMARK  1 active torsions:
REMARK  status: ('A' for Active; 'I' for Inactive)
REMARK    1  A    between atoms: N_2  and  N_5
REMARK                            x       y       z     vdW  Elec       q    Type
REMARK                         _______ _______ _______ _____ _____    ______ ____
ROOT
ATOM      1  O   UNL     1     -19.203  38.780 -11.617  0.00  0.00    +0.000 OA
ATOM      2  N   UNL     1     -17.538  40.384 -11.929  0.00  0.00    +0.000 N 
ATOM      3  N   UNL     1     -17.199  42.141 -10.385  0.00  0.00    +0.000 NA
ATOM      4  N   UNL     1     -18.546  42.303  -8.489  0.00  0.00    +0.000 NA
ATOM      5  C   UNL     1     -18.967  40.479 -10.006  0.00  0.00    +0.000 A 
ATOM      6  C   UNL     1     -18.261  41.620  -9.622  0.00  0.00    +0.000 A 
ATOM      7  C   UNL     1     -18.597  39.784 -11.258  0.00  0.00    +0.000 A 
ATOM      8  C   UNL     1     -20.006  40.021  -9.199  0.00  0.00    +0.000 A 
ATOM      9  C   UNL     1     -16.895  41.517 -11.474  0.00  0.00    +0.000 A 
ATOM     10  C   UNL     1     -20.311  40.711  -8.033  0.00  0.00    +0.000 A 
ATOM     11  C   UNL     1     -19.560  41.832  -7.726  0.00  0.00    +0.000 A 
ENDROOT
BRANCH   2  12
ATOM     12  N   UNL     1     -17.106  39.815 -13.120  0.00  0.00    +0.000 N 
ATOM     13  H   UNL     1     -17.460  40.391 -13.882  0.00  0.00    +0.000 HD
ATOM     14  H   UNL     1     -16.089  39.891 -13.145  0.00  0.00    +0.000 HD
ENDBRANCH   2  12
TORSDOF 1
ENDMDL
MODEL 2
REMARK VINA RESULT:    -6.037      1.783      2.398
REMARK INTER + INTRA:          -6.214
REMARK INTER:                  -6.214
REMARK INTRA:                   0.000
REMARK UNBOUND:                 0.000
REMARK  Name = 85795465
REMARK  1 active torsions:
REMARK  status: ('A' for Active; 'I' for Inactive)
REMARK    1  A    between atoms: N_2  and  N_5
REMARK                            x       y       z     vdW  Elec       q    Type
REMARK                         _______ _______ _______ _____ _____    ______ ____
ROOT
ATOM      1  O   UNL     1     -16.657  42.527 -10.918  0.00  0.00    +0.000 OA
ATOM      2  N   UNL     1     -17.489  40.620 -11.973  0.00  0.00    +0.000 N 
ATOM      3  N   UNL     1     -19.212  39.318 -11.012  0.00  0.00    +0.000 NA
ATOM      4  N   UNL     1     -20.125  39.930  -8.955  0.00  0.00    +0.000 NA
ATOM      5  C   UNL     1     -18.372  41.317  -9.856  0.00  0.00    +0.000 A 
ATOM      6  C   UNL     1     -19.224  40.214  -9.926  0.00  0.00    +0.000 A 
ATOM      7  C   UNL     1     -17.415  41.565 -10.957  0.00  0.00    +0.000 A 
ATOM      8  C   UNL     1     -18.444  42.161  -8.750  0.00  0.00    +0.000 A 
ATOM      9  C   UNL     1     -18.366  39.556 -11.960  0.00  0.00    +0.000 A 
ATOM     10  C   UNL     1     -19.362  41.883  -7.746  0.00  0.00    +0.000 A 
ATOM     11  C   UNL     1     -20.170  40.769  -7.894  0.00  0.00    +0.000 A 
ENDROOT
BRANCH   2  12
ATOM     12  N   UNL     1     -16.634  40.754 -13.059  0.00  0.00    +0.000 N 
ATOM     13  H   UNL     1     -17.012  40.190 -13.819  0.00  0.00    +0.000 HD
ATOM     14  H   UNL     1     -16.677  41.725 -13.367  0.00  0.00    +0.000 HD
ENDBRANCH   2  12
TORSDOF 1
ENDMDL
MODEL 3
REMARK VINA RESULT:    -5.833      2.276      4.487
REMARK INTER + INTRA:          -6.004
REMARK INTER:                  -6.004
REMARK INTRA:                   0.000
REMARK UNBOUND:                 0.000
REMARK  Name = 85795465
REMARK  1 active torsions:
REMARK  status: ('A' for Active; 'I' for Inactive)
REMARK    1  A    between atoms: N_2  and  N_5
REMARK                            x       y       z     vdW  Elec       q    Type
REMARK                         _______ _______ _______ _____ _____    ______ ____
ROOT
ATOM      1  O   UNL     1     -17.950  43.017  -8.629  0.00  0.00    +0.000 OA
ATOM      2  N   UNL     1     -19.690  41.626  -7.937  0.00  0.00    +0.000 N 
ATOM      3  N   UNL     1     -20.354  39.742  -9.201  0.00  0.00    +0.000 NA
ATOM      4  N   UNL     1     -19.260  39.233 -11.196  0.00  0.00    +0.000 NA
ATOM      5  C   UNL     1     -18.515  41.173  -9.977  0.00  0.00    +0.000 A 
ATOM      6  C   UNL     1     -19.353  40.068 -10.134  0.00  0.00    +0.000 A 
ATOM      7  C   UNL     1     -18.674  42.041  -8.789  0.00  0.00    +0.000 A 
ATOM      8  C   UNL     1     -17.545  41.433 -10.943  0.00  0.00    +0.000 A 
ATOM      9  C   UNL     1     -20.474  40.515  -8.172  0.00  0.00    +0.000 A 
ATOM     10  C   UNL     1     -17.437  40.585 -12.038  0.00  0.00    +0.000 A 
ATOM     11  C   UNL     1     -18.307  39.511 -12.116  0.00  0.00    +0.000 A 
ENDROOT
BRANCH   2  12
ATOM     12  N   UNL     1     -19.930  42.369  -6.789  0.00  0.00    +0.000 N 
ATOM     13  H   UNL     1     -19.113  42.955  -6.625  0.00  0.00    +0.000 HD
ATOM     14  H   UNL     1     -20.706  43.000  -6.987  0.00  0.00    +0.000 HD
ENDBRANCH   2  12
TORSDOF 1
ENDMDL
MODEL 4
REMARK VINA RESULT:    -5.539      2.208      4.221
REMARK INTER + INTRA:          -5.700
REMARK INTER:                  -5.700
REMARK INTRA:                   0.000
REMARK UNBOUND:                 0.000
REMARK  Name = 85795465
REMARK  1 active torsions:
REMARK  status: ('A' for Active; 'I' for Inactive)
REMARK    1  A    between atoms: N_2  and  N_5
REMARK                            x       y       z     vdW  Elec       q    Type
REMARK                         _______ _______ _______ _____ _____    ______ ____
ROOT
ATOM      1  O   UNL     1     -18.407  42.331  -8.434  0.00  0.00    +0.000 OA
ATOM      2  N   UNL     1     -19.165  40.412  -9.523  0.00  0.00    +0.000 N 
ATOM      3  N   UNL     1     -18.813  40.073 -11.836  0.00  0.00    +0.000 NA
ATOM      4  N   UNL     1     -17.682  41.680 -13.090  0.00  0.00    +0.000 NA
ATOM      5  C   UNL     1     -17.994  42.114 -10.741  0.00  0.00    +0.000 A 
ATOM      6  C   UNL     1     -18.153  41.316 -11.874  0.00  0.00    +0.000 A 
ATOM      7  C   UNL     1     -18.535  41.648  -9.444  0.00  0.00    +0.000 A 
ATOM      8  C   UNL     1     -17.329  43.332 -10.856  0.00  0.00    +0.000 A 
ATOM      9  C   UNL     1     -19.277  39.689 -10.692  0.00  0.00    +0.000 A 
ATOM     10  C   UNL     1     -16.840  43.720 -12.097  0.00  0.00    +0.000 A 
ATOM     11  C   UNL     1     -17.039  42.869 -13.170  0.00  0.00    +0.000 A 
ENDROOT
BRANCH   2  12
ATOM     12  N   UNL     1     -19.711  39.877  -8.364  0.00  0.00    +0.000 N 
ATOM     13  H   UNL     1     -18.945  39.703  -7.715  0.00  0.00    +0.000 HD
ATOM     14  H   UNL     1     -20.296  40.597  -7.939  0.00  0.00    +0.000 HD
ENDBRANCH   2  12
TORSDOF 1
ENDMDL
MODEL 5
REMARK VINA RESULT:    -5.432      2.834      4.110
REMARK INTER + INTRA:          -5.591
REMARK INTER:                  -5.591
REMARK INTRA:                   0.000
REMARK UNBOUND:                 0.000
REMARK  Name = 85795465
REMARK  1 active torsions:
REMARK  status: ('A' for Active; 'I' for Inactive)
REMARK    1  A    between atoms: N_2  and  N_5
REMARK                            x       y       z     vdW  Elec       q    Type
REMARK                         _______ _______ _______ _____ _____    ______ ____
ROOT
ATOM      1  O   UNL     1     -19.519  41.760 -13.740  0.00  0.00    +0.000 OA
ATOM      2  N   UNL     1     -18.726  40.157 -12.242  0.00  0.00    +0.000 N 
ATOM      3  N   UNL     1     -16.687  40.443 -11.079  0.00  0.00    +0.000 NA
ATOM      4  N   UNL     1     -15.412  42.365 -11.417  0.00  0.00    +0.000 NA
ATOM      5  C   UNL     1     -17.474  42.162 -12.647  0.00  0.00    +0.000 A 
ATOM      6  C   UNL     1     -16.535  41.678 -11.735  0.00  0.00    +0.000 A 
ATOM      7  C   UNL     1     -18.679  41.356 -12.943  0.00  0.00    +0.000 A 
ATOM      8  C   UNL     1     -17.256  43.396 -13.256  0.00  0.00    +0.000 A 
ATOM      9  C   UNL     1     -17.747  39.757 -11.355  0.00  0.00    +0.000 A 
ATOM     10  C   UNL     1     -16.109  44.112 -12.941  0.00  0.00    +0.000 A 
ATOM     11  C   UNL     1     -15.229  43.560 -12.025  0.00  0.00    +0.000 A 
ENDROOT
BRANCH   2  12
ATOM     12  N   UNL     1     -19.814  39.319 -12.443  0.00  0.00    +0.000 N 
ATOM     13  H   UNL     1     -20.534  39.583 -11.773  0.00  0.00    +0.000 HD
ATOM     14  H   UNL     1     -20.190  39.520 -13.370  0.00  0.00    +0.000 HD
ENDBRANCH   2  12
TORSDOF 1
ENDMDL
