MODEL 1
REMARK VINA RESULT:    -6.165      0.000      0.000
REMARK INTER + INTRA:          -7.473
REMARK INTER:                  -7.246
REMARK INTRA:                  -0.227
REMARK UNBOUND:                -0.227
REMARK  Name = 86723289
REMARK  4 active torsions:
REMARK  status: ('A' for Active; 'I' for Inactive)
REMARK    1  A    between atoms: C_4  and  C_5
REMARK    2  A    between atoms: C_4  and  C_6
REMARK    3  A    between atoms: C_5  and  C_8
REMARK    4  A    between atoms: C_6  and  C_7
REMARK                            x       y       z     vdW  Elec       q    Type
REMARK                         _______ _______ _______ _____ _____    ______ ____
ROOT
ATOM      1  N   UNL     1     -18.823  42.139  -7.979  0.00  0.00    +0.000 NA
ATOM      2  N   UNL     1     -20.522  42.560  -6.365  0.00  0.00    +0.000 N 
ATOM      3  C   UNL     1     -19.167  40.424  -9.648  0.00  0.00    +0.000 A 
ATOM      4  C   UNL     1     -20.419  40.144  -9.113  0.00  0.00    +0.000 A 
ATOM      5  C   UNL     1     -18.414  41.422  -9.050  0.00  0.00    +0.000 A 
ATOM      6  C   UNL     1     -20.875  40.861  -8.012  0.00  0.00    +0.000 A 
ATOM      7  C   UNL     1     -20.046  41.839  -7.487  0.00  0.00    +0.000 A 
ATOM      8  H   UNL     1     -21.523  42.671  -6.253  0.00  0.00    +0.000 HD
ATOM      9  H   UNL     1     -19.916  43.278  -5.988  0.00  0.00    +0.000 HD
ENDROOT
BRANCH   3  11
ATOM     10  O   UNL     1     -19.373  38.844 -11.378  0.00  0.00    +0.000 OA
ATOM     11  C   UNL     1     -18.650  39.673 -10.830  0.00  0.00    +0.000 C 
BRANCH  11  12
ATOM     12  C   UNL     1     -17.239  39.961 -11.319  0.00  0.00    +0.000 C 
BRANCH  12  13
ATOM     13  C   UNL     1     -17.184  40.185 -12.830  0.00  0.00    +0.000 C 
ATOM     14  C   UNL     1     -17.391  41.648 -13.186  0.00  0.00    +0.000 C 
ENDBRANCH  12  13
ENDBRANCH  11  12
ENDBRANCH   3  11
TORSDOF 3
ENDMDL
MODEL 2
REMARK VINA RESULT:    -6.133      2.510      5.020
REMARK INTER + INTRA:          -7.435
REMARK INTER:                  -7.260
REMARK INTRA:                  -0.175
REMARK UNBOUND:                -0.227
REMARK  Name = 86723289
REMARK  4 active torsions:
REMARK  status: ('A' for Active; 'I' for Inactive)
REMARK    1  A    between atoms: C_4  and  C_5
REMARK    2  A    between atoms: C_4  and  C_6
REMARK    3  A    between atoms: C_5  and  C_8
REMARK    4  A    between atoms: C_6  and  C_7
REMARK                            x       y       z     vdW  Elec       q    Type
REMARK                         _______ _______ _______ _____ _____    ______ ____
ROOT
ATOM      1  N   UNL     1     -16.909  40.340 -10.871  0.00  0.00    +0.000 NA
ATOM      2  N   UNL     1     -16.585  39.812 -13.171  0.00  0.00    +0.000 N 
ATOM      3  C   UNL     1     -19.122  40.175  -9.913  0.00  0.00    +0.000 A 
ATOM      4  C   UNL     1     -19.631  39.768 -11.140  0.00  0.00    +0.000 A 
ATOM      5  C   UNL     1     -17.766  40.448  -9.830  0.00  0.00    +0.000 A 
ATOM      6  C   UNL     1     -18.781  39.645 -12.233  0.00  0.00    +0.000 A 
ATOM      7  C   UNL     1     -17.440  39.941 -12.048  0.00  0.00    +0.000 A 
ATOM      8  H   UNL     1     -16.832  39.143 -13.890  0.00  0.00    +0.000 HD
ATOM      9  H   UNL     1     -15.606  40.023 -13.029  0.00  0.00    +0.000 HD
ENDROOT
BRANCH   3  11
ATOM     10  O   UNL     1     -21.086  39.725  -8.699  0.00  0.00    +0.000 OA
ATOM     11  C   UNL     1     -20.009  40.317  -8.720  0.00  0.00    +0.000 C 
BRANCH  11  12
ATOM     12  C   UNL     1     -19.546  41.191  -7.565  0.00  0.00    +0.000 C 
BRANCH  12  13
ATOM     13  C   UNL     1     -20.607  42.212  -7.151  0.00  0.00    +0.000 C 
ATOM     14  C   UNL     1     -21.125  41.940  -5.748  0.00  0.00    +0.000 C 
ENDBRANCH  12  13
ENDBRANCH  11  12
ENDBRANCH   3  11
TORSDOF 3
ENDMDL
MODEL 3
REMARK VINA RESULT:    -5.840      1.777      2.336
REMARK INTER + INTRA:          -7.091
REMARK INTER:                  -6.743
REMARK INTRA:                  -0.347
REMARK UNBOUND:                -0.227
REMARK  Name = 86723289
REMARK  4 active torsions:
REMARK  status: ('A' for Active; 'I' for Inactive)
REMARK    1  A    between atoms: C_4  and  C_5
REMARK    2  A    between atoms: C_4  and  C_6
REMARK    3  A    between atoms: C_5  and  C_8
REMARK    4  A    between atoms: C_6  and  C_7
REMARK                            x       y       z     vdW  Elec       q    Type
REMARK                         _______ _______ _______ _____ _____    ______ ____
ROOT
ATOM      1  N   UNL     1     -22.190  41.490  -7.344  0.00  0.00    +0.000 NA
ATOM      2  N   UNL     1     -22.220  43.049  -5.542  0.00  0.00    +0.000 N 
ATOM      3  C   UNL     1     -20.094  40.967  -8.428  0.00  0.00    +0.000 A 
ATOM      4  C   UNL     1     -19.426  41.840  -7.577  0.00  0.00    +0.000 A 
ATOM      5  C   UNL     1     -21.464  40.828  -8.273  0.00  0.00    +0.000 A 
ATOM      6  C   UNL     1     -20.139  42.538  -6.609  0.00  0.00    +0.000 A 
ATOM      7  C   UNL     1     -21.507  42.330  -6.534  0.00  0.00    +0.000 A 
ATOM      8  H   UNL     1     -21.730  43.319  -4.698  0.00  0.00    +0.000 HD
ATOM      9  H   UNL     1     -23.217  42.889  -5.487  0.00  0.00    +0.000 HD
ENDROOT
BRANCH   3  11
ATOM     10  O   UNL     1     -19.897  39.232 -10.005  0.00  0.00    +0.000 OA
ATOM     11  C   UNL     1     -19.358  40.203  -9.478  0.00  0.00    +0.000 C 
BRANCH  11  12
ATOM     12  C   UNL     1     -17.958  40.655  -9.866  0.00  0.00    +0.000 C 
BRANCH  12  13
ATOM     13  C   UNL     1     -17.966  41.596 -11.071  0.00  0.00    +0.000 C 
ATOM     14  C   UNL     1     -17.513  42.996 -10.690  0.00  0.00    +0.000 C 
ENDBRANCH  12  13
ENDBRANCH  11  12
ENDBRANCH   3  11
TORSDOF 3
ENDMDL
MODEL 4
REMARK VINA RESULT:    -4.875      3.004      4.844
REMARK INTER + INTRA:          -5.956
REMARK INTER:                  -5.714
REMARK INTRA:                  -0.242
REMARK UNBOUND:                -0.227
REMARK  Name = 86723289
REMARK  4 active torsions:
REMARK  status: ('A' for Active; 'I' for Inactive)
REMARK    1  A    between atoms: C_4  and  C_5
REMARK    2  A    between atoms: C_4  and  C_6
REMARK    3  A    between atoms: C_5  and  C_8
REMARK    4  A    between atoms: C_6  and  C_7
REMARK                            x       y       z     vdW  Elec       q    Type
REMARK                         _______ _______ _______ _____ _____    ______ ____
ROOT
ATOM      1  N   UNL     1     -17.751  43.872 -12.568  0.00  0.00    +0.000 NA
ATOM      2  N   UNL     1     -18.999  44.796 -14.375  0.00  0.00    +0.000 N 
ATOM      3  C   UNL     1     -18.367  41.710 -11.681  0.00  0.00    +0.000 A 
ATOM      4  C   UNL     1     -19.406  41.620 -12.600  0.00  0.00    +0.000 A 
ATOM      5  C   UNL     1     -17.575  42.847 -11.705  0.00  0.00    +0.000 A 
ATOM      6  C   UNL     1     -19.617  42.654 -13.504  0.00  0.00    +0.000 A 
ATOM      7  C   UNL     1     -18.770  43.749 -13.448  0.00  0.00    +0.000 A 
ATOM      8  H   UNL     1     -19.425  44.567 -15.264  0.00  0.00    +0.000 HD
ATOM      9  H   UNL     1     -18.373  45.590 -14.334  0.00  0.00    +0.000 HD
ENDROOT
BRANCH   3  11
ATOM     10  O   UNL     1     -16.962  40.224 -10.518  0.00  0.00    +0.000 OA
ATOM     11  C   UNL     1     -18.113  40.616 -10.697  0.00  0.00    +0.000 C 
BRANCH  11  12
ATOM     12  C   UNL     1     -19.293  40.023  -9.943  0.00  0.00    +0.000 C 
BRANCH  12  13
ATOM     13  C   UNL     1     -19.503  40.685  -8.581  0.00  0.00    +0.000 C 
ATOM     14  C   UNL     1     -20.980  40.808  -8.242  0.00  0.00    +0.000 C 
ENDBRANCH  12  13
ENDBRANCH  11  12
ENDBRANCH   3  11
TORSDOF 3
ENDMDL
MODEL 5
REMARK VINA RESULT:    -4.839      2.242      3.044
REMARK INTER + INTRA:          -5.914
REMARK INTER:                  -5.647
REMARK INTRA:                  -0.267
REMARK UNBOUND:                -0.227
REMARK  Name = 86723289
REMARK  4 active torsions:
REMARK  status: ('A' for Active; 'I' for Inactive)
REMARK    1  A    between atoms: C_4  and  C_5
REMARK    2  A    between atoms: C_4  and  C_6
REMARK    3  A    between atoms: C_5  and  C_8
REMARK    4  A    between atoms: C_6  and  C_7
REMARK                            x       y       z     vdW  Elec       q    Type
REMARK                         _______ _______ _______ _____ _____    ______ ____
ROOT
ATOM      1  N   UNL     1     -18.134  41.882  -9.064  0.00  0.00    +0.000 NA
ATOM      2  N   UNL     1     -19.208  40.418  -7.523  0.00  0.00    +0.000 N 
ATOM      3  C   UNL     1     -18.498  41.587 -11.436  0.00  0.00    +0.000 A 
ATOM      4  C   UNL     1     -19.337  40.509 -11.181  0.00  0.00    +0.000 A 
ATOM      5  C   UNL     1     -17.926  42.235 -10.353  0.00  0.00    +0.000 A 
ATOM      6  C   UNL     1     -19.576  40.117  -9.869  0.00  0.00    +0.000 A 
ATOM      7  C   UNL     1     -18.956  40.829  -8.855  0.00  0.00    +0.000 A 
ATOM      8  H   UNL     1     -20.090  39.964  -7.318  0.00  0.00    +0.000 HD
ATOM      9  H   UNL     1     -18.759  40.945  -6.786  0.00  0.00    +0.000 HD
ENDROOT
BRANCH   3  11
ATOM     10  O   UNL     1     -17.217  41.619 -13.408  0.00  0.00    +0.000 OA
ATOM     11  C   UNL     1     -18.221  42.033 -12.833  0.00  0.00    +0.000 C 
BRANCH  11  12
ATOM     12  C   UNL     1     -19.197  42.988 -13.503  0.00  0.00    +0.000 C 
BRANCH  12  13
ATOM     13  C   UNL     1     -18.544  44.323 -13.866  0.00  0.00    +0.000 C 
ATOM     14  C   UNL     1     -18.544  45.282 -12.688  0.00  0.00    +0.000 C 
ENDBRANCH  12  13
ENDBRANCH  11  12
ENDBRANCH   3  11
TORSDOF 3
ENDMDL
