MODEL 1
REMARK VINA RESULT:    -6.021      0.000      0.000
REMARK INTER + INTRA:          -7.169
REMARK INTER:                  -6.725
REMARK INTRA:                  -0.443
REMARK UNBOUND:                -0.443
REMARK  Name = 87552729
REMARK  2 active torsions:
REMARK  status: ('A' for Active; 'I' for Inactive)
REMARK    1  A    between atoms: N_6  and  C_9
REMARK    2  A    between atoms: C_8  and  C_12
REMARK                            x       y       z     vdW  Elec       q    Type
REMARK                         _______ _______ _______ _____ _____    ______ ____
ROOT
ATOM      1  N   UNL     1     -18.138  42.084  -8.776  0.00  0.00    +0.000 NA
ATOM      2  C   UNL     1     -19.358  40.561 -10.204  0.00  0.00    +0.000 A 
ATOM      3  C   UNL     1     -18.271  41.371  -9.917  0.00  0.00    +0.000 A 
ATOM      4  C   UNL     1     -20.374  40.476  -9.258  0.00  0.00    +0.000 A 
ATOM      5  C   UNL     1     -20.273  41.194  -8.072  0.00  0.00    +0.000 A 
ATOM      6  C   UNL     1     -19.146  41.976  -7.881  0.00  0.00    +0.000 A 
ENDROOT
BRANCH   2   9
ATOM      7  O   UNL     1     -19.268  38.577 -11.469  0.00  0.00    +0.000 OA
ATOM      8  N   UNL     1     -19.833  40.495 -12.592  0.00  0.00    +0.000 N 
ATOM      9  C   UNL     1     -19.471  39.803 -11.442  0.00  0.00    +0.000 C 
ATOM     10  H   UNL     1     -20.012  41.494 -12.586  0.00  0.00    +0.000 HD
ATOM     11  H   UNL     1     -19.933  40.015 -13.480  0.00  0.00    +0.000 HD
ENDBRANCH   2   9
BRANCH   3  15
ATOM     12  S   UNL     1     -17.055  42.778 -11.738  0.00  0.00    +0.000 S 
ATOM     13  O   UNL     1     -15.987  42.947 -12.715  0.00  0.00    +0.000 OA
ATOM     14  O   UNL     1     -18.021  43.861 -11.631  0.00  0.00    +0.000 OA
ATOM     15  N   UNL     1     -17.179  41.488 -10.884  0.00  0.00    +0.000 NA
ENDBRANCH   3  15
TORSDOF 2
ENDMDL
MODEL 2
REMARK VINA RESULT:    -5.202      2.846      4.610
REMARK INTER + INTRA:          -6.254
REMARK INTER:                  -5.957
REMARK INTRA:                  -0.297
REMARK UNBOUND:                -0.443
REMARK  Name = 87552729
REMARK  2 active torsions:
REMARK  status: ('A' for Active; 'I' for Inactive)
REMARK    1  A    between atoms: N_6  and  C_9
REMARK    2  A    between atoms: C_8  and  C_12
REMARK                            x       y       z     vdW  Elec       q    Type
REMARK                         _______ _______ _______ _____ _____    ______ ____
ROOT
ATOM      1  N   UNL     1     -19.022  43.006 -13.523  0.00  0.00    +0.000 NA
ATOM      2  C   UNL     1     -17.868  42.872 -11.403  0.00  0.00    +0.000 A 
ATOM      3  C   UNL     1     -18.783  42.409 -12.333  0.00  0.00    +0.000 A 
ATOM      4  C   UNL     1     -17.149  44.022 -11.713  0.00  0.00    +0.000 A 
ATOM      5  C   UNL     1     -17.365  44.664 -12.926  0.00  0.00    +0.000 A 
ATOM      6  C   UNL     1     -18.304  44.121 -13.789  0.00  0.00    +0.000 A 
ENDROOT
BRANCH   2   9
ATOM      7  O   UNL     1     -18.034  42.695  -9.060  0.00  0.00    +0.000 OA
ATOM      8  N   UNL     1     -16.956  40.990 -10.152  0.00  0.00    +0.000 N 
ATOM      9  C   UNL     1     -17.632  42.205 -10.129  0.00  0.00    +0.000 C 
ATOM     10  H   UNL     1     -16.630  40.571 -11.016  0.00  0.00    +0.000 HD
ATOM     11  H   UNL     1     -16.772  40.480  -9.294  0.00  0.00    +0.000 HD
ENDBRANCH   2   9
BRANCH   3  15
ATOM     12  S   UNL     1     -18.979  39.815 -12.432  0.00  0.00    +0.000 S 
ATOM     13  O   UNL     1     -19.710  38.583 -12.171  0.00  0.00    +0.000 OA
ATOM     14  O   UNL     1     -17.696  39.685 -13.106  0.00  0.00    +0.000 OA
ATOM     15  N   UNL     1     -19.560  41.203 -12.048  0.00  0.00    +0.000 NA
ENDBRANCH   3  15
TORSDOF 2
ENDMDL
MODEL 3
REMARK VINA RESULT:    -5.080      3.031      3.939
REMARK INTER + INTRA:          -6.118
REMARK INTER:                  -5.842
REMARK INTRA:                  -0.276
REMARK UNBOUND:                -0.443
REMARK  Name = 87552729
REMARK  2 active torsions:
REMARK  status: ('A' for Active; 'I' for Inactive)
REMARK    1  A    between atoms: N_6  and  C_9
REMARK    2  A    between atoms: C_8  and  C_12
REMARK                            x       y       z     vdW  Elec       q    Type
REMARK                         _______ _______ _______ _____ _____    ______ ____
ROOT
ATOM      1  N   UNL     1     -16.305  41.818 -10.723  0.00  0.00    +0.000 NA
ATOM      2  C   UNL     1     -18.102  41.501 -12.308  0.00  0.00    +0.000 A 
ATOM      3  C   UNL     1     -17.485  41.271 -11.090  0.00  0.00    +0.000 A 
ATOM      4  C   UNL     1     -17.467  42.348 -13.209  0.00  0.00    +0.000 A 
ATOM      5  C   UNL     1     -16.252  42.931 -12.869  0.00  0.00    +0.000 A 
ATOM      6  C   UNL     1     -15.718  42.636 -11.625  0.00  0.00    +0.000 A 
ENDROOT
BRANCH   2   9
ATOM      7  O   UNL     1     -20.285  41.570 -13.190  0.00  0.00    +0.000 OA
ATOM      8  N   UNL     1     -19.536  39.535 -12.442  0.00  0.00    +0.000 N 
ATOM      9  C   UNL     1     -19.376  40.897 -12.674  0.00  0.00    +0.000 C 
ATOM     10  H   UNL     1     -18.801  38.969 -12.031  0.00  0.00    +0.000 HD
ATOM     11  H   UNL     1     -20.401  39.063 -12.684  0.00  0.00    +0.000 HD
ENDBRANCH   2   9
BRANCH   3  15
ATOM     12  S   UNL     1     -18.640  40.979  -8.775  0.00  0.00    +0.000 S 
ATOM     13  O   UNL     1     -19.279  40.144  -7.767  0.00  0.00    +0.000 OA
ATOM     14  O   UNL     1     -18.478  42.388  -8.450  0.00  0.00    +0.000 OA
ATOM     15  N   UNL     1     -18.120  40.386 -10.112  0.00  0.00    +0.000 NA
ENDBRANCH   3  15
TORSDOF 2
ENDMDL
MODEL 4
REMARK VINA RESULT:    -4.893      3.668      4.392
REMARK INTER + INTRA:          -5.909
REMARK INTER:                  -5.933
REMARK INTRA:                   0.024
REMARK UNBOUND:                -0.443
REMARK  Name = 87552729
REMARK  2 active torsions:
REMARK  status: ('A' for Active; 'I' for Inactive)
REMARK    1  A    between atoms: N_6  and  C_9
REMARK    2  A    between atoms: C_8  and  C_12
REMARK                            x       y       z     vdW  Elec       q    Type
REMARK                         _______ _______ _______ _____ _____    ______ ____
ROOT
ATOM      1  N   UNL     1     -19.012  44.233 -13.435  0.00  0.00    +0.000 NA
ATOM      2  C   UNL     1     -18.459  42.005 -12.675  0.00  0.00    +0.000 A 
ATOM      3  C   UNL     1     -19.117  42.887 -13.517  0.00  0.00    +0.000 A 
ATOM      4  C   UNL     1     -17.639  42.538 -11.687  0.00  0.00    +0.000 A 
ATOM      5  C   UNL     1     -17.505  43.916 -11.571  0.00  0.00    +0.000 A 
ATOM      6  C   UNL     1     -18.205  44.713 -12.462  0.00  0.00    +0.000 A 
ENDROOT
BRANCH   2   9
ATOM      7  O   UNL     1     -17.614  39.840 -13.057  0.00  0.00    +0.000 OA
ATOM      8  N   UNL     1     -19.849  40.007 -12.571  0.00  0.00    +0.000 N 
ATOM      9  C   UNL     1     -18.592  40.559 -12.789  0.00  0.00    +0.000 C 
ATOM     10  H   UNL     1     -20.656  40.577 -12.342  0.00  0.00    +0.000 HD
ATOM     11  H   UNL     1     -19.996  39.004 -12.631  0.00  0.00    +0.000 HD
ENDBRANCH   2   9
BRANCH   3  15
ATOM     12  S   UNL     1     -20.024  43.085 -15.949  0.00  0.00    +0.000 S 
ATOM     13  O   UNL     1     -20.873  42.611 -17.033  0.00  0.00    +0.000 OA
ATOM     14  O   UNL     1     -19.240  44.283 -16.207  0.00  0.00    +0.000 OA
ATOM     15  N   UNL     1     -19.989  42.369 -14.572  0.00  0.00    +0.000 NA
ENDBRANCH   3  15
TORSDOF 2
ENDMDL
MODEL 5
REMARK VINA RESULT:    -4.877      3.087      4.857
REMARK INTER + INTRA:          -5.890
REMARK INTER:                  -5.643
REMARK INTRA:                  -0.247
REMARK UNBOUND:                -0.443
REMARK  Name = 87552729
REMARK  2 active torsions:
REMARK  status: ('A' for Active; 'I' for Inactive)
REMARK    1  A    between atoms: N_6  and  C_9
REMARK    2  A    between atoms: C_8  and  C_12
REMARK                            x       y       z     vdW  Elec       q    Type
REMARK                         _______ _______ _______ _____ _____    ______ ____
ROOT
ATOM      1  N   UNL     1     -19.217  42.398 -14.307  0.00  0.00    +0.000 NA
ATOM      2  C   UNL     1     -17.609  42.815 -12.550  0.00  0.00    +0.000 A 
ATOM      3  C   UNL     1     -18.414  41.977 -13.304  0.00  0.00    +0.000 A 
ATOM      4  C   UNL     1     -17.629  44.174 -12.845  0.00  0.00    +0.000 A 
ATOM      5  C   UNL     1     -18.442  44.646 -13.869  0.00  0.00    +0.000 A 
ATOM      6  C   UNL     1     -19.209  43.726 -14.564  0.00  0.00    +0.000 A 
ENDROOT
BRANCH   2   9
ATOM      7  O   UNL     1     -15.572  42.004 -11.690  0.00  0.00    +0.000 OA
ATOM      8  N   UNL     1     -17.295  42.262 -10.198  0.00  0.00    +0.000 N 
ATOM      9  C   UNL     1     -16.752  42.331 -11.477  0.00  0.00    +0.000 C 
ATOM     10  H   UNL     1     -18.253  42.534 -10.005  0.00  0.00    +0.000 HD
ATOM     11  H   UNL     1     -16.740  41.939  -9.413  0.00  0.00    +0.000 HD
ENDBRANCH   2   9
BRANCH   3  15
ATOM     12  S   UNL     1     -19.244  40.001 -11.827  0.00  0.00    +0.000 S 
ATOM     13  O   UNL     1     -19.288  38.580 -11.508  0.00  0.00    +0.000 OA
ATOM     14  O   UNL     1     -19.976  40.893 -10.941  0.00  0.00    +0.000 OA
ATOM     15  N   UNL     1     -18.422  40.540 -13.029  0.00  0.00    +0.000 NA
ENDBRANCH   3  15
TORSDOF 2
ENDMDL
