MODEL 1
REMARK VINA RESULT:    -5.814      0.000      0.000
REMARK INTER + INTRA:          -6.759
REMARK INTER:                  -6.664
REMARK INTRA:                  -0.095
REMARK UNBOUND:                -0.095
REMARK  Name = 87697460
REMARK  3 active torsions:
REMARK  status: ('A' for Active; 'I' for Inactive)
REMARK    1  A    between atoms: S_1  and  C_11
REMARK    2  A    between atoms: C_5  and  C_7
REMARK    3  A    between atoms: C_7  and  C_11
REMARK                            x       y       z     vdW  Elec       q    Type
REMARK                         _______ _______ _______ _____ _____    ______ ____
ROOT
ATOM      1  N   UNL     1     -18.840  42.263  -7.925  0.00  0.00    +0.000 NA
ATOM      2  N   UNL     1     -20.554  42.603  -6.305  0.00  0.00    +0.000 N 
ATOM      3  C   UNL     1     -19.115  40.545  -9.604  0.00  0.00    +0.000 A 
ATOM      4  C   UNL     1     -20.354  40.210  -9.069  0.00  0.00    +0.000 A 
ATOM      5  C   UNL     1     -18.404  41.570  -9.000  0.00  0.00    +0.000 A 
ATOM      6  C   UNL     1     -20.836  40.900  -7.962  0.00  0.00    +0.000 A 
ATOM      7  C   UNL     1     -20.048  41.909  -7.432  0.00  0.00    +0.000 A 
ATOM      8  H   UNL     1     -21.558  42.670  -6.191  0.00  0.00    +0.000 HD
ATOM      9  H   UNL     1     -19.978  43.342  -5.924  0.00  0.00    +0.000 HD
ENDROOT
BRANCH   3  11
ATOM     10  O   UNL     1     -19.242  38.930 -11.299  0.00  0.00    +0.000 OA
ATOM     11  C   UNL     1     -18.584  39.844 -10.759  0.00  0.00    +0.000 C 
BRANCH  11  12
ATOM     12  C   UNL     1     -17.201  40.229 -11.309  0.00  0.00    +0.000 C 
BRANCH  12  13
ATOM     13  S   UNL     1     -17.291  41.282 -12.782  0.00  0.00    +0.000 S 
ATOM     14  H   UNL     1     -18.629  41.340 -12.846  0.00  0.00    +0.000 HD
ENDBRANCH  12  13
ENDBRANCH  11  12
ENDBRANCH   3  11
TORSDOF 3
ENDMDL
MODEL 2
REMARK VINA RESULT:    -5.516      1.060      1.558
REMARK INTER + INTRA:          -6.417
REMARK INTER:                  -6.353
REMARK INTRA:                  -0.064
REMARK UNBOUND:                -0.095
REMARK  Name = 87697460
REMARK  3 active torsions:
REMARK  status: ('A' for Active; 'I' for Inactive)
REMARK    1  A    between atoms: S_1  and  C_11
REMARK    2  A    between atoms: C_5  and  C_7
REMARK    3  A    between atoms: C_7  and  C_11
REMARK                            x       y       z     vdW  Elec       q    Type
REMARK                         _______ _______ _______ _____ _____    ______ ____
ROOT
ATOM      1  N   UNL     1     -21.276  40.953  -7.919  0.00  0.00    +0.000 NA
ATOM      2  N   UNL     1     -21.201  42.537  -6.140  0.00  0.00    +0.000 N 
ATOM      3  C   UNL     1     -19.324  40.633  -9.309  0.00  0.00    +0.000 A 
ATOM      4  C   UNL     1     -18.633  41.588  -8.571  0.00  0.00    +0.000 A 
ATOM      5  C   UNL     1     -20.632  40.354  -8.945  0.00  0.00    +0.000 A 
ATOM      6  C   UNL     1     -19.263  42.228  -7.509  0.00  0.00    +0.000 A 
ATOM      7  C   UNL     1     -20.573  41.877  -7.226  0.00  0.00    +0.000 A 
ATOM      8  H   UNL     1     -20.621  42.875  -5.382  0.00  0.00    +0.000 HD
ATOM      9  H   UNL     1     -22.156  42.274  -5.933  0.00  0.00    +0.000 HD
ENDROOT
BRANCH   3  11
ATOM     10  O   UNL     1     -19.300  39.039 -11.029  0.00  0.00    +0.000 OA
ATOM     11  C   UNL     1     -18.694  39.948 -10.424  0.00  0.00    +0.000 C 
BRANCH  11  12
ATOM     12  C   UNL     1     -17.270  40.342 -10.848  0.00  0.00    +0.000 C 
BRANCH  12  13
ATOM     13  S   UNL     1     -16.944  40.036 -12.605  0.00  0.00    +0.000 S 
ATOM     14  H   UNL     1     -16.120  38.993 -12.428  0.00  0.00    +0.000 HD
ENDBRANCH  12  13
ENDBRANCH  11  12
ENDBRANCH   3  11
TORSDOF 3
ENDMDL
MODEL 3
REMARK VINA RESULT:    -4.649      3.560      4.802
REMARK INTER + INTRA:          -5.424
REMARK INTER:                  -5.336
REMARK INTRA:                  -0.088
REMARK UNBOUND:                -0.095
REMARK  Name = 87697460
REMARK  3 active torsions:
REMARK  status: ('A' for Active; 'I' for Inactive)
REMARK    1  A    between atoms: S_1  and  C_11
REMARK    2  A    between atoms: C_5  and  C_7
REMARK    3  A    between atoms: C_7  and  C_11
REMARK                            x       y       z     vdW  Elec       q    Type
REMARK                         _______ _______ _______ _____ _____    ______ ____
ROOT
ATOM      1  N   UNL     1     -17.047  41.949 -13.212  0.00  0.00    +0.000 NA
ATOM      2  N   UNL     1     -16.115  44.115 -13.552  0.00  0.00    +0.000 N 
ATOM      3  C   UNL     1     -18.009  41.392 -11.065  0.00  0.00    +0.000 A 
ATOM      4  C   UNL     1     -17.701  42.662 -10.589  0.00  0.00    +0.000 A 
ATOM      5  C   UNL     1     -17.664  41.088 -12.372  0.00  0.00    +0.000 A 
ATOM      6  C   UNL     1     -17.064  43.575 -11.423  0.00  0.00    +0.000 A 
ATOM      7  C   UNL     1     -16.762  43.173 -12.714  0.00  0.00    +0.000 A 
ATOM      8  H   UNL     1     -16.275  45.101 -13.382  0.00  0.00    +0.000 HD
ATOM      9  H   UNL     1     -15.901  43.820 -14.496  0.00  0.00    +0.000 HD
ENDROOT
BRANCH   3  11
ATOM     10  O   UNL     1     -19.060  39.328 -10.695  0.00  0.00    +0.000 OA
ATOM     11  C   UNL     1     -18.673  40.416 -10.219  0.00  0.00    +0.000 C 
BRANCH  11  12
ATOM     12  C   UNL     1     -18.905  40.735  -8.734  0.00  0.00    +0.000 C 
BRANCH  12  13
ATOM     13  S   UNL     1     -20.661  40.848  -8.299  0.00  0.00    +0.000 S 
ATOM     14  H   UNL     1     -20.802  39.575  -7.901  0.00  0.00    +0.000 HD
ENDBRANCH  12  13
ENDBRANCH  11  12
ENDBRANCH   3  11
TORSDOF 3
ENDMDL
MODEL 4
REMARK VINA RESULT:    -4.590      3.675      4.783
REMARK INTER + INTRA:          -5.356
REMARK INTER:                  -5.283
REMARK INTRA:                  -0.072
REMARK UNBOUND:                -0.095
REMARK  Name = 87697460
REMARK  3 active torsions:
REMARK  status: ('A' for Active; 'I' for Inactive)
REMARK    1  A    between atoms: S_1  and  C_11
REMARK    2  A    between atoms: C_5  and  C_7
REMARK    3  A    between atoms: C_7  and  C_11
REMARK                            x       y       z     vdW  Elec       q    Type
REMARK                         _______ _______ _______ _____ _____    ______ ____
ROOT
ATOM      1  N   UNL     1     -17.722  41.352 -12.177  0.00  0.00    +0.000 NA
ATOM      2  N   UNL     1     -18.132  39.668 -13.811  0.00  0.00    +0.000 N 
ATOM      3  C   UNL     1     -18.681  41.126  -9.970  0.00  0.00    +0.000 A 
ATOM      4  C   UNL     1     -19.271  39.923 -10.341  0.00  0.00    +0.000 A 
ATOM      5  C   UNL     1     -17.923  41.796 -10.916  0.00  0.00    +0.000 A 
ATOM      6  C   UNL     1     -19.087  39.434 -11.630  0.00  0.00    +0.000 A 
ATOM      7  C   UNL     1     -18.310  40.180 -12.502  0.00  0.00    +0.000 A 
ATOM      8  H   UNL     1     -18.176  38.665 -13.946  0.00  0.00    +0.000 HD
ATOM      9  H   UNL     1     -17.560  40.212 -14.443  0.00  0.00    +0.000 HD
ENDROOT
BRANCH   3  11
ATOM     10  O   UNL     1     -18.316  42.744  -8.311  0.00  0.00    +0.000 OA
ATOM     11  C   UNL     1     -18.854  41.663  -8.631  0.00  0.00    +0.000 C 
BRANCH  11  12
ATOM     12  C   UNL     1     -19.696  40.887  -7.607  0.00  0.00    +0.000 C 
BRANCH  12  13
ATOM     13  S   UNL     1     -20.848  41.944  -6.688  0.00  0.00    +0.000 S 
ATOM     14  H   UNL     1     -21.973  41.415  -7.189  0.00  0.00    +0.000 HD
ENDBRANCH  12  13
ENDBRANCH  11  12
ENDBRANCH   3  11
TORSDOF 3
ENDMDL
MODEL 5
REMARK VINA RESULT:    -4.425      2.949      3.441
REMARK INTER + INTRA:          -5.167
REMARK INTER:                  -5.090
REMARK INTRA:                  -0.077
REMARK UNBOUND:                -0.095
REMARK  Name = 87697460
REMARK  3 active torsions:
REMARK  status: ('A' for Active; 'I' for Inactive)
REMARK    1  A    between atoms: S_1  and  C_11
REMARK    2  A    between atoms: C_5  and  C_7
REMARK    3  A    between atoms: C_7  and  C_11
REMARK                            x       y       z     vdW  Elec       q    Type
REMARK                         _______ _______ _______ _____ _____    ______ ____
ROOT
ATOM      1  N   UNL     1     -19.585  40.514 -10.928  0.00  0.00    +0.000 NA
ATOM      2  N   UNL     1     -20.740  39.680  -9.018  0.00  0.00    +0.000 N 
ATOM      3  C   UNL     1     -17.905  42.229 -10.648  0.00  0.00    +0.000 A 
ATOM      4  C   UNL     1     -18.127  42.232  -9.275  0.00  0.00    +0.000 A 
ATOM      5  C   UNL     1     -18.654  41.358 -11.423  0.00  0.00    +0.000 A 
ATOM      6  C   UNL     1     -19.079  41.378  -8.728  0.00  0.00    +0.000 A 
ATOM      7  C   UNL     1     -19.775  40.545  -9.591  0.00  0.00    +0.000 A 
ATOM      8  H   UNL     1     -20.607  39.375  -8.062  0.00  0.00    +0.000 HD
ATOM      9  H   UNL     1     -21.242  39.070  -9.651  0.00  0.00    +0.000 HD
ENDROOT
BRANCH   3  11
ATOM     10  O   UNL     1     -15.741  42.722 -11.406  0.00  0.00    +0.000 OA
ATOM     11  C   UNL     1     -16.919  43.109 -11.248  0.00  0.00    +0.000 C 
BRANCH  11  12
ATOM     12  C   UNL     1     -17.331  44.525 -11.681  0.00  0.00    +0.000 C 
BRANCH  12  13
ATOM     13  S   UNL     1     -17.995  44.587 -13.367  0.00  0.00    +0.000 S 
ATOM     14  H   UNL     1     -18.497  43.344 -13.378  0.00  0.00    +0.000 HD
ENDBRANCH  12  13
ENDBRANCH  11  12
ENDBRANCH   3  11
TORSDOF 3
ENDMDL
