MODEL 1
REMARK VINA RESULT:    -6.311      0.000      0.000
REMARK INTER + INTRA:          -8.497
REMARK INTER:                  -7.786
REMARK INTRA:                  -0.711
REMARK UNBOUND:                -0.711
REMARK  Name = 87872956
REMARK  5 active torsions:
REMARK  status: ('A' for Active; 'I' for Inactive)
REMARK    1  A    between atoms: O_1  and  N_4
REMARK    2  A    between atoms: O_1  and  C_13
REMARK    3  A    between atoms: N_4  and  C_8
REMARK    4  A    between atoms: C_7  and  C_11
REMARK    5  A    between atoms: C_13  and  C_14
REMARK                            x       y       z     vdW  Elec       q    Type
REMARK                         _______ _______ _______ _____ _____    ______ ____
ROOT
ATOM      1  N   UNL     1     -18.539  42.262  -8.301  0.00  0.00    +0.000 NA
ATOM      2  C   UNL     1     -19.353  40.658  -9.917  0.00  0.00    +0.000 A 
ATOM      3  C   UNL     1     -18.445  41.611  -9.483  0.00  0.00    +0.000 A 
ATOM      4  C   UNL     1     -20.426  40.355  -9.086  0.00  0.00    +0.000 A 
ATOM      5  C   UNL     1     -20.557  41.004  -7.864  0.00  0.00    +0.000 A 
ATOM      6  C   UNL     1     -19.595  41.941  -7.520  0.00  0.00    +0.000 A 
ENDROOT
BRANCH   2   9
ATOM      7  O   UNL     1     -18.490  38.975 -11.321  0.00  0.00    +0.000 OA
ATOM      8  N   UNL     1     -19.965  40.455 -12.266  0.00  0.00    +0.000 N 
ATOM      9  C   UNL     1     -19.223  39.970 -11.194  0.00  0.00    +0.000 C 
ATOM     10  H   UNL     1     -20.574  41.262 -12.179  0.00  0.00    +0.000 HD
ATOM     11  H   UNL     1     -19.918  40.010 -13.178  0.00  0.00    +0.000 HD
ENDBRANCH   2   9
BRANCH   3  12
ATOM     12  N   UNL     1     -17.346  41.922 -10.323  0.00  0.00    +0.000 N 
ATOM     13  H   UNL     1     -16.761  41.144 -10.608  0.00  0.00    +0.000 HD
BRANCH  12  14
ATOM     14  O   UNL     1     -17.387  42.959 -11.224  0.00  0.00    +0.000 OA
BRANCH  14  16
ATOM     15  O   UNL     1     -17.164  41.727 -13.170  0.00  0.00    +0.000 OA
ATOM     16  C   UNL     1     -16.803  42.615 -12.409  0.00  0.00    +0.000 C 
ATOM     17  C   UNL     1     -15.618  43.500 -12.654  0.00  0.00    +0.000 C 
ENDBRANCH  14  16
ENDBRANCH  12  14
ENDBRANCH   3  12
TORSDOF 4
ENDMDL
MODEL 2
REMARK VINA RESULT:    -5.644      2.118      4.711
REMARK INTER + INTRA:          -7.675
REMARK INTER:                  -7.239
REMARK INTRA:                  -0.436
REMARK UNBOUND:                -0.711
REMARK  Name = 87872956
REMARK  5 active torsions:
REMARK  status: ('A' for Active; 'I' for Inactive)
REMARK    1  A    between atoms: O_1  and  N_4
REMARK    2  A    between atoms: O_1  and  C_13
REMARK    3  A    between atoms: N_4  and  C_8
REMARK    4  A    between atoms: C_7  and  C_11
REMARK    5  A    between atoms: C_13  and  C_14
REMARK                            x       y       z     vdW  Elec       q    Type
REMARK                         _______ _______ _______ _____ _____    ______ ____
ROOT
ATOM      1  N   UNL     1     -18.973  39.600 -10.767  0.00  0.00    +0.000 NA
ATOM      2  C   UNL     1     -17.117  40.956 -11.514  0.00  0.00    +0.000 A 
ATOM      3  C   UNL     1     -17.936  40.433 -10.526  0.00  0.00    +0.000 A 
ATOM      4  C   UNL     1     -17.378  40.601 -12.833  0.00  0.00    +0.000 A 
ATOM      5  C   UNL     1     -18.436  39.746 -13.119  0.00  0.00    +0.000 A 
ATOM      6  C   UNL     1     -19.197  39.277 -12.060  0.00  0.00    +0.000 A 
ENDROOT
BRANCH   2   9
ATOM      7  O   UNL     1     -16.182  43.062 -11.027  0.00  0.00    +0.000 OA
ATOM      8  N   UNL     1     -14.730  41.292 -11.153  0.00  0.00    +0.000 N 
ATOM      9  C   UNL     1     -16.003  41.849 -11.223  0.00  0.00    +0.000 C 
ATOM     10  H   UNL     1     -14.566  40.302 -11.303  0.00  0.00    +0.000 HD
ATOM     11  H   UNL     1     -13.919  41.867 -10.947  0.00  0.00    +0.000 HD
ENDBRANCH   2   9
BRANCH   3  12
ATOM     12  N   UNL     1     -17.674  40.788  -9.179  0.00  0.00    +0.000 N 
ATOM     13  H   UNL     1     -16.713  40.691  -8.865  0.00  0.00    +0.000 HD
BRANCH  12  14
ATOM     14  O   UNL     1     -18.383  41.770  -8.531  0.00  0.00    +0.000 OA
BRANCH  14  16
ATOM     15  O   UNL     1     -19.509  40.051  -7.469  0.00  0.00    +0.000 OA
ATOM     16  C   UNL     1     -19.309  41.239  -7.679  0.00  0.00    +0.000 C 
ATOM     17  C   UNL     1     -20.073  42.348  -7.020  0.00  0.00    +0.000 C 
ENDBRANCH  14  16
ENDBRANCH  12  14
ENDBRANCH   3  12
TORSDOF 4
ENDMDL
MODEL 3
REMARK VINA RESULT:    -5.463      2.403      5.035
REMARK INTER + INTRA:          -7.452
REMARK INTER:                  -7.063
REMARK INTRA:                  -0.388
REMARK UNBOUND:                -0.711
REMARK  Name = 87872956
REMARK  5 active torsions:
REMARK  status: ('A' for Active; 'I' for Inactive)
REMARK    1  A    between atoms: O_1  and  N_4
REMARK    2  A    between atoms: O_1  and  C_13
REMARK    3  A    between atoms: N_4  and  C_8
REMARK    4  A    between atoms: C_7  and  C_11
REMARK    5  A    between atoms: C_13  and  C_14
REMARK                            x       y       z     vdW  Elec       q    Type
REMARK                         _______ _______ _______ _____ _____    ______ ____
ROOT
ATOM      1  N   UNL     1     -19.631  39.507 -11.093  0.00  0.00    +0.000 NA
ATOM      2  C   UNL     1     -18.295  41.518 -10.964  0.00  0.00    +0.000 A 
ATOM      3  C   UNL     1     -19.230  40.631 -10.457  0.00  0.00    +0.000 A 
ATOM      4  C   UNL     1     -17.734  41.234 -12.205  0.00  0.00    +0.000 A 
ATOM      5  C   UNL     1     -18.122  40.088 -12.891  0.00  0.00    +0.000 A 
ATOM      6  C   UNL     1     -19.065  39.264 -12.297  0.00  0.00    +0.000 A 
ENDROOT
BRANCH   2   9
ATOM      7  O   UNL     1     -17.788  42.737  -9.014  0.00  0.00    +0.000 OA
ATOM      8  N   UNL     1     -17.571  43.844 -11.011  0.00  0.00    +0.000 N 
ATOM      9  C   UNL     1     -17.880  42.719 -10.252  0.00  0.00    +0.000 C 
ATOM     10  H   UNL     1     -17.633  43.845 -12.023  0.00  0.00    +0.000 HD
ATOM     11  H   UNL     1     -17.270  44.706 -10.567  0.00  0.00    +0.000 HD
ENDBRANCH   2   9
BRANCH   3  12
ATOM     12  N   UNL     1     -19.803  40.911  -9.190  0.00  0.00    +0.000 N 
ATOM     13  H   UNL     1     -19.820  41.886  -8.908  0.00  0.00    +0.000 HD
BRANCH  12  14
ATOM     14  O   UNL     1     -20.823  40.154  -8.666  0.00  0.00    +0.000 OA
BRANCH  14  16
ATOM     15  O   UNL     1     -22.859  40.758  -7.748  0.00  0.00    +0.000 OA
ATOM     16  C   UNL     1     -21.652  40.904  -7.883  0.00  0.00    +0.000 C 
ATOM     17  C   UNL     1     -20.853  41.969  -7.193  0.00  0.00    +0.000 C 
ENDBRANCH  14  16
ENDBRANCH  12  14
ENDBRANCH   3  12
TORSDOF 4
ENDMDL
MODEL 4
REMARK VINA RESULT:    -5.338      3.125      4.644
REMARK INTER + INTRA:          -7.297
REMARK INTER:                  -6.853
REMARK INTRA:                  -0.444
REMARK UNBOUND:                -0.711
REMARK  Name = 87872956
REMARK  5 active torsions:
REMARK  status: ('A' for Active; 'I' for Inactive)
REMARK    1  A    between atoms: O_1  and  N_4
REMARK    2  A    between atoms: O_1  and  C_13
REMARK    3  A    between atoms: N_4  and  C_8
REMARK    4  A    between atoms: C_7  and  C_11
REMARK    5  A    between atoms: C_13  and  C_14
REMARK                            x       y       z     vdW  Elec       q    Type
REMARK                         _______ _______ _______ _____ _____    ______ ____
ROOT
ATOM      1  N   UNL     1     -19.303  40.375 -13.132  0.00  0.00    +0.000 NA
ATOM      2  C   UNL     1     -17.545  41.815 -12.311  0.00  0.00    +0.000 A 
ATOM      3  C   UNL     1     -18.547  41.493 -13.211  0.00  0.00    +0.000 A 
ATOM      4  C   UNL     1     -17.301  40.934 -11.263  0.00  0.00    +0.000 A 
ATOM      5  C   UNL     1     -18.058  39.773 -11.150  0.00  0.00    +0.000 A 
ATOM      6  C   UNL     1     -19.039  39.542 -12.101  0.00  0.00    +0.000 A 
ENDROOT
BRANCH   2   9
ATOM      7  O   UNL     1     -17.238  44.147 -12.182  0.00  0.00    +0.000 OA
ATOM      8  N   UNL     1     -15.413  42.896 -12.783  0.00  0.00    +0.000 N 
ATOM      9  C   UNL     1     -16.749  43.031 -12.420  0.00  0.00    +0.000 C 
ATOM     10  H   UNL     1     -14.995  41.992 -12.975  0.00  0.00    +0.000 HD
ATOM     11  H   UNL     1     -14.811  43.709 -12.868  0.00  0.00    +0.000 HD
ENDBRANCH   2   9
BRANCH   3  12
ATOM     12  N   UNL     1     -18.804  42.389 -14.280  0.00  0.00    +0.000 N 
ATOM     13  H   UNL     1     -18.052  42.522 -14.948  0.00  0.00    +0.000 HD
BRANCH  12  14
ATOM     14  O   UNL     1     -20.062  42.558 -14.805  0.00  0.00    +0.000 OA
BRANCH  14  16
ATOM     15  O   UNL     1     -20.211  42.240 -17.092  0.00  0.00    +0.000 OA
ATOM     16  C   UNL     1     -20.010  42.946 -16.113  0.00  0.00    +0.000 C 
ATOM     17  C   UNL     1     -19.658  44.401 -16.186  0.00  0.00    +0.000 C 
ENDBRANCH  14  16
ENDBRANCH  12  14
ENDBRANCH   3  12
TORSDOF 4
ENDMDL
MODEL 5
REMARK VINA RESULT:    -5.309      3.247      4.449
REMARK INTER + INTRA:          -7.261
REMARK INTER:                  -6.744
REMARK INTRA:                  -0.517
REMARK UNBOUND:                -0.711
REMARK  Name = 87872956
REMARK  5 active torsions:
REMARK  status: ('A' for Active; 'I' for Inactive)
REMARK    1  A    between atoms: O_1  and  N_4
REMARK    2  A    between atoms: O_1  and  C_13
REMARK    3  A    between atoms: N_4  and  C_8
REMARK    4  A    between atoms: C_7  and  C_11
REMARK    5  A    between atoms: C_13  and  C_14
REMARK                            x       y       z     vdW  Elec       q    Type
REMARK                         _______ _______ _______ _____ _____    ______ ____
ROOT
ATOM      1  N   UNL     1     -17.876  43.974 -13.411  0.00  0.00    +0.000 NA
ATOM      2  C   UNL     1     -18.236  41.849 -12.317  0.00  0.00    +0.000 A 
ATOM      3  C   UNL     1     -18.337  42.703 -13.403  0.00  0.00    +0.000 A 
ATOM      4  C   UNL     1     -17.623  42.329 -11.164  0.00  0.00    +0.000 A 
ATOM      5  C   UNL     1     -17.138  43.632 -11.135  0.00  0.00    +0.000 A 
ATOM      6  C   UNL     1     -17.287  44.406 -12.274  0.00  0.00    +0.000 A 
ENDROOT
BRANCH   2   9
ATOM      7  O   UNL     1     -19.862  40.213 -12.795  0.00  0.00    +0.000 OA
ATOM      8  N   UNL     1     -17.907  39.480 -11.849  0.00  0.00    +0.000 N 
ATOM      9  C   UNL     1     -18.739  40.481 -12.339  0.00  0.00    +0.000 C 
ATOM     10  H   UNL     1     -16.983  39.680 -11.479  0.00  0.00    +0.000 HD
ATOM     11  H   UNL     1     -18.204  38.509 -11.846  0.00  0.00    +0.000 HD
ENDBRANCH   2   9
BRANCH   3  12
ATOM     12  N   UNL     1     -18.957  42.218 -14.582  0.00  0.00    +0.000 N 
ATOM     13  H   UNL     1     -18.789  41.244 -14.814  0.00  0.00    +0.000 HD
BRANCH  12  14
ATOM     14  O   UNL     1     -20.165  42.703 -15.025  0.00  0.00    +0.000 OA
BRANCH  14  16
ATOM     15  O   UNL     1     -20.358  42.198 -17.274  0.00  0.00    +0.000 OA
ATOM     16  C   UNL     1     -20.132  42.981 -16.361  0.00  0.00    +0.000 C 
ATOM     17  C   UNL     1     -19.766  44.421 -16.561  0.00  0.00    +0.000 C 
ENDBRANCH  14  16
ENDBRANCH  12  14
ENDBRANCH   3  12
TORSDOF 4
ENDMDL
