MODEL 1
REMARK VINA RESULT:    -5.749      0.000      0.000
REMARK INTER + INTRA:          -6.139
REMARK INTER:                  -6.085
REMARK INTRA:                  -0.054
REMARK UNBOUND:                -0.054
REMARK  Name = 88257803
REMARK  1 active torsions:
REMARK  status: ('A' for Active; 'I' for Inactive)
REMARK    1  A    between atoms: C_5  and  C_8
REMARK                            x       y       z     vdW  Elec       q    Type
REMARK                         _______ _______ _______ _____ _____    ______ ____
ROOT
ATOM      1  N   UNL     1     -22.716  41.254  -7.201  0.00  0.00    +0.000 NA
ATOM      2  C   UNL     1     -20.423  41.137  -7.959  0.00  0.00    +0.000 A 
ATOM      3  C   UNL     1     -20.014  41.890  -6.865  0.00  0.00    +0.000 A 
ATOM      4  C   UNL     1     -21.773  40.849  -8.081  0.00  0.00    +0.000 A 
ATOM      5  C   UNL     1     -20.955  42.325  -5.937  0.00  0.00    +0.000 A 
ATOM      6  C   UNL     1     -22.281  41.984  -6.149  0.00  0.00    +0.000 A 
ENDROOT
BRANCH   2  10
ATOM      7  I   UNL     1     -18.871  39.676 -11.814  0.00  0.00    +0.000 I 
ATOM      8  O   UNL     1     -18.259  40.566  -8.654  0.00  0.00    +0.000 OA
ATOM      9  N   UNL     1     -19.961  40.359 -10.216  0.00  0.00    +0.000 N 
ATOM     10  C   UNL     1     -19.465  40.667  -8.944  0.00  0.00    +0.000 C 
ATOM     11  H   UNL     1     -20.940  40.510 -10.438  0.00  0.00    +0.000 HD
ENDBRANCH   2  10
TORSDOF 1
ENDMDL
MODEL 2
REMARK VINA RESULT:    -5.429      1.875      2.299
REMARK INTER + INTRA:          -5.800
REMARK INTER:                  -5.745
REMARK INTRA:                  -0.055
REMARK UNBOUND:                -0.054
REMARK  Name = 88257803
REMARK  1 active torsions:
REMARK  status: ('A' for Active; 'I' for Inactive)
REMARK    1  A    between atoms: C_5  and  C_8
REMARK                            x       y       z     vdW  Elec       q    Type
REMARK                         _______ _______ _______ _____ _____    ______ ____
ROOT
ATOM      1  N   UNL     1     -19.619  42.335  -6.904  0.00  0.00    +0.000 NA
ATOM      2  C   UNL     1     -19.657  40.876  -8.832  0.00  0.00    +0.000 A 
ATOM      3  C   UNL     1     -21.014  40.644  -8.640  0.00  0.00    +0.000 A 
ATOM      4  C   UNL     1     -19.011  41.722  -7.944  0.00  0.00    +0.000 A 
ATOM      5  C   UNL     1     -21.675  41.257  -7.582  0.00  0.00    +0.000 A 
ATOM      6  C   UNL     1     -20.940  42.086  -6.750  0.00  0.00    +0.000 A 
ENDROOT
BRANCH   2  10
ATOM      7  I   UNL     1     -16.384  40.051 -11.663  0.00  0.00    +0.000 I 
ATOM      8  O   UNL     1     -19.460  39.329 -10.580  0.00  0.00    +0.000 OA
ATOM      9  N   UNL     1     -17.647  40.723 -10.192  0.00  0.00    +0.000 N 
ATOM     10  C   UNL     1     -18.938  40.251  -9.928  0.00  0.00    +0.000 C 
ATOM     11  H   UNL     1     -17.228  41.435  -9.603  0.00  0.00    +0.000 HD
ENDBRANCH   2  10
TORSDOF 1
ENDMDL
MODEL 3
REMARK VINA RESULT:    -5.276      2.948      4.837
REMARK INTER + INTRA:          -5.638
REMARK INTER:                  -5.558
REMARK INTRA:                  -0.079
REMARK UNBOUND:                -0.054
REMARK  Name = 88257803
REMARK  1 active torsions:
REMARK  status: ('A' for Active; 'I' for Inactive)
REMARK    1  A    between atoms: C_5  and  C_8
REMARK                            x       y       z     vdW  Elec       q    Type
REMARK                         _______ _______ _______ _____ _____    ______ ____
ROOT
ATOM      1  N   UNL     1     -17.141  40.704 -10.874  0.00  0.00    +0.000 NA
ATOM      2  C   UNL     1     -19.042  40.900  -9.394  0.00  0.00    +0.000 A 
ATOM      3  C   UNL     1     -19.711  39.914 -10.108  0.00  0.00    +0.000 A 
ATOM      4  C   UNL     1     -17.770  41.256  -9.813  0.00  0.00    +0.000 A 
ATOM      5  C   UNL     1     -19.097  39.321 -11.206  0.00  0.00    +0.000 A 
ATOM      6  C   UNL     1     -17.823  39.747 -11.545  0.00  0.00    +0.000 A 
ENDROOT
BRANCH   2  10
ATOM      7  I   UNL     1     -22.195  42.161  -6.588  0.00  0.00    +0.000 I 
ATOM      8  O   UNL     1     -18.962  42.169  -7.425  0.00  0.00    +0.000 OA
ATOM      9  N   UNL     1     -21.040  41.387  -8.097  0.00  0.00    +0.000 N 
ATOM     10  C   UNL     1     -19.656  41.537  -8.242  0.00  0.00    +0.000 C 
ATOM     11  H   UNL     1     -21.568  40.816  -8.749  0.00  0.00    +0.000 HD
ENDBRANCH   2  10
TORSDOF 1
ENDMDL
MODEL 4
REMARK VINA RESULT:    -4.590      2.741      3.473
REMARK INTER + INTRA:          -4.912
REMARK INTER:                  -4.860
REMARK INTRA:                  -0.052
REMARK UNBOUND:                -0.054
REMARK  Name = 88257803
REMARK  1 active torsions:
REMARK  status: ('A' for Active; 'I' for Inactive)
REMARK    1  A    between atoms: C_5  and  C_8
REMARK                            x       y       z     vdW  Elec       q    Type
REMARK                         _______ _______ _______ _____ _____    ______ ____
ROOT
ATOM      1  N   UNL     1     -19.228  42.045  -7.539  0.00  0.00    +0.000 NA
ATOM      2  C   UNL     1     -18.516  41.388  -9.754  0.00  0.00    +0.000 A 
ATOM      3  C   UNL     1     -19.437  40.347  -9.750  0.00  0.00    +0.000 A 
ATOM      4  C   UNL     1     -18.451  42.202  -8.634  0.00  0.00    +0.000 A 
ATOM      5  C   UNL     1     -20.254  40.154  -8.642  0.00  0.00    +0.000 A 
ATOM      6  C   UNL     1     -20.112  41.022  -7.572  0.00  0.00    +0.000 A 
ENDROOT
BRANCH   2  10
ATOM      7  I   UNL     1     -16.056  43.583 -12.675  0.00  0.00    +0.000 I 
ATOM      8  O   UNL     1     -17.265  40.663 -11.598  0.00  0.00    +0.000 OA
ATOM      9  N   UNL     1     -17.265  42.938 -11.148  0.00  0.00    +0.000 N 
ATOM     10  C   UNL     1     -17.649  41.616 -10.897  0.00  0.00    +0.000 C 
ATOM     11  H   UNL     1     -17.547  43.686 -10.522  0.00  0.00    +0.000 HD
ENDBRANCH   2  10
TORSDOF 1
ENDMDL
MODEL 5
REMARK VINA RESULT:    -4.365      5.433      6.185
REMARK INTER + INTRA:          -4.674
REMARK INTER:                  -4.616
REMARK INTRA:                  -0.058
REMARK UNBOUND:                -0.054
REMARK  Name = 88257803
REMARK  1 active torsions:
REMARK  status: ('A' for Active; 'I' for Inactive)
REMARK    1  A    between atoms: C_5  and  C_8
REMARK                            x       y       z     vdW  Elec       q    Type
REMARK                         _______ _______ _______ _____ _____    ______ ____
ROOT
ATOM      1  N   UNL     1     -16.851  40.496 -11.903  0.00  0.00    +0.000 NA
ATOM      2  C   UNL     1     -18.647  41.717 -12.966  0.00  0.00    +0.000 A 
ATOM      3  C   UNL     1     -19.584  40.919 -12.319  0.00  0.00    +0.000 A 
ATOM      4  C   UNL     1     -17.305  41.467 -12.727  0.00  0.00    +0.000 A 
ATOM      5  C   UNL     1     -19.156  39.910 -11.463  0.00  0.00    +0.000 A 
ATOM      6  C   UNL     1     -17.791  39.741 -11.291  0.00  0.00    +0.000 A 
ENDROOT
BRANCH   2  10
ATOM      7  I   UNL     1     -20.357  43.648 -16.537  0.00  0.00    +0.000 I 
ATOM      8  O   UNL     1     -18.896  43.972 -13.552  0.00  0.00    +0.000 OA
ATOM      9  N   UNL     1     -19.665  42.394 -15.068  0.00  0.00    +0.000 N 
ATOM     10  C   UNL     1     -19.063  42.779 -13.865  0.00  0.00    +0.000 C 
ATOM     11  H   UNL     1     -19.841  41.414 -15.266  0.00  0.00    +0.000 HD
ENDBRANCH   2  10
TORSDOF 1
ENDMDL
