MODEL 1
REMARK VINA RESULT:    -6.717      0.000      0.000
REMARK INTER + INTRA:          -9.242
REMARK INTER:                  -8.680
REMARK INTRA:                  -0.562
REMARK UNBOUND:                -0.562
REMARK  Name = 88386031
REMARK  7 active torsions:
REMARK  status: ('A' for Active; 'I' for Inactive)
REMARK    1  A    between atoms: N_2  and  C_7
REMARK    2  A    between atoms: C_5  and  C_6
REMARK    3  A    between atoms: C_5  and  C_8
REMARK    4  A    between atoms: C_6  and  C_10
REMARK    5  A    between atoms: C_7  and  C_9
REMARK    6  A    between atoms: C_11  and  C_15
REMARK    7  A    between atoms: C_12  and  C_13
REMARK                            x       y       z     vdW  Elec       q    Type
REMARK                         _______ _______ _______ _____ _____    ______ ____
ROOT
ATOM      1  O   UNL     1     -19.871  39.406  -9.913  0.00  0.00    +0.000 OA
ATOM      2  N   UNL     1     -18.119  40.904  -9.647  0.00  0.00    +0.000 N 
ATOM      3  C   UNL     1     -19.370  40.375  -9.348  0.00  0.00    +0.000 C 
ATOM      4  H   UNL     1     -17.797  41.748  -9.186  0.00  0.00    +0.000 HD
ENDROOT
BRANCH   3   7
ATOM      5  N   UNL     1     -20.142  42.551  -6.372  0.00  0.00    +0.000 NA
ATOM      6  N   UNL     1     -22.199  43.042  -5.275  0.00  0.00    +0.000 N 
ATOM      7  C   UNL     1     -20.137  41.068  -8.281  0.00  0.00    +0.000 A 
ATOM      8  C   UNL     1     -21.515  40.911  -8.173  0.00  0.00    +0.000 A 
ATOM      9  C   UNL     1     -19.504  41.892  -7.365  0.00  0.00    +0.000 A 
ATOM     10  C   UNL     1     -22.206  41.574  -7.164  0.00  0.00    +0.000 A 
ATOM     11  C   UNL     1     -21.480  42.374  -6.298  0.00  0.00    +0.000 A 
ATOM     12  H   UNL     1     -21.666  43.631  -4.647  0.00  0.00    +0.000 HD
ATOM     13  H   UNL     1     -23.170  43.277  -5.443  0.00  0.00    +0.000 HD
ENDBRANCH   3   7
BRANCH   2  14
ATOM     14  C   UNL     1     -17.270  40.360 -10.669  0.00  0.00    +0.000 C 
BRANCH  14  16
ATOM     15  C   UNL     1     -17.980  42.348 -12.006  0.00  0.00    +0.000 C 
ATOM     16  C   UNL     1     -17.524  41.087 -11.952  0.00  0.00    +0.000 C 
BRANCH  15  17
ATOM     17  C   UNL     1     -18.262  43.142 -13.204  0.00  0.00    +0.000 C 
ATOM     18  C   UNL     1     -19.057  42.604 -14.155  0.00  0.00    +0.000 C 
ATOM     19  C   UNL     1     -19.506  43.230 -15.437  0.00  0.00    +0.000 C 
BRANCH  17  20
ATOM     20  C   UNL     1     -17.629  44.511 -13.347  0.00  0.00    +0.000 C 
ATOM     21  C   UNL     1     -16.110  44.441 -13.451  0.00  0.00    +0.000 C 
ENDBRANCH  17  20
ENDBRANCH  15  17
ENDBRANCH  14  16
ENDBRANCH   2  14
TORSDOF 5
ENDMDL
MODEL 2
REMARK VINA RESULT:    -6.544      1.590      2.261
REMARK INTER + INTRA:          -9.018
REMARK INTER:                  -8.480
REMARK INTRA:                  -0.538
REMARK UNBOUND:                -0.562
REMARK  Name = 88386031
REMARK  7 active torsions:
REMARK  status: ('A' for Active; 'I' for Inactive)
REMARK    1  A    between atoms: N_2  and  C_7
REMARK    2  A    between atoms: C_5  and  C_6
REMARK    3  A    between atoms: C_5  and  C_8
REMARK    4  A    between atoms: C_6  and  C_10
REMARK    5  A    between atoms: C_7  and  C_9
REMARK    6  A    between atoms: C_11  and  C_15
REMARK    7  A    between atoms: C_12  and  C_13
REMARK                            x       y       z     vdW  Elec       q    Type
REMARK                         _______ _______ _______ _____ _____    ______ ____
ROOT
ATOM      1  O   UNL     1     -19.590  39.367 -10.374  0.00  0.00    +0.000 OA
ATOM      2  N   UNL     1     -17.720  40.645  -9.867  0.00  0.00    +0.000 N 
ATOM      3  C   UNL     1     -19.039  40.235  -9.701  0.00  0.00    +0.000 C 
ATOM      4  H   UNL     1     -17.351  41.415  -9.321  0.00  0.00    +0.000 HD
ENDROOT
BRANCH   3   7
ATOM      5  N   UNL     1     -21.939  41.328  -7.561  0.00  0.00    +0.000 NA
ATOM      6  N   UNL     1     -22.053  42.837  -5.720  0.00  0.00    +0.000 N 
ATOM      7  C   UNL     1     -19.814  40.933  -8.643  0.00  0.00    +0.000 A 
ATOM      8  C   UNL     1     -19.193  41.814  -7.764  0.00  0.00    +0.000 A 
ATOM      9  C   UNL     1     -21.176  40.726  -8.501  0.00  0.00    +0.000 A 
ATOM     10  C   UNL     1     -19.945  42.452  -6.784  0.00  0.00    +0.000 A 
ATOM     11  C   UNL     1     -21.302  42.178  -6.725  0.00  0.00    +0.000 A 
ATOM     12  H   UNL     1     -23.044  42.629  -5.677  0.00  0.00    +0.000 HD
ATOM     13  H   UNL     1     -21.583  43.107  -4.866  0.00  0.00    +0.000 HD
ENDBRANCH   3   7
BRANCH   2  14
ATOM     14  C   UNL     1     -16.852  40.083 -10.864  0.00  0.00    +0.000 C 
BRANCH  14  16
ATOM     15  C   UNL     1     -16.498  42.456 -11.561  0.00  0.00    +0.000 C 
ATOM     16  C   UNL     1     -16.071  41.184 -11.507  0.00  0.00    +0.000 C 
BRANCH  15  17
ATOM     17  C   UNL     1     -15.813  43.600 -12.167  0.00  0.00    +0.000 C 
ATOM     18  C   UNL     1     -16.306  44.103 -13.320  0.00  0.00    +0.000 C 
ATOM     19  C   UNL     1     -15.799  45.274 -14.101  0.00  0.00    +0.000 C 
BRANCH  17  20
ATOM     20  C   UNL     1     -14.567  44.150 -11.502  0.00  0.00    +0.000 C 
ATOM     21  C   UNL     1     -13.298  43.457 -11.983  0.00  0.00    +0.000 C 
ENDBRANCH  17  20
ENDBRANCH  15  17
ENDBRANCH  14  16
ENDBRANCH   2  14
TORSDOF 5
ENDMDL
MODEL 3
REMARK VINA RESULT:    -6.504      1.239      2.193
REMARK INTER + INTRA:          -8.966
REMARK INTER:                  -8.458
REMARK INTRA:                  -0.508
REMARK UNBOUND:                -0.562
REMARK  Name = 88386031
REMARK  7 active torsions:
REMARK  status: ('A' for Active; 'I' for Inactive)
REMARK    1  A    between atoms: N_2  and  C_7
REMARK    2  A    between atoms: C_5  and  C_6
REMARK    3  A    between atoms: C_5  and  C_8
REMARK    4  A    between atoms: C_6  and  C_10
REMARK    5  A    between atoms: C_7  and  C_9
REMARK    6  A    between atoms: C_11  and  C_15
REMARK    7  A    between atoms: C_12  and  C_13
REMARK                            x       y       z     vdW  Elec       q    Type
REMARK                         _______ _______ _______ _____ _____    ______ ____
ROOT
ATOM      1  O   UNL     1     -18.952  39.319 -10.861  0.00  0.00    +0.000 OA
ATOM      2  N   UNL     1     -17.964  41.390 -11.205  0.00  0.00    +0.000 N 
ATOM      3  C   UNL     1     -18.748  40.478 -10.507  0.00  0.00    +0.000 C 
ATOM      4  H   UNL     1     -17.895  42.352 -10.891  0.00  0.00    +0.000 HD
ENDROOT
BRANCH   3   7
ATOM      5  N   UNL     1     -19.251  42.349  -7.278  0.00  0.00    +0.000 NA
ATOM      6  N   UNL     1     -21.104  42.432  -5.781  0.00  0.00    +0.000 N 
ATOM      7  C   UNL     1     -19.390  40.980  -9.265  0.00  0.00    +0.000 A 
ATOM      8  C   UNL     1     -20.677  40.587  -8.915  0.00  0.00    +0.000 A 
ATOM      9  C   UNL     1     -18.726  41.855  -8.421  0.00  0.00    +0.000 A 
ATOM     10  C   UNL     1     -21.252  41.075  -7.746  0.00  0.00    +0.000 A 
ATOM     11  C   UNL     1     -20.504  41.945  -6.969  0.00  0.00    +0.000 A 
ATOM     12  H   UNL     1     -20.556  43.073  -5.219  0.00  0.00    +0.000 HD
ATOM     13  H   UNL     1     -22.113  42.507  -5.746  0.00  0.00    +0.000 HD
ENDBRANCH   3   7
BRANCH   2  14
ATOM     14  C   UNL     1     -17.299  41.062 -12.435  0.00  0.00    +0.000 C 
BRANCH  14  16
ATOM     15  C   UNL     1     -18.464  43.069 -13.362  0.00  0.00    +0.000 C 
ATOM     16  C   UNL     1     -17.431  42.212 -13.383  0.00  0.00    +0.000 C 
BRANCH  15  17
ATOM     17  C   UNL     1     -18.686  44.217 -14.244  0.00  0.00    +0.000 C 
ATOM     18  C   UNL     1     -18.183  45.415 -13.872  0.00  0.00    +0.000 C 
ATOM     19  C   UNL     1     -18.255  46.711 -14.616  0.00  0.00    +0.000 C 
BRANCH  17  20
ATOM     20  C   UNL     1     -19.492  44.028 -15.512  0.00  0.00    +0.000 C 
ATOM     21  C   UNL     1     -20.583  42.976 -15.355  0.00  0.00    +0.000 C 
ENDBRANCH  17  20
ENDBRANCH  15  17
ENDBRANCH  14  16
ENDBRANCH   2  14
TORSDOF 5
ENDMDL
MODEL 4
REMARK VINA RESULT:    -6.089      1.807      2.244
REMARK INTER + INTRA:          -8.431
REMARK INTER:                  -7.851
REMARK INTRA:                  -0.579
REMARK UNBOUND:                -0.562
REMARK  Name = 88386031
REMARK  7 active torsions:
REMARK  status: ('A' for Active; 'I' for Inactive)
REMARK    1  A    between atoms: N_2  and  C_7
REMARK    2  A    between atoms: C_5  and  C_6
REMARK    3  A    between atoms: C_5  and  C_8
REMARK    4  A    between atoms: C_6  and  C_10
REMARK    5  A    between atoms: C_7  and  C_9
REMARK    6  A    between atoms: C_11  and  C_15
REMARK    7  A    between atoms: C_12  and  C_13
REMARK                            x       y       z     vdW  Elec       q    Type
REMARK                         _______ _______ _______ _____ _____    ______ ____
ROOT
ATOM      1  O   UNL     1     -18.912  40.098 -11.283  0.00  0.00    +0.000 OA
ATOM      2  N   UNL     1     -17.162  41.363 -10.434  0.00  0.00    +0.000 N 
ATOM      3  C   UNL     1     -18.436  40.805 -10.399  0.00  0.00    +0.000 C 
ATOM      4  H   UNL     1     -16.860  41.994  -9.700  0.00  0.00    +0.000 HD
ENDROOT
BRANCH   3   7
ATOM      5  N   UNL     1     -19.489  42.318  -7.114  0.00  0.00    +0.000 NA
ATOM      6  N   UNL     1     -21.495  42.088  -5.849  0.00  0.00    +0.000 N 
ATOM      7  C   UNL     1     -19.261  41.129  -9.207  0.00  0.00    +0.000 A 
ATOM      8  C   UNL     1     -20.531  40.585  -9.046  0.00  0.00    +0.000 A 
ATOM      9  C   UNL     1     -18.791  41.982  -8.222  0.00  0.00    +0.000 A 
ATOM     10  C   UNL     1     -21.280  40.907  -7.919  0.00  0.00    +0.000 A 
ATOM     11  C   UNL     1     -20.719  41.770  -6.991  0.00  0.00    +0.000 A 
ATOM     12  H   UNL     1     -21.083  42.723  -5.176  0.00  0.00    +0.000 HD
ATOM     13  H   UNL     1     -22.504  42.063  -5.929  0.00  0.00    +0.000 HD
ENDBRANCH   3   7
BRANCH   2  14
ATOM     14  C   UNL     1     -16.257  41.162 -11.530  0.00  0.00    +0.000 C 
BRANCH  14  16
ATOM     15  C   UNL     1     -16.349  43.645 -11.804  0.00  0.00    +0.000 C 
ATOM     16  C   UNL     1     -16.176  42.423 -12.333  0.00  0.00    +0.000 C 
BRANCH  15  17
ATOM     17  C   UNL     1     -16.293  44.932 -12.502  0.00  0.00    +0.000 C 
ATOM     18  C   UNL     1     -16.026  44.931 -13.826  0.00  0.00    +0.000 C 
ATOM     19  C   UNL     1     -15.948  46.106 -14.747  0.00  0.00    +0.000 C 
BRANCH  17  20
ATOM     20  C   UNL     1     -16.502  46.207 -11.711  0.00  0.00    +0.000 C 
ATOM     21  C   UNL     1     -17.978  46.536 -11.518  0.00  0.00    +0.000 C 
ENDBRANCH  17  20
ENDBRANCH  15  17
ENDBRANCH  14  16
ENDBRANCH   2  14
TORSDOF 5
ENDMDL
MODEL 5
REMARK VINA RESULT:    -5.677      3.992      7.531
REMARK INTER + INTRA:          -7.898
REMARK INTER:                  -7.274
REMARK INTRA:                  -0.623
REMARK UNBOUND:                -0.562
REMARK  Name = 88386031
REMARK  7 active torsions:
REMARK  status: ('A' for Active; 'I' for Inactive)
REMARK    1  A    between atoms: N_2  and  C_7
REMARK    2  A    between atoms: C_5  and  C_6
REMARK    3  A    between atoms: C_5  and  C_8
REMARK    4  A    between atoms: C_6  and  C_10
REMARK    5  A    between atoms: C_7  and  C_9
REMARK    6  A    between atoms: C_11  and  C_15
REMARK    7  A    between atoms: C_12  and  C_13
REMARK                            x       y       z     vdW  Elec       q    Type
REMARK                         _______ _______ _______ _____ _____    ______ ____
ROOT
ATOM      1  O   UNL     1     -18.126  45.756 -13.283  0.00  0.00    +0.000 OA
ATOM      2  N   UNL     1     -17.276  43.614 -13.554  0.00  0.00    +0.000 N 
ATOM      3  C   UNL     1     -18.087  44.692 -13.894  0.00  0.00    +0.000 C 
ATOM      4  H   UNL     1     -17.346  42.740 -14.063  0.00  0.00    +0.000 HD
ENDROOT
BRANCH   3   7
ATOM      5  N   UNL     1     -19.908  45.374 -17.119  0.00  0.00    +0.000 NA
ATOM      6  N   UNL     1     -21.430  44.041 -18.378  0.00  0.00    +0.000 N 
ATOM      7  C   UNL     1     -18.976  44.498 -15.069  0.00  0.00    +0.000 A 
ATOM      8  C   UNL     1     -19.689  43.316 -15.240  0.00  0.00    +0.000 A 
ATOM      9  C   UNL     1     -19.118  45.487 -16.028  0.00  0.00    +0.000 A 
ATOM     10  C   UNL     1     -20.513  43.164 -16.350  0.00  0.00    +0.000 A 
ATOM     11  C   UNL     1     -20.587  44.213 -17.252  0.00  0.00    +0.000 A 
ATOM     12  H   UNL     1     -21.477  44.808 -19.038  0.00  0.00    +0.000 HD
ATOM     13  H   UNL     1     -21.590  43.103 -18.723  0.00  0.00    +0.000 HD
ENDBRANCH   3   7
BRANCH   2  14
ATOM     14  C   UNL     1     -16.382  43.640 -12.430  0.00  0.00    +0.000 C 
BRANCH  14  16
ATOM     15  C   UNL     1     -17.882  41.895 -11.455  0.00  0.00    +0.000 C 
ATOM     16  C   UNL     1     -17.012  42.903 -11.290  0.00  0.00    +0.000 C 
BRANCH  15  17
ATOM     17  C   UNL     1     -18.552  41.117 -10.411  0.00  0.00    +0.000 C 
ATOM     18  C   UNL     1     -18.585  41.623  -9.158  0.00  0.00    +0.000 C 
ATOM     19  C   UNL     1     -19.231  41.031  -7.947  0.00  0.00    +0.000 C 
BRANCH  17  20
ATOM     20  C   UNL     1     -19.148  39.769 -10.763  0.00  0.00    +0.000 C 
ATOM     21  C   UNL     1     -19.171  39.519 -12.266  0.00  0.00    +0.000 C 
ENDBRANCH  17  20
ENDBRANCH  15  17
ENDBRANCH  14  16
ENDBRANCH   2  14
TORSDOF 5
ENDMDL
