MODEL 1
REMARK VINA RESULT:    -6.183      0.000      0.000
REMARK INTER + INTRA:          -7.960
REMARK INTER:                  -7.448
REMARK INTRA:                  -0.512
REMARK UNBOUND:                -0.512
REMARK  Name = 88687856
REMARK  6 active torsions:
REMARK  status: ('A' for Active; 'I' for Inactive)
REMARK    1  A    between atoms: N_2  and  C_7
REMARK    2  A    between atoms: N_3  and  C_7
REMARK    3  A    between atoms: C_5  and  C_6
REMARK    4  A    between atoms: C_5  and  C_8
REMARK    5  A    between atoms: C_6  and  C_9
REMARK    6  A    between atoms: C_10  and  C_11
REMARK                            x       y       z     vdW  Elec       q    Type
REMARK                         _______ _______ _______ _____ _____    ______ ____
ROOT
ATOM      1  O   UNL     1     -18.246  39.777 -10.306  0.00  0.00    +0.000 OA
ATOM      2  N   UNL     1     -17.610  42.017 -10.078  0.00  0.00    +0.000 N 
ATOM      3  C   UNL     1     -18.379  40.889  -9.805  0.00  0.00    +0.000 C 
ATOM      4  H   UNL     1     -17.799  42.855  -9.541  0.00  0.00    +0.000 HD
ENDROOT
BRANCH   3   6
ATOM      5  N   UNL     1     -21.745  40.633  -8.133  0.00  0.00    +0.000 NA
ATOM      6  C   UNL     1     -19.474  41.096  -8.823  0.00  0.00    +0.000 A 
ATOM      7  C   UNL     1     -19.293  41.905  -7.706  0.00  0.00    +0.000 A 
ATOM      8  C   UNL     1     -20.709  40.487  -8.989  0.00  0.00    +0.000 A 
ATOM      9  C   UNL     1     -20.336  42.079  -6.803  0.00  0.00    +0.000 A 
ATOM     10  C   UNL     1     -21.532  41.427  -7.060  0.00  0.00    +0.000 A 
ENDBRANCH   3   6
BRANCH   2  12
ATOM     11  C   UNL     1     -16.382  43.235 -11.694  0.00  0.00    +0.000 C 
ATOM     12  C   UNL     1     -16.542  42.085 -10.975  0.00  0.00    +0.000 C 
ATOM     13  C   UNL     1     -17.302  44.432 -11.578  0.00  0.00    +0.000 C 
BRANCH  12  14
ATOM     14  N   UNL     1     -15.681  41.021 -11.112  0.00  0.00    +0.000 N 
ATOM     15  H   UNL     1     -15.100  40.716 -10.342  0.00  0.00    +0.000 HD
ATOM     16  H   UNL     1     -15.596  40.563 -12.009  0.00  0.00    +0.000 HD
ENDBRANCH  12  14
BRANCH  11  17
ATOM     17  C   UNL     1     -15.253  43.481 -12.687  0.00  0.00    +0.000 C 
ATOM     18  C   UNL     1     -14.010  44.053 -12.019  0.00  0.00    +0.000 C 
ENDBRANCH  11  17
ENDBRANCH   2  12
TORSDOF 4
ENDMDL
MODEL 2
REMARK VINA RESULT:    -5.361      3.388      6.571
REMARK INTER + INTRA:          -6.970
REMARK INTER:                  -6.441
REMARK INTRA:                  -0.529
REMARK UNBOUND:                -0.512
REMARK  Name = 88687856
REMARK  6 active torsions:
REMARK  status: ('A' for Active; 'I' for Inactive)
REMARK    1  A    between atoms: N_2  and  C_7
REMARK    2  A    between atoms: N_3  and  C_7
REMARK    3  A    between atoms: C_5  and  C_6
REMARK    4  A    between atoms: C_5  and  C_8
REMARK    5  A    between atoms: C_6  and  C_9
REMARK    6  A    between atoms: C_10  and  C_11
REMARK                            x       y       z     vdW  Elec       q    Type
REMARK                         _______ _______ _______ _____ _____    ______ ____
ROOT
ATOM      1  O   UNL     1     -20.243  42.594 -14.299  0.00  0.00    +0.000 OA
ATOM      2  N   UNL     1     -18.729  42.380 -12.527  0.00  0.00    +0.000 N 
ATOM      3  C   UNL     1     -19.251  42.964 -13.678  0.00  0.00    +0.000 C 
ATOM      4  H   UNL     1     -17.936  42.832 -12.089  0.00  0.00    +0.000 HD
ENDROOT
BRANCH   3   6
ATOM      5  N   UNL     1     -18.303  45.931 -15.797  0.00  0.00    +0.000 NA
ATOM      6  C   UNL     1     -18.492  44.133 -14.191  0.00  0.00    +0.000 A 
ATOM      7  C   UNL     1     -17.305  44.537 -13.590  0.00  0.00    +0.000 A 
ATOM      8  C   UNL     1     -18.945  44.858 -15.282  0.00  0.00    +0.000 A 
ATOM      9  C   UNL     1     -16.616  45.637 -14.090  0.00  0.00    +0.000 A 
ATOM     10  C   UNL     1     -17.153  46.294 -15.186  0.00  0.00    +0.000 A 
ENDBRANCH   3   6
BRANCH   2  12
ATOM     11  C   UNL     1     -18.981  41.127 -10.535  0.00  0.00    +0.000 C 
ATOM     12  C   UNL     1     -19.246  41.262 -11.867  0.00  0.00    +0.000 C 
ATOM     13  C   UNL     1     -18.154  42.114  -9.739  0.00  0.00    +0.000 C 
BRANCH  12  14
ATOM     14  N   UNL     1     -20.003  40.340 -12.552  0.00  0.00    +0.000 N 
ATOM     15  H   UNL     1     -20.837  40.617 -13.052  0.00  0.00    +0.000 HD
ATOM     16  H   UNL     1     -19.745  39.363 -12.519  0.00  0.00    +0.000 HD
ENDBRANCH  12  14
BRANCH  11  17
ATOM     17  C   UNL     1     -19.496  39.987  -9.665  0.00  0.00    +0.000 C 
ATOM     18  C   UNL     1     -20.608  40.433  -8.725  0.00  0.00    +0.000 C 
ENDBRANCH  11  17
ENDBRANCH   2  12
TORSDOF 4
ENDMDL
MODEL 3
REMARK VINA RESULT:    -5.280      5.918      7.492
REMARK INTER + INTRA:          -6.872
REMARK INTER:                  -6.362
REMARK INTRA:                  -0.510
REMARK UNBOUND:                -0.512
REMARK  Name = 88687856
REMARK  6 active torsions:
REMARK  status: ('A' for Active; 'I' for Inactive)
REMARK    1  A    between atoms: N_2  and  C_7
REMARK    2  A    between atoms: N_3  and  C_7
REMARK    3  A    between atoms: C_5  and  C_6
REMARK    4  A    between atoms: C_5  and  C_8
REMARK    5  A    between atoms: C_6  and  C_9
REMARK    6  A    between atoms: C_10  and  C_11
REMARK                            x       y       z     vdW  Elec       q    Type
REMARK                         _______ _______ _______ _____ _____    ______ ____
ROOT
ATOM      1  O   UNL     1     -19.987  42.307 -16.660  0.00  0.00    +0.000 OA
ATOM      2  N   UNL     1     -19.966  43.567 -14.688  0.00  0.00    +0.000 N 
ATOM      3  C   UNL     1     -20.351  43.271 -15.992  0.00  0.00    +0.000 C 
ATOM      4  H   UNL     1     -20.397  44.369 -14.242  0.00  0.00    +0.000 HD
ENDROOT
BRANCH   3   6
ATOM      5  N   UNL     1     -21.583  46.331 -17.813  0.00  0.00    +0.000 NA
ATOM      6  C   UNL     1     -21.276  44.252 -16.616  0.00  0.00    +0.000 A 
ATOM      7  C   UNL     1     -22.651  44.048 -16.606  0.00  0.00    +0.000 A 
ATOM      8  C   UNL     1     -20.796  45.400 -17.228  0.00  0.00    +0.000 A 
ATOM      9  C   UNL     1     -23.493  44.983 -17.198  0.00  0.00    +0.000 A 
ATOM     10  C   UNL     1     -22.914  46.097 -17.783  0.00  0.00    +0.000 A 
ENDBRANCH   3   6
BRANCH   2  12
ATOM     11  C   UNL     1     -18.047  43.464 -13.307  0.00  0.00    +0.000 C 
ATOM     12  C   UNL     1     -19.093  42.816 -13.899  0.00  0.00    +0.000 C 
ATOM     13  C   UNL     1     -17.779  44.946 -13.467  0.00  0.00    +0.000 C 
BRANCH  12  14
ATOM     14  N   UNL     1     -19.299  41.466 -13.726  0.00  0.00    +0.000 N 
ATOM     15  H   UNL     1     -20.233  41.087 -13.649  0.00  0.00    +0.000 HD
ATOM     16  H   UNL     1     -18.503  40.850 -13.632  0.00  0.00    +0.000 HD
ENDBRANCH  12  14
BRANCH  11  17
ATOM     17  C   UNL     1     -17.026  42.798 -12.392  0.00  0.00    +0.000 C 
ATOM     18  C   UNL     1     -17.393  42.934 -10.921  0.00  0.00    +0.000 C 
ENDBRANCH  11  17
ENDBRANCH   2  12
TORSDOF 4
ENDMDL
MODEL 4
REMARK VINA RESULT:    -5.257      5.076      6.463
REMARK INTER + INTRA:          -6.844
REMARK INTER:                  -6.364
REMARK INTRA:                  -0.480
REMARK UNBOUND:                -0.512
REMARK  Name = 88687856
REMARK  6 active torsions:
REMARK  status: ('A' for Active; 'I' for Inactive)
REMARK    1  A    between atoms: N_2  and  C_7
REMARK    2  A    between atoms: N_3  and  C_7
REMARK    3  A    between atoms: C_5  and  C_6
REMARK    4  A    between atoms: C_5  and  C_8
REMARK    5  A    between atoms: C_6  and  C_9
REMARK    6  A    between atoms: C_10  and  C_11
REMARK                            x       y       z     vdW  Elec       q    Type
REMARK                         _______ _______ _______ _____ _____    ______ ____
ROOT
ATOM      1  O   UNL     1     -18.653  44.325 -13.309  0.00  0.00    +0.000 OA
ATOM      2  N   UNL     1     -19.265  43.132 -15.227  0.00  0.00    +0.000 N 
ATOM      3  C   UNL     1     -18.836  43.270 -13.910  0.00  0.00    +0.000 C 
ATOM      4  H   UNL     1     -19.429  42.193 -15.571  0.00  0.00    +0.000 HD
ENDROOT
BRANCH   3   6
ATOM      5  N   UNL     1     -16.964  40.309 -12.522  0.00  0.00    +0.000 NA
ATOM      6  C   UNL     1     -18.561  41.995 -13.199  0.00  0.00    +0.000 A 
ATOM      7  C   UNL     1     -19.578  41.298 -12.556  0.00  0.00    +0.000 A 
ATOM      8  C   UNL     1     -17.282  41.463 -13.152  0.00  0.00    +0.000 A 
ATOM      9  C   UNL     1     -19.291  40.107 -11.898  0.00  0.00    +0.000 A 
ATOM     10  C   UNL     1     -17.980  39.660 -11.910  0.00  0.00    +0.000 A 
ENDBRANCH   3   6
BRANCH   2  12
ATOM     11  C   UNL     1     -20.844  44.267 -16.576  0.00  0.00    +0.000 C 
ATOM     12  C   UNL     1     -19.566  44.174 -16.106  0.00  0.00    +0.000 C 
ATOM     13  C   UNL     1     -21.947  43.298 -16.203  0.00  0.00    +0.000 C 
BRANCH  12  14
ATOM     14  N   UNL     1     -18.594  45.077 -16.472  0.00  0.00    +0.000 N 
ATOM     15  H   UNL     1     -17.915  44.853 -17.187  0.00  0.00    +0.000 HD
ATOM     16  H   UNL     1     -18.530  45.962 -15.987  0.00  0.00    +0.000 HD
ENDBRANCH  12  14
BRANCH  11  17
ATOM     17  C   UNL     1     -21.343  45.360 -17.512  0.00  0.00    +0.000 C 
ATOM     18  C   UNL     1     -22.853  45.537 -17.443  0.00  0.00    +0.000 C 
ENDBRANCH  11  17
ENDBRANCH   2  12
TORSDOF 4
ENDMDL
MODEL 5
REMARK VINA RESULT:    -5.237      1.810      2.333
REMARK INTER + INTRA:          -6.821
REMARK INTER:                  -6.330
REMARK INTRA:                  -0.491
REMARK UNBOUND:                -0.512
REMARK  Name = 88687856
REMARK  6 active torsions:
REMARK  status: ('A' for Active; 'I' for Inactive)
REMARK    1  A    between atoms: N_2  and  C_7
REMARK    2  A    between atoms: N_3  and  C_7
REMARK    3  A    between atoms: C_5  and  C_6
REMARK    4  A    between atoms: C_5  and  C_8
REMARK    5  A    between atoms: C_6  and  C_9
REMARK    6  A    between atoms: C_10  and  C_11
REMARK                            x       y       z     vdW  Elec       q    Type
REMARK                         _______ _______ _______ _____ _____    ______ ____
ROOT
ATOM      1  O   UNL     1     -17.495  40.731 -11.728  0.00  0.00    +0.000 OA
ATOM      2  N   UNL     1     -17.318  42.995 -11.163  0.00  0.00    +0.000 N 
ATOM      3  C   UNL     1     -17.748  41.682 -10.994  0.00  0.00    +0.000 C 
ATOM      4  H   UNL     1     -17.558  43.664 -10.440  0.00  0.00    +0.000 HD
ENDROOT
BRANCH   3   6
ATOM      5  N   UNL     1     -19.212  42.026  -7.540  0.00  0.00    +0.000 NA
ATOM      6  C   UNL     1     -18.615  41.449  -9.811  0.00  0.00    +0.000 A 
ATOM      7  C   UNL     1     -19.615  40.483  -9.835  0.00  0.00    +0.000 A 
ATOM      8  C   UNL     1     -18.457  42.188  -8.649  0.00  0.00    +0.000 A 
ATOM      9  C   UNL     1     -20.413  40.287  -8.713  0.00  0.00    +0.000 A 
ATOM     10  C   UNL     1     -20.173  41.078  -7.601  0.00  0.00    +0.000 A 
ENDBRANCH   3   6
BRANCH   2  12
ATOM     11  C   UNL     1     -16.729  44.744 -12.644  0.00  0.00    +0.000 C 
ATOM     12  C   UNL     1     -16.517  43.470 -12.204  0.00  0.00    +0.000 C 
ATOM     13  C   UNL     1     -17.788  45.665 -12.074  0.00  0.00    +0.000 C 
BRANCH  12  14
ATOM     14  N   UNL     1     -15.542  42.668 -12.751  0.00  0.00    +0.000 N 
ATOM     15  H   UNL     1     -15.046  42.946 -13.587  0.00  0.00    +0.000 HD
ATOM     16  H   UNL     1     -15.349  41.767 -12.335  0.00  0.00    +0.000 HD
ENDBRANCH  12  14
BRANCH  11  17
ATOM     17  C   UNL     1     -15.922  45.422 -13.745  0.00  0.00    +0.000 C 
ATOM     18  C   UNL     1     -16.810  46.027 -14.824  0.00  0.00    +0.000 C 
ENDBRANCH  11  17
ENDBRANCH   2  12
TORSDOF 4
ENDMDL
