MODEL 1
REMARK VINA RESULT:    -6.733      0.000      0.000
REMARK INTER + INTRA:          -6.733
REMARK INTER:                  -6.733
REMARK INTRA:                   0.000
REMARK UNBOUND:                 0.000
REMARK  Name = 88758244
REMARK  0 active torsions:
REMARK  status: ('A' for Active; 'I' for Inactive)
REMARK                            x       y       z     vdW  Elec       q    Type
REMARK                         _______ _______ _______ _____ _____    ______ ____
ROOT
ATOM      1 CL   UNL     1     -17.109  39.974 -13.142  0.00  0.00    +0.000 Cl
ATOM      2 CL   UNL     1     -15.874  42.649 -12.113  0.00  0.00    +0.000 Cl
ATOM      3  O   UNL     1     -19.180  38.913 -11.262  0.00  0.00    +0.000 OA
ATOM      4  N   UNL     1     -17.658  40.646 -11.639  0.00  0.00    +0.000 N 
ATOM      5  N   UNL     1     -17.434  42.424 -10.092  0.00  0.00    +0.000 NA
ATOM      6  N   UNL     1     -18.732  42.475  -8.159  0.00  0.00    +0.000 NA
ATOM      7  C   UNL     1     -19.038  40.624  -9.666  0.00  0.00    +0.000 A 
ATOM      8  C   UNL     1     -18.422  41.816  -9.302  0.00  0.00    +0.000 A 
ATOM      9  C   UNL     1     -18.645  39.966 -10.927  0.00  0.00    +0.000 A 
ATOM     10  C   UNL     1     -20.011  40.078  -8.831  0.00  0.00    +0.000 A 
ATOM     11  C   UNL     1     -17.094  41.841 -11.199  0.00  0.00    +0.000 A 
ATOM     12  C   UNL     1     -20.341  40.741  -7.655  0.00  0.00    +0.000 A 
ATOM     13  C   UNL     1     -19.679  41.923  -7.368  0.00  0.00    +0.000 A 
ENDROOT
TORSDOF 0
ENDMDL
MODEL 2
REMARK VINA RESULT:    -6.410      4.239      5.459
REMARK INTER + INTRA:          -6.410
REMARK INTER:                  -6.410
REMARK INTRA:                   0.000
REMARK UNBOUND:                 0.000
REMARK  Name = 88758244
REMARK  0 active torsions:
REMARK  status: ('A' for Active; 'I' for Inactive)
REMARK                            x       y       z     vdW  Elec       q    Type
REMARK                         _______ _______ _______ _____ _____    ______ ____
ROOT
ATOM      1 CL   UNL     1     -21.979  42.531  -5.621  0.00  0.00    +0.000 Cl
ATOM      2 CL   UNL     1     -23.715  40.452  -7.172  0.00  0.00    +0.000 Cl
ATOM      3  O   UNL     1     -19.227  42.756  -6.772  0.00  0.00    +0.000 OA
ATOM      4  N   UNL     1     -21.294  41.682  -6.971  0.00  0.00    +0.000 N 
ATOM      5  N   UNL     1     -21.669  40.074  -8.667  0.00  0.00    +0.000 NA
ATOM      6  N   UNL     1     -19.977  39.533 -10.173  0.00  0.00    +0.000 NA
ATOM      7  C   UNL     1     -19.492  41.180  -8.487  0.00  0.00    +0.000 A 
ATOM      8  C   UNL     1     -20.351  40.278  -9.106  0.00  0.00    +0.000 A 
ATOM      9  C   UNL     1     -19.974  41.956  -7.328  0.00  0.00    +0.000 A 
ATOM     10  C   UNL     1     -18.196  41.330  -8.978  0.00  0.00    +0.000 A 
ATOM     11  C   UNL     1     -22.086  40.759  -7.649  0.00  0.00    +0.000 A 
ATOM     12  C   UNL     1     -17.796  40.574 -10.072  0.00  0.00    +0.000 A 
ATOM     13  C   UNL     1     -18.714  39.699 -10.628  0.00  0.00    +0.000 A 
ENDROOT
TORSDOF 0
ENDMDL
MODEL 3
REMARK VINA RESULT:    -5.921      2.700      4.016
REMARK INTER + INTRA:          -5.921
REMARK INTER:                  -5.921
REMARK INTRA:                   0.000
REMARK UNBOUND:                 0.000
REMARK  Name = 88758244
REMARK  0 active torsions:
REMARK  status: ('A' for Active; 'I' for Inactive)
REMARK                            x       y       z     vdW  Elec       q    Type
REMARK                         _______ _______ _______ _____ _____    ______ ____
ROOT
ATOM      1 CL   UNL     1     -20.722  39.386  -8.649  0.00  0.00    +0.000 Cl
ATOM      2 CL   UNL     1     -19.650  41.895  -7.133  0.00  0.00    +0.000 Cl
ATOM      3  O   UNL     1     -19.433  39.078 -11.331  0.00  0.00    +0.000 OA
ATOM      4  N   UNL     1     -19.521  40.390  -9.399  0.00  0.00    +0.000 N 
ATOM      5  N   UNL     1     -18.162  42.315  -9.176  0.00  0.00    +0.000 NA
ATOM      6  N   UNL     1     -16.709  42.937 -10.886  0.00  0.00    +0.000 NA
ATOM      7  C   UNL     1     -18.045  40.963 -11.214  0.00  0.00    +0.000 A 
ATOM      8  C   UNL     1     -17.638  42.053 -10.451  0.00  0.00    +0.000 A 
ATOM      9  C   UNL     1     -19.064  40.044 -10.670  0.00  0.00    +0.000 A 
ATOM     10  C   UNL     1     -17.481  40.765 -12.472  0.00  0.00    +0.000 A 
ATOM     11  C   UNL     1     -19.056  41.504  -8.705  0.00  0.00    +0.000 A 
ATOM     12  C   UNL     1     -16.526  41.663 -12.934  0.00  0.00    +0.000 A 
ATOM     13  C   UNL     1     -16.178  42.721 -12.111  0.00  0.00    +0.000 A 
ENDROOT
TORSDOF 0
ENDMDL
MODEL 4
REMARK VINA RESULT:    -5.720      3.509      4.407
REMARK INTER + INTRA:          -5.720
REMARK INTER:                  -5.720
REMARK INTRA:                   0.000
REMARK UNBOUND:                 0.000
REMARK  Name = 88758244
REMARK  0 active torsions:
REMARK  status: ('A' for Active; 'I' for Inactive)
REMARK                            x       y       z     vdW  Elec       q    Type
REMARK                         _______ _______ _______ _____ _____    ______ ____
ROOT
ATOM      1 CL   UNL     1     -18.349  45.661 -13.715  0.00  0.00    +0.000 Cl
ATOM      2 CL   UNL     1     -19.820  43.786 -15.731  0.00  0.00    +0.000 Cl
ATOM      3  O   UNL     1     -17.523  44.198 -11.240  0.00  0.00    +0.000 OA
ATOM      4  N   UNL     1     -18.587  43.990 -13.311  0.00  0.00    +0.000 N 
ATOM      5  N   UNL     1     -19.472  41.912 -14.018  0.00  0.00    +0.000 NA
ATOM      6  N   UNL     1     -19.297  40.031 -12.656  0.00  0.00    +0.000 NA
ATOM      7  C   UNL     1     -18.364  42.095 -11.842  0.00  0.00    +0.000 A 
ATOM      8  C   UNL     1     -19.029  41.350 -12.811  0.00  0.00    +0.000 A 
ATOM      9  C   UNL     1     -18.109  43.528 -12.085  0.00  0.00    +0.000 A 
ATOM     10  C   UNL     1     -17.953  41.469 -10.667  0.00  0.00    +0.000 A 
ATOM     11  C   UNL     1     -19.245  43.171 -14.225  0.00  0.00    +0.000 A 
ATOM     12  C   UNL     1     -18.220  40.117 -10.492  0.00  0.00    +0.000 A 
ATOM     13  C   UNL     1     -18.887  39.450 -11.506  0.00  0.00    +0.000 A 
ENDROOT
TORSDOF 0
ENDMDL
MODEL 5
REMARK VINA RESULT:    -5.442      2.879      3.517
REMARK INTER + INTRA:          -5.442
REMARK INTER:                  -5.442
REMARK INTRA:                   0.000
REMARK UNBOUND:                 0.000
REMARK  Name = 88758244
REMARK  0 active torsions:
REMARK  status: ('A' for Active; 'I' for Inactive)
REMARK                            x       y       z     vdW  Elec       q    Type
REMARK                         _______ _______ _______ _____ _____    ______ ____
ROOT
ATOM      1 CL   UNL     1     -18.497  45.106 -14.508  0.00  0.00    +0.000 Cl
ATOM      2 CL   UNL     1     -17.100  45.850 -11.818  0.00  0.00    +0.000 Cl
ATOM      3  O   UNL     1     -19.489  42.284 -14.499  0.00  0.00    +0.000 OA
ATOM      4  N   UNL     1     -18.384  43.919 -13.247  0.00  0.00    +0.000 N 
ATOM      5  N   UNL     1     -17.621  43.460 -11.054  0.00  0.00    +0.000 NA
ATOM      6  N   UNL     1     -17.960  41.362 -10.103  0.00  0.00    +0.000 NA
ATOM      7  C   UNL     1     -18.775  41.724 -12.338  0.00  0.00    +0.000 A 
ATOM      8  C   UNL     1     -18.133  42.160 -11.183  0.00  0.00    +0.000 A 
ATOM      9  C   UNL     1     -18.925  42.655 -13.474  0.00  0.00    +0.000 A 
ATOM     10  C   UNL     1     -19.259  40.419 -12.395  0.00  0.00    +0.000 A 
ATOM     11  C   UNL     1     -17.756  44.272 -12.055  0.00  0.00    +0.000 A 
ATOM     12  C   UNL     1     -19.089  39.586 -11.296  0.00  0.00    +0.000 A 
ATOM     13  C   UNL     1     -18.440  40.100 -10.186  0.00  0.00    +0.000 A 
ENDROOT
TORSDOF 0
ENDMDL
