MODEL 1
REMARK VINA RESULT:    -6.801      0.000      0.000
REMARK INTER + INTRA:          -8.061
REMARK INTER:                  -7.596
REMARK INTRA:                  -0.465
REMARK UNBOUND:                -0.465
REMARK  Name = 88995807
REMARK  3 active torsions:
REMARK  status: ('A' for Active; 'I' for Inactive)
REMARK    1  A    between atoms: N_3  and  C_8
REMARK    2  A    between atoms: N_5  and  C_14
REMARK    3  A    between atoms: C_7  and  C_11
REMARK                            x       y       z     vdW  Elec       q    Type
REMARK                         _______ _______ _______ _____ _____    ______ ____
ROOT
ATOM      1  N   UNL     1     -18.478  42.229  -8.293  0.00  0.00    +0.000 NA
ATOM      2  C   UNL     1     -19.348  40.671  -9.924  0.00  0.00    +0.000 A 
ATOM      3  C   UNL     1     -18.392  41.563  -9.466  0.00  0.00    +0.000 A 
ATOM      4  C   UNL     1     -20.464  40.446  -9.126  0.00  0.00    +0.000 A 
ATOM      5  C   UNL     1     -20.589  41.113  -7.911  0.00  0.00    +0.000 A 
ATOM      6  C   UNL     1     -19.577  41.986  -7.544  0.00  0.00    +0.000 A 
ENDROOT
BRANCH   3   8
ATOM      7  O   UNL     1     -17.734  43.863 -11.277  0.00  0.00    +0.000 OA
ATOM      8  N   UNL     1     -17.261  41.798 -10.262  0.00  0.00    +0.000 N 
ATOM      9  N   UNL     1     -15.755  42.754 -11.722  0.00  0.00    +0.000 N 
ATOM     10  C   UNL     1     -16.998  42.897 -11.097  0.00  0.00    +0.000 C 
ATOM     11  C   UNL     1     -15.217  43.733 -12.640  0.00  0.00    +0.000 C 
ATOM     12  H   UNL     1     -16.534  41.088 -10.237  0.00  0.00    +0.000 HD
ATOM     13  H   UNL     1     -15.220  41.907 -11.561  0.00  0.00    +0.000 HD
ENDBRANCH   3   8
BRANCH   2  16
ATOM     14  O   UNL     1     -18.493  38.976 -11.318  0.00  0.00    +0.000 OA
ATOM     15  N   UNL     1     -19.982  40.440 -12.265  0.00  0.00    +0.000 N 
ATOM     16  C   UNL     1     -19.228  39.970 -11.195  0.00  0.00    +0.000 C 
ATOM     17  H   UNL     1     -20.594  41.246 -12.181  0.00  0.00    +0.000 HD
ATOM     18  H   UNL     1     -19.941  39.986 -13.172  0.00  0.00    +0.000 HD
ENDBRANCH   2  16
TORSDOF 2
ENDMDL
MODEL 2
REMARK VINA RESULT:    -5.737      2.990      4.492
REMARK INTER + INTRA:          -6.872
REMARK INTER:                  -6.559
REMARK INTRA:                  -0.313
REMARK UNBOUND:                -0.465
REMARK  Name = 88995807
REMARK  3 active torsions:
REMARK  status: ('A' for Active; 'I' for Inactive)
REMARK    1  A    between atoms: N_3  and  C_8
REMARK    2  A    between atoms: N_5  and  C_14
REMARK    3  A    between atoms: C_7  and  C_11
REMARK                            x       y       z     vdW  Elec       q    Type
REMARK                         _______ _______ _______ _____ _____    ______ ____
ROOT
ATOM      1  N   UNL     1     -19.075  40.424 -13.278  0.00  0.00    +0.000 NA
ATOM      2  C   UNL     1     -17.770  41.717 -11.707  0.00  0.00    +0.000 A 
ATOM      3  C   UNL     1     -18.380  41.532 -12.937  0.00  0.00    +0.000 A 
ATOM      4  C   UNL     1     -17.880  40.699 -10.765  0.00  0.00    +0.000 A 
ATOM      5  C   UNL     1     -18.587  39.543 -11.080  0.00  0.00    +0.000 A 
ATOM      6  C   UNL     1     -19.161  39.456 -12.338  0.00  0.00    +0.000 A 
ENDROOT
BRANCH   3   8
ATOM      7  O   UNL     1     -20.472  42.751 -14.709  0.00  0.00    +0.000 OA
ATOM      8  N   UNL     1     -18.277  42.551 -13.894  0.00  0.00    +0.000 N 
ATOM      9  N   UNL     1     -18.781  44.095 -15.531  0.00  0.00    +0.000 N 
ATOM     10  C   UNL     1     -19.292  43.090 -14.703  0.00  0.00    +0.000 C 
ATOM     11  C   UNL     1     -19.595  44.830 -16.473  0.00  0.00    +0.000 C 
ATOM     12  H   UNL     1     -17.355  42.958 -14.027  0.00  0.00    +0.000 HD
ATOM     13  H   UNL     1     -17.786  44.292 -15.504  0.00  0.00    +0.000 HD
ENDBRANCH   3   8
BRANCH   2  16
ATOM     14  O   UNL     1     -17.564  44.041 -11.391  0.00  0.00    +0.000 OA
ATOM     15  N   UNL     1     -15.692  42.775 -11.000  0.00  0.00    +0.000 N 
ATOM     16  C   UNL     1     -17.026  42.922 -11.369  0.00  0.00    +0.000 C 
ATOM     17  H   UNL     1     -15.238  41.868 -10.969  0.00  0.00    +0.000 HD
ATOM     18  H   UNL     1     -15.128  43.581 -10.749  0.00  0.00    +0.000 HD
ENDBRANCH   2  16
TORSDOF 2
ENDMDL
MODEL 3
REMARK VINA RESULT:    -5.724      1.800      4.831
REMARK INTER + INTRA:          -6.858
REMARK INTER:                  -6.682
REMARK INTRA:                  -0.176
REMARK UNBOUND:                -0.465
REMARK  Name = 88995807
REMARK  3 active torsions:
REMARK  status: ('A' for Active; 'I' for Inactive)
REMARK    1  A    between atoms: N_3  and  C_8
REMARK    2  A    between atoms: N_5  and  C_14
REMARK    3  A    between atoms: C_7  and  C_11
REMARK                            x       y       z     vdW  Elec       q    Type
REMARK                         _______ _______ _______ _____ _____    ______ ____
ROOT
ATOM      1  N   UNL     1     -19.369  39.630 -10.668  0.00  0.00    +0.000 NA
ATOM      2  C   UNL     1     -17.807  41.394 -11.210  0.00  0.00    +0.000 A 
ATOM      3  C   UNL     1     -18.674  40.744 -10.347  0.00  0.00    +0.000 A 
ATOM      4  C   UNL     1     -17.642  40.866 -12.486  0.00  0.00    +0.000 A 
ATOM      5  C   UNL     1     -18.341  39.721 -12.855  0.00  0.00    +0.000 A 
ATOM      6  C   UNL     1     -19.184  39.147 -11.917  0.00  0.00    +0.000 A 
ENDROOT
BRANCH   3   8
ATOM      7  O   UNL     1     -21.078  40.722  -8.552  0.00  0.00    +0.000 OA
ATOM      8  N   UNL     1     -18.848  41.265  -9.056  0.00  0.00    +0.000 N 
ATOM      9  N   UNL     1     -19.767  41.862  -7.027  0.00  0.00    +0.000 N 
ATOM     10  C   UNL     1     -20.001  41.229  -8.252  0.00  0.00    +0.000 C 
ATOM     11  C   UNL     1     -20.773  41.978  -5.995  0.00  0.00    +0.000 C 
ATOM     12  H   UNL     1     -18.045  41.729  -8.642  0.00  0.00    +0.000 HD
ATOM     13  H   UNL     1     -18.865  42.298  -6.866  0.00  0.00    +0.000 HD
ENDBRANCH   3   8
BRANCH   2  16
ATOM     14  O   UNL     1     -17.662  43.642 -10.522  0.00  0.00    +0.000 OA
ATOM     15  N   UNL     1     -15.683  42.522 -10.820  0.00  0.00    +0.000 N 
ATOM     16  C   UNL     1     -17.072  42.594 -10.834  0.00  0.00    +0.000 C 
ATOM     17  H   UNL     1     -15.184  41.672 -11.064  0.00  0.00    +0.000 HD
ATOM     18  H   UNL     1     -15.122  43.327 -10.560  0.00  0.00    +0.000 HD
ENDBRANCH   2  16
TORSDOF 2
ENDMDL
MODEL 4
REMARK VINA RESULT:    -5.594      3.309      4.206
REMARK INTER + INTRA:          -6.713
REMARK INTER:                  -6.273
REMARK INTRA:                  -0.440
REMARK UNBOUND:                -0.465
REMARK  Name = 88995807
REMARK  3 active torsions:
REMARK  status: ('A' for Active; 'I' for Inactive)
REMARK    1  A    between atoms: N_3  and  C_8
REMARK    2  A    between atoms: N_5  and  C_14
REMARK    3  A    between atoms: C_7  and  C_11
REMARK                            x       y       z     vdW  Elec       q    Type
REMARK                         _______ _______ _______ _____ _____    ______ ____
ROOT
ATOM      1  N   UNL     1     -17.805  43.945 -12.415  0.00  0.00    +0.000 NA
ATOM      2  C   UNL     1     -18.314  41.589 -12.226  0.00  0.00    +0.000 A 
ATOM      3  C   UNL     1     -18.178  42.761 -12.951  0.00  0.00    +0.000 A 
ATOM      4  C   UNL     1     -18.048  41.633 -10.861  0.00  0.00    +0.000 A 
ATOM      5  C   UNL     1     -17.662  42.832 -10.273  0.00  0.00    +0.000 A 
ATOM      6  C   UNL     1     -17.555  43.949 -11.087  0.00  0.00    +0.000 A 
ENDROOT
BRANCH   3   8
ATOM      7  O   UNL     1     -20.786  42.878 -14.432  0.00  0.00    +0.000 OA
ATOM      8  N   UNL     1     -18.443  42.730 -14.328  0.00  0.00    +0.000 N 
ATOM      9  N   UNL     1     -19.525  42.728 -16.364  0.00  0.00    +0.000 N 
ATOM     10  C   UNL     1     -19.688  42.788 -14.976  0.00  0.00    +0.000 C 
ATOM     11  C   UNL     1     -20.634  42.769 -17.291  0.00  0.00    +0.000 C 
ATOM     12  H   UNL     1     -17.637  42.656 -14.943  0.00  0.00    +0.000 HD
ATOM     13  H   UNL     1     -18.591  42.610 -16.742  0.00  0.00    +0.000 HD
ENDBRANCH   3   8
BRANCH   2  16
ATOM     14  O   UNL     1     -17.974  39.717 -13.615  0.00  0.00    +0.000 OA
ATOM     15  N   UNL     1     -19.970  39.821 -12.490  0.00  0.00    +0.000 N 
ATOM     16  C   UNL     1     -18.720  40.329 -12.832  0.00  0.00    +0.000 C 
ATOM     17  H   UNL     1     -20.590  40.303 -11.847  0.00  0.00    +0.000 HD
ATOM     18  H   UNL     1     -20.301  38.944 -12.878  0.00  0.00    +0.000 HD
ENDBRANCH   2  16
TORSDOF 2
ENDMDL
MODEL 5
REMARK VINA RESULT:    -5.563      4.015      5.911
REMARK INTER + INTRA:          -6.678
REMARK INTER:                  -6.193
REMARK INTRA:                  -0.485
REMARK UNBOUND:                -0.465
REMARK  Name = 88995807
REMARK  3 active torsions:
REMARK  status: ('A' for Active; 'I' for Inactive)
REMARK    1  A    between atoms: N_3  and  C_8
REMARK    2  A    between atoms: N_5  and  C_14
REMARK    3  A    between atoms: C_7  and  C_11
REMARK                            x       y       z     vdW  Elec       q    Type
REMARK                         _______ _______ _______ _____ _____    ______ ____
ROOT
ATOM      1  N   UNL     1     -19.243  41.114 -13.456  0.00  0.00    +0.000 NA
ATOM      2  C   UNL     1     -17.887  43.112 -13.360  0.00  0.00    +0.000 A 
ATOM      3  C   UNL     1     -19.045  42.430 -13.693  0.00  0.00    +0.000 A 
ATOM      4  C   UNL     1     -16.865  42.399 -12.742  0.00  0.00    +0.000 A 
ATOM      5  C   UNL     1     -17.031  41.043 -12.482  0.00  0.00    +0.000 A 
ATOM      6  C   UNL     1     -18.229  40.453 -12.855  0.00  0.00    +0.000 A 
ENDROOT
BRANCH   3   8
ATOM      7  O   UNL     1     -19.997  42.381 -16.539  0.00  0.00    +0.000 OA
ATOM      8  N   UNL     1     -20.083  43.138 -14.316  0.00  0.00    +0.000 N 
ATOM      9  N   UNL     1     -21.569  43.944 -15.884  0.00  0.00    +0.000 N 
ATOM     10  C   UNL     1     -20.492  43.080 -15.659  0.00  0.00    +0.000 C 
ATOM     11  C   UNL     1     -22.202  44.095 -17.175  0.00  0.00    +0.000 C 
ATOM     12  H   UNL     1     -20.613  43.777 -13.728  0.00  0.00    +0.000 HD
ATOM     13  H   UNL     1     -21.898  44.525 -15.120  0.00  0.00    +0.000 HD
ENDBRANCH   3   8
BRANCH   2  16
ATOM     14  O   UNL     1     -18.520  45.377 -13.233  0.00  0.00    +0.000 OA
ATOM     15  N   UNL     1     -16.564  44.911 -14.335  0.00  0.00    +0.000 N 
ATOM     16  C   UNL     1     -17.702  44.531 -13.630  0.00  0.00    +0.000 C 
ATOM     17  H   UNL     1     -15.881  44.235 -14.662  0.00  0.00    +0.000 HD
ATOM     18  H   UNL     1     -16.382  45.888 -14.546  0.00  0.00    +0.000 HD
ENDBRANCH   2  16
TORSDOF 2
ENDMDL
