MODEL 1
REMARK VINA RESULT:    -7.304      0.000      0.000
REMARK INTER + INTRA:          -9.345
REMARK INTER:                  -9.012
REMARK INTRA:                  -0.333
REMARK UNBOUND:                -0.333
REMARK  Name = 89050714
REMARK  4 active torsions:
REMARK  status: ('A' for Active; 'I' for Inactive)
REMARK    1  A    between atoms: N_7  and  C_19
REMARK    2  A    between atoms: C_8  and  C_18
REMARK    3  A    between atoms: C_9  and  C_19
REMARK    4  A    between atoms: C_11  and  C_20
REMARK                            x       y       z     vdW  Elec       q    Type
REMARK                         _______ _______ _______ _____ _____    ______ ____
ROOT
ATOM      1  N   UNL     1     -16.796  40.085 -11.998  0.00  0.00    +0.000 NA
ATOM      2  C   UNL     1     -18.587  41.506 -12.783  0.00  0.00    +0.000 A 
ATOM      3  C   UNL     1     -18.560  40.770 -10.494  0.00  0.00    +0.000 A 
ATOM      4  C   UNL     1     -19.165  41.489 -11.519  0.00  0.00    +0.000 A 
ATOM      5  C   UNL     1     -17.387  40.091 -10.782  0.00  0.00    +0.000 A 
ATOM      6  C   UNL     1     -17.412  40.794 -12.969  0.00  0.00    +0.000 A 
ENDROOT
BRANCH   3   8
ATOM      7  O   UNL     1     -18.408  41.003  -8.183  0.00  0.00    +0.000 OA
ATOM      8  C   UNL     1     -19.138  40.732  -9.162  0.00  0.00    +0.000 C 
BRANCH   8  11
ATOM      9  S   UNL     1     -21.320  41.141  -7.887  0.00  0.00    +0.000 S 
ATOM     10  O   UNL     1     -22.730  40.669  -7.790  0.00  0.00    +0.000 OA
ATOM     11  N   UNL     1     -20.522  40.401  -8.935  0.00  0.00    +0.000 NA
ENDBRANCH   8  11
ENDBRANCH   3   8
BRANCH   2  12
ATOM     12  C   UNL     1     -19.184  42.236 -13.858  0.00  0.00    +0.000 C 
ATOM     13  C   UNL     1     -19.685  42.848 -14.763  0.00  0.00    +0.000 C 
BRANCH  13  16
ATOM     14  N   UNL     1     -20.056  45.236 -17.578  0.00  0.00    +0.000 NA
ATOM     15  N   UNL     1     -21.928  45.736 -18.967  0.00  0.00    +0.000 N 
ATOM     16  C   UNL     1     -20.281  43.576 -15.835  0.00  0.00    +0.000 A 
ATOM     17  C   UNL     1     -21.607  43.368 -16.194  0.00  0.00    +0.000 A 
ATOM     18  C   UNL     1     -22.159  44.091 -17.244  0.00  0.00    +0.000 A 
ATOM     19  C   UNL     1     -21.349  45.006 -17.899  0.00  0.00    +0.000 A 
ATOM     20  C   UNL     1     -19.554  44.514 -16.553  0.00  0.00    +0.000 A 
ATOM     21  H   UNL     1     -22.686  45.311 -19.486  0.00  0.00    +0.000 HD
ATOM     22  H   UNL     1     -21.330  46.399 -19.446  0.00  0.00    +0.000 HD
ENDBRANCH  13  16
ENDBRANCH   2  12
TORSDOF 4
ENDMDL
MODEL 2
REMARK VINA RESULT:    -5.950      5.191      8.904
REMARK INTER + INTRA:          -7.674
REMARK INTER:                  -7.311
REMARK INTRA:                  -0.363
REMARK UNBOUND:                -0.333
REMARK  Name = 89050714
REMARK  4 active torsions:
REMARK  status: ('A' for Active; 'I' for Inactive)
REMARK    1  A    between atoms: N_7  and  C_19
REMARK    2  A    between atoms: C_8  and  C_18
REMARK    3  A    between atoms: C_9  and  C_19
REMARK    4  A    between atoms: C_11  and  C_20
REMARK                            x       y       z     vdW  Elec       q    Type
REMARK                         _______ _______ _______ _____ _____    ______ ____
ROOT
ATOM      1  N   UNL     1     -21.380  43.461 -18.125  0.00  0.00    +0.000 NA
ATOM      2  C   UNL     1     -20.020  43.625 -16.132  0.00  0.00    +0.000 A 
ATOM      3  C   UNL     1     -19.776  45.255 -17.884  0.00  0.00    +0.000 A 
ATOM      4  C   UNL     1     -19.404  44.765 -16.637  0.00  0.00    +0.000 A 
ATOM      5  C   UNL     1     -20.760  44.572 -18.582  0.00  0.00    +0.000 A 
ATOM      6  C   UNL     1     -20.993  43.016 -16.908  0.00  0.00    +0.000 A 
ENDROOT
BRANCH   3   8
ATOM      7  O   UNL     1     -19.870  47.439 -18.681  0.00  0.00    +0.000 OA
ATOM      8  C   UNL     1     -19.153  46.443 -18.439  0.00  0.00    +0.000 C 
BRANCH   8  11
ATOM      9  S   UNL     1     -17.076  45.459 -19.567  0.00  0.00    +0.000 S 
ATOM     10  O   UNL     1     -15.614  45.690 -19.744  0.00  0.00    +0.000 OA
ATOM     11  N   UNL     1     -17.740  46.513 -18.712  0.00  0.00    +0.000 NA
ENDBRANCH   8  11
ENDBRANCH   3   8
BRANCH   2  12
ATOM     12  C   UNL     1     -19.660  43.097 -14.853  0.00  0.00    +0.000 C 
ATOM     13  C   UNL     1     -19.357  42.653 -13.778  0.00  0.00    +0.000 C 
BRANCH  13  16
ATOM     14  N   UNL     1     -19.279  40.406 -10.826  0.00  0.00    +0.000 NA
ATOM     15  N   UNL     1     -18.016  40.521  -8.808  0.00  0.00    +0.000 N 
ATOM     16  C   UNL     1     -18.999  42.125 -12.502  0.00  0.00    +0.000 A 
ATOM     17  C   UNL     1     -18.062  42.765 -11.700  0.00  0.00    +0.000 A 
ATOM     18  C   UNL     1     -17.732  42.228 -10.461  0.00  0.00    +0.000 A 
ATOM     19  C   UNL     1     -18.364  41.056 -10.073  0.00  0.00    +0.000 A 
ATOM     20  C   UNL     1     -19.573  40.959 -12.024  0.00  0.00    +0.000 A 
ATOM     21  H   UNL     1     -17.092  40.709  -8.443  0.00  0.00    +0.000 HD
ATOM     22  H   UNL     1     -18.476  39.662  -8.532  0.00  0.00    +0.000 HD
ENDBRANCH  13  16
ENDBRANCH   2  12
TORSDOF 4
ENDMDL
MODEL 3
REMARK VINA RESULT:    -5.945      4.440      6.798
REMARK INTER + INTRA:          -7.668
REMARK INTER:                  -7.363
REMARK INTRA:                  -0.305
REMARK UNBOUND:                -0.333
REMARK  Name = 89050714
REMARK  4 active torsions:
REMARK  status: ('A' for Active; 'I' for Inactive)
REMARK    1  A    between atoms: N_7  and  C_19
REMARK    2  A    between atoms: C_8  and  C_18
REMARK    3  A    between atoms: C_9  and  C_19
REMARK    4  A    between atoms: C_11  and  C_20
REMARK                            x       y       z     vdW  Elec       q    Type
REMARK                         _______ _______ _______ _____ _____    ______ ____
ROOT
ATOM      1  N   UNL     1     -18.937  41.260 -13.220  0.00  0.00    +0.000 NA
ATOM      2  C   UNL     1     -17.123  42.095 -11.857  0.00  0.00    +0.000 A 
ATOM      3  C   UNL     1     -19.013  41.034 -10.814  0.00  0.00    +0.000 A 
ATOM      4  C   UNL     1     -17.779  41.665 -10.708  0.00  0.00    +0.000 A 
ATOM      5  C   UNL     1     -19.544  40.856 -12.082  0.00  0.00    +0.000 A 
ATOM      6  C   UNL     1     -17.739  41.870 -13.077  0.00  0.00    +0.000 A 
ENDROOT
BRANCH   3   8
ATOM      7  O   UNL     1     -20.025  39.362  -9.549  0.00  0.00    +0.000 OA
ATOM      8  C   UNL     1     -19.724  40.574  -9.634  0.00  0.00    +0.000 C 
BRANCH   8  11
ATOM      9  S   UNL     1     -21.357  41.236  -7.777  0.00  0.00    +0.000 S 
ATOM     10  O   UNL     1     -21.569  42.250  -6.705  0.00  0.00    +0.000 OA
ATOM     11  N   UNL     1     -20.084  41.463  -8.559  0.00  0.00    +0.000 NA
ENDBRANCH   8  11
ENDBRANCH   3   8
BRANCH   2  12
ATOM     12  C   UNL     1     -15.853  42.747 -11.781  0.00  0.00    +0.000 C 
ATOM     13  C   UNL     1     -14.785  43.294 -11.716  0.00  0.00    +0.000 C 
BRANCH  13  16
ATOM     14  N   UNL     1     -11.106  43.773 -11.631  0.00  0.00    +0.000 NA
ATOM     15  N   UNL     1      -9.792  45.751 -11.427  0.00  0.00    +0.000 N 
ATOM     16  C   UNL     1     -13.518  43.944 -11.640  0.00  0.00    +0.000 A 
ATOM     17  C   UNL     1     -13.427  45.325 -11.507  0.00  0.00    +0.000 A 
ATOM     18  C   UNL     1     -12.179  45.931 -11.435  0.00  0.00    +0.000 A 
ATOM     19  C   UNL     1     -11.058  45.117 -11.502  0.00  0.00    +0.000 A 
ATOM     20  C   UNL     1     -12.338  43.220 -11.697  0.00  0.00    +0.000 A 
ATOM     21  H   UNL     1      -9.711  46.705 -11.755  0.00  0.00    +0.000 HD
ATOM     22  H   UNL     1      -8.977  45.153 -11.482  0.00  0.00    +0.000 HD
ENDBRANCH  13  16
ENDBRANCH   2  12
TORSDOF 4
ENDMDL
MODEL 4
REMARK VINA RESULT:    -5.769      5.286      5.976
REMARK INTER + INTRA:          -7.451
REMARK INTER:                  -7.185
REMARK INTRA:                  -0.267
REMARK UNBOUND:                -0.333
REMARK  Name = 89050714
REMARK  4 active torsions:
REMARK  status: ('A' for Active; 'I' for Inactive)
REMARK    1  A    between atoms: N_7  and  C_19
REMARK    2  A    between atoms: C_8  and  C_18
REMARK    3  A    between atoms: C_9  and  C_19
REMARK    4  A    between atoms: C_11  and  C_20
REMARK                            x       y       z     vdW  Elec       q    Type
REMARK                         _______ _______ _______ _____ _____    ______ ____
ROOT
ATOM      1  N   UNL     1     -18.990  42.257 -14.025  0.00  0.00    +0.000 NA
ATOM      2  C   UNL     1     -18.137  43.801 -12.371  0.00  0.00    +0.000 A 
ATOM      3  C   UNL     1     -18.059  41.434 -11.951  0.00  0.00    +0.000 A 
ATOM      4  C   UNL     1     -17.801  42.738 -11.540  0.00  0.00    +0.000 A 
ATOM      5  C   UNL     1     -18.649  41.250 -13.191  0.00  0.00    +0.000 A 
ATOM      6  C   UNL     1     -18.724  43.510 -13.592  0.00  0.00    +0.000 A 
ENDROOT
BRANCH   3   8
ATOM      7  O   UNL     1     -16.544  39.874 -11.121  0.00  0.00    +0.000 OA
ATOM      8  C   UNL     1     -17.720  40.302 -11.107  0.00  0.00    +0.000 C 
BRANCH   8  11
ATOM      9  S   UNL     1     -19.802  40.473  -9.627  0.00  0.00    +0.000 S 
ATOM     10  O   UNL     1     -20.709  39.651  -8.777  0.00  0.00    +0.000 OA
ATOM     11  N   UNL     1     -18.689  39.664 -10.253  0.00  0.00    +0.000 NA
ENDBRANCH   8  11
ENDBRANCH   3   8
BRANCH   2  12
ATOM     12  C   UNL     1     -17.885  45.153 -11.978  0.00  0.00    +0.000 C 
ATOM     13  C   UNL     1     -17.673  46.289 -11.649  0.00  0.00    +0.000 C 
BRANCH  13  16
ATOM     14  N   UNL     1     -18.291  49.778 -10.546  0.00  0.00    +0.000 NA
ATOM     15  N   UNL     1     -16.781  51.569 -10.108  0.00  0.00    +0.000 N 
ATOM     16  C   UNL     1     -17.421  47.638 -11.258  0.00  0.00    +0.000 A 
ATOM     17  C   UNL     1     -16.125  48.136 -11.198  0.00  0.00    +0.000 A 
ATOM     18  C   UNL     1     -15.910  49.454 -10.813  0.00  0.00    +0.000 A 
ATOM     19  C   UNL     1     -17.017  50.228 -10.499  0.00  0.00    +0.000 A 
ATOM     20  C   UNL     1     -18.460  48.491 -10.925  0.00  0.00    +0.000 A 
ATOM     21  H   UNL     1     -15.900  51.793  -9.664  0.00  0.00    +0.000 HD
ATOM     22  H   UNL     1     -17.593  52.128  -9.875  0.00  0.00    +0.000 HD
ENDBRANCH  13  16
ENDBRANCH   2  12
TORSDOF 4
ENDMDL
MODEL 5
REMARK VINA RESULT:    -5.743      4.778      5.817
REMARK INTER + INTRA:          -7.419
REMARK INTER:                  -7.098
REMARK INTRA:                  -0.322
REMARK UNBOUND:                -0.333
REMARK  Name = 89050714
REMARK  4 active torsions:
REMARK  status: ('A' for Active; 'I' for Inactive)
REMARK    1  A    between atoms: N_7  and  C_19
REMARK    2  A    between atoms: C_8  and  C_18
REMARK    3  A    between atoms: C_9  and  C_19
REMARK    4  A    between atoms: C_11  and  C_20
REMARK                            x       y       z     vdW  Elec       q    Type
REMARK                         _______ _______ _______ _____ _____    ______ ____
ROOT
ATOM      1  N   UNL     1     -18.768  41.223 -13.168  0.00  0.00    +0.000 NA
ATOM      2  C   UNL     1     -17.370  42.857 -12.063  0.00  0.00    +0.000 A 
ATOM      3  C   UNL     1     -18.616  41.267 -10.756  0.00  0.00    +0.000 A 
ATOM      4  C   UNL     1     -17.736  42.341 -10.824  0.00  0.00    +0.000 A 
ATOM      5  C   UNL     1     -19.100  40.749 -11.947  0.00  0.00    +0.000 A 
ATOM      6  C   UNL     1     -17.909  42.267 -13.195  0.00  0.00    +0.000 A 
ENDROOT
BRANCH   3   8
ATOM      7  O   UNL     1     -18.140  40.505  -8.609  0.00  0.00    +0.000 OA
ATOM      8  C   UNL     1     -19.017  40.706  -9.478  0.00  0.00    +0.000 C 
BRANCH   8  11
ATOM      9  S   UNL     1     -21.105  41.079  -8.043  0.00  0.00    +0.000 S 
ATOM     10  O   UNL     1     -22.514  40.621  -7.878  0.00  0.00    +0.000 OA
ATOM     11  N   UNL     1     -20.389  40.383  -9.178  0.00  0.00    +0.000 NA
ENDBRANCH   8  11
ENDBRANCH   3   8
BRANCH   2  12
ATOM     12  C   UNL     1     -16.467  43.960 -12.166  0.00  0.00    +0.000 C 
ATOM     13  C   UNL     1     -15.706  44.886 -12.252  0.00  0.00    +0.000 C 
BRANCH  13  16
ATOM     14  N   UNL     1     -14.231  48.098 -13.383  0.00  0.00    +0.000 NA
ATOM     15  N   UNL     1     -12.239  49.223 -12.715  0.00  0.00    +0.000 N 
ATOM     16  C   UNL     1     -14.804  45.986 -12.354  0.00  0.00    +0.000 A 
ATOM     17  C   UNL     1     -13.658  46.049 -11.570  0.00  0.00    +0.000 A 
ATOM     18  C   UNL     1     -12.798  47.134 -11.690  0.00  0.00    +0.000 A 
ATOM     19  C   UNL     1     -13.126  48.124 -12.604  0.00  0.00    +0.000 A 
ATOM     20  C   UNL     1     -15.043  47.027 -13.237  0.00  0.00    +0.000 A 
ATOM     21  H   UNL     1     -11.689  49.482 -11.906  0.00  0.00    +0.000 HD
ATOM     22  H   UNL     1     -12.486  49.947 -13.379  0.00  0.00    +0.000 HD
ENDBRANCH  13  16
ENDBRANCH   2  12
TORSDOF 4
ENDMDL
