MODEL 1
REMARK VINA RESULT:    -6.075      0.000      0.000
REMARK INTER + INTRA:          -6.495
REMARK INTER:                  -6.431
REMARK INTRA:                  -0.065
REMARK UNBOUND:                -0.065
REMARK  Name = 89240829
REMARK  1 active torsions:
REMARK  status: ('A' for Active; 'I' for Inactive)
REMARK    1  A    between atoms: C_6  and  C_11
REMARK                            x       y       z     vdW  Elec       q    Type
REMARK                         _______ _______ _______ _____ _____    ______ ____
ROOT
ATOM      1  N   UNL     1     -19.614  42.334  -6.857  0.00  0.00    +0.000 NA
ATOM      2  N   UNL     1     -21.578  42.781  -5.586  0.00  0.00    +0.000 N 
ATOM      3  C   UNL     1     -19.750  40.881  -8.784  0.00  0.00    +0.000 A 
ATOM      4  C   UNL     1     -21.111  40.704  -8.564  0.00  0.00    +0.000 A 
ATOM      5  C   UNL     1     -21.724  41.342  -7.491  0.00  0.00    +0.000 A 
ATOM      6  C   UNL     1     -19.053  41.699  -7.911  0.00  0.00    +0.000 A 
ATOM      7  C   UNL     1     -20.938  42.138  -6.674  0.00  0.00    +0.000 A 
ATOM      8  H   UNL     1     -22.562  43.004  -5.668  0.00  0.00    +0.000 HD
ATOM      9  H   UNL     1     -21.001  43.367  -4.996  0.00  0.00    +0.000 HD
ENDROOT
BRANCH   3  13
ATOM     10  I   UNL     1     -16.630  40.023 -11.773  0.00  0.00    +0.000 I 
ATOM     11  O   UNL     1     -19.613  39.267 -10.478  0.00  0.00    +0.000 OA
ATOM     12  N   UNL     1     -17.821  40.723 -10.255  0.00  0.00    +0.000 N 
ATOM     13  C   UNL     1     -19.080  40.229  -9.897  0.00  0.00    +0.000 C 
ATOM     14  H   UNL     1     -17.388  41.469  -9.722  0.00  0.00    +0.000 HD
ENDBRANCH   3  13
TORSDOF 1
ENDMDL
MODEL 2
REMARK VINA RESULT:    -5.983      3.206      5.294
REMARK INTER + INTRA:          -6.398
REMARK INTER:                  -6.336
REMARK INTRA:                  -0.062
REMARK UNBOUND:                -0.065
REMARK  Name = 89240829
REMARK  1 active torsions:
REMARK  status: ('A' for Active; 'I' for Inactive)
REMARK    1  A    between atoms: C_6  and  C_11
REMARK                            x       y       z     vdW  Elec       q    Type
REMARK                         _______ _______ _______ _____ _____    ______ ____
ROOT
ATOM      1  N   UNL     1     -18.523  39.449 -11.210  0.00  0.00    +0.000 NA
ATOM      2  N   UNL     1     -16.794  39.752 -12.820  0.00  0.00    +0.000 N 
ATOM      3  C   UNL     1     -18.866  41.127  -9.504  0.00  0.00    +0.000 A 
ATOM      4  C   UNL     1     -17.820  41.880 -10.024  0.00  0.00    +0.000 A 
ATOM      5  C   UNL     1     -17.125  41.419 -11.137  0.00  0.00    +0.000 A 
ATOM      6  C   UNL     1     -19.176  39.930 -10.128  0.00  0.00    +0.000 A 
ATOM      7  C   UNL     1     -17.512  40.208 -11.687  0.00  0.00    +0.000 A 
ATOM      8  H   UNL     1     -16.366  40.439 -13.428  0.00  0.00    +0.000 HD
ATOM      9  H   UNL     1     -17.084  38.870 -13.223  0.00  0.00    +0.000 HD
ENDROOT
BRANCH   3  13
ATOM     10  I   UNL     1     -22.299  41.793  -6.825  0.00  0.00    +0.000 I 
ATOM     11  O   UNL     1     -19.038  42.187  -7.421  0.00  0.00    +0.000 OA
ATOM     12  N   UNL     1     -20.980  41.289  -8.315  0.00  0.00    +0.000 N 
ATOM     13  C   UNL     1     -19.612  41.582  -8.343  0.00  0.00    +0.000 C 
ATOM     14  H   UNL     1     -21.407  40.741  -9.054  0.00  0.00    +0.000 HD
ENDBRANCH   3  13
TORSDOF 1
ENDMDL
MODEL 3
REMARK VINA RESULT:    -5.092      3.148      3.972
REMARK INTER + INTRA:          -5.454
REMARK INTER:                  -5.379
REMARK INTRA:                  -0.075
REMARK UNBOUND:                -0.065
REMARK  Name = 89240829
REMARK  1 active torsions:
REMARK  status: ('A' for Active; 'I' for Inactive)
REMARK    1  A    between atoms: C_6  and  C_11
REMARK                            x       y       z     vdW  Elec       q    Type
REMARK                         _______ _______ _______ _____ _____    ______ ____
ROOT
ATOM      1  N   UNL     1     -19.080  39.622 -10.737  0.00  0.00    +0.000 NA
ATOM      2  N   UNL     1     -20.676  39.564  -8.969  0.00  0.00    +0.000 N 
ATOM      3  C   UNL     1     -17.512  41.457 -10.863  0.00  0.00    +0.000 A 
ATOM      4  C   UNL     1     -18.068  42.020  -9.719  0.00  0.00    +0.000 A 
ATOM      5  C   UNL     1     -19.129  41.385  -9.084  0.00  0.00    +0.000 A 
ATOM      6  C   UNL     1     -18.049  40.268 -11.326  0.00  0.00    +0.000 A 
ATOM      7  C   UNL     1     -19.595  40.199  -9.628  0.00  0.00    +0.000 A 
ATOM      8  H   UNL     1     -20.787  39.710  -7.974  0.00  0.00    +0.000 HD
ATOM      9  H   UNL     1     -21.010  38.695  -9.367  0.00  0.00    +0.000 HD
ENDROOT
BRANCH   3  13
ATOM     10  I   UNL     1     -13.572  43.341 -11.440  0.00  0.00    +0.000 I 
ATOM     11  O   UNL     1     -16.454  42.308 -12.773  0.00  0.00    +0.000 OA
ATOM     12  N   UNL     1     -15.287  42.434 -10.772  0.00  0.00    +0.000 N 
ATOM     13  C   UNL     1     -16.401  42.096 -11.549  0.00  0.00    +0.000 C 
ATOM     14  H   UNL     1     -15.251  42.192  -9.787  0.00  0.00    +0.000 HD
ENDBRANCH   3  13
TORSDOF 1
ENDMDL
MODEL 4
REMARK VINA RESULT:    -5.087      5.094      5.567
REMARK INTER + INTRA:          -5.449
REMARK INTER:                  -5.369
REMARK INTRA:                  -0.081
REMARK UNBOUND:                -0.065
REMARK  Name = 89240829
REMARK  1 active torsions:
REMARK  status: ('A' for Active; 'I' for Inactive)
REMARK    1  A    between atoms: C_6  and  C_11
REMARK                            x       y       z     vdW  Elec       q    Type
REMARK                         _______ _______ _______ _____ _____    ______ ____
ROOT
ATOM      1  N   UNL     1     -18.623  40.933 -13.173  0.00  0.00    +0.000 NA
ATOM      2  N   UNL     1     -19.960  39.074 -12.514  0.00  0.00    +0.000 N 
ATOM      3  C   UNL     1     -16.732  41.578 -11.812  0.00  0.00    +0.000 A 
ATOM      4  C   UNL     1     -17.008  40.544 -10.925  0.00  0.00    +0.000 A 
ATOM      5  C   UNL     1     -18.091  39.704 -11.161  0.00  0.00    +0.000 A 
ATOM      6  C   UNL     1     -17.562  41.728 -12.911  0.00  0.00    +0.000 A 
ATOM      7  C   UNL     1     -18.861  39.939 -12.288  0.00  0.00    +0.000 A 
ATOM      8  H   UNL     1     -19.911  38.129 -12.157  0.00  0.00    +0.000 HD
ATOM      9  H   UNL     1     -20.516  39.246 -13.343  0.00  0.00    +0.000 HD
ENDROOT
BRANCH   3  13
ATOM     10  I   UNL     1     -12.663  42.880 -10.740  0.00  0.00    +0.000 I 
ATOM     11  O   UNL     1     -15.716  43.690 -11.823  0.00  0.00    +0.000 OA
ATOM     12  N   UNL     1     -14.417  41.893 -11.141  0.00  0.00    +0.000 N 
ATOM     13  C   UNL     1     -15.607  42.472 -11.594  0.00  0.00    +0.000 C 
ATOM     14  H   UNL     1     -14.343  40.889 -11.022  0.00  0.00    +0.000 HD
ENDBRANCH   3  13
TORSDOF 1
ENDMDL
MODEL 5
REMARK VINA RESULT:    -4.832      4.706      5.764
REMARK INTER + INTRA:          -5.179
REMARK INTER:                  -5.113
REMARK INTRA:                  -0.066
REMARK UNBOUND:                -0.065
REMARK  Name = 89240829
REMARK  1 active torsions:
REMARK  status: ('A' for Active; 'I' for Inactive)
REMARK    1  A    between atoms: C_6  and  C_11
REMARK                            x       y       z     vdW  Elec       q    Type
REMARK                         _______ _______ _______ _____ _____    ______ ____
ROOT
ATOM      1  N   UNL     1     -18.613  40.737 -11.785  0.00  0.00    +0.000 NA
ATOM      2  N   UNL     1     -17.504  40.789  -9.677  0.00  0.00    +0.000 N 
ATOM      3  C   UNL     1     -18.700  42.742 -13.132  0.00  0.00    +0.000 A 
ATOM      4  C   UNL     1     -17.986  43.435 -12.161  0.00  0.00    +0.000 A 
ATOM      5  C   UNL     1     -17.584  42.779 -11.002  0.00  0.00    +0.000 A 
ATOM      6  C   UNL     1     -18.985  41.407 -12.899  0.00  0.00    +0.000 A 
ATOM      7  C   UNL     1     -17.921  41.443 -10.863  0.00  0.00    +0.000 A 
ATOM      8  H   UNL     1     -16.671  41.124  -9.209  0.00  0.00    +0.000 HD
ATOM      9  H   UNL     1     -17.746  39.811  -9.582  0.00  0.00    +0.000 HD
ENDROOT
BRANCH   3  13
ATOM     10  I   UNL     1     -20.668  43.276 -17.037  0.00  0.00    +0.000 I 
ATOM     11  O   UNL     1     -18.831  44.584 -14.575  0.00  0.00    +0.000 OA
ATOM     12  N   UNL     1     -19.909  42.641 -15.239  0.00  0.00    +0.000 N 
ATOM     13  C   UNL     1     -19.133  43.398 -14.354  0.00  0.00    +0.000 C 
ATOM     14  H   UNL     1     -20.189  41.695 -15.002  0.00  0.00    +0.000 HD
ENDBRANCH   3  13
TORSDOF 1
ENDMDL
