MODEL 1
REMARK VINA RESULT:    -5.803      0.000      0.000
REMARK INTER + INTRA:          -6.329
REMARK INTER:                  -6.142
REMARK INTRA:                  -0.187
REMARK UNBOUND:                -0.187
REMARK  Name = 89542448
REMARK  2 active torsions:
REMARK  status: ('A' for Active; 'I' for Inactive)
REMARK    1  A    between atoms: C_5  and  C_9
REMARK    2  A    between atoms: C_6  and  C_10
REMARK                            x       y       z     vdW  Elec       q    Type
REMARK                         _______ _______ _______ _____ _____    ______ ____
ROOT
ATOM      1  N   UNL     1     -19.582  39.762  -9.509  0.00  0.00    +0.000 NA
ATOM      2  N   UNL     1     -19.610  38.806 -11.676  0.00  0.00    +0.000 N 
ATOM      3  C   UNL     1     -18.069  41.910 -10.464  0.00  0.00    +0.000 A 
ATOM      4  C   UNL     1     -18.459  40.892 -11.327  0.00  0.00    +0.000 A 
ATOM      5  C   UNL     1     -19.208  39.849 -10.804  0.00  0.00    +0.000 A 
ATOM      6  C   UNL     1     -18.436  41.856  -9.124  0.00  0.00    +0.000 A 
ATOM      7  C   UNL     1     -17.261  43.070 -10.945  0.00  0.00    +0.000 C 
ATOM      8  C   UNL     1     -19.186  40.771  -8.699  0.00  0.00    +0.000 A 
ATOM      9  H   UNL     1     -19.784  39.026 -12.648  0.00  0.00    +0.000 HD
ATOM     10  H   UNL     1     -20.150  38.057 -11.261  0.00  0.00    +0.000 HD
ENDROOT
BRANCH   4  13
ATOM     11  O   UNL     1     -18.870  41.339 -13.603  0.00  0.00    +0.000 OA
ATOM     12  N   UNL     1     -16.798  40.516 -13.069  0.00  0.00    +0.000 N 
ATOM     13  C   UNL     1     -18.081  40.932 -12.736  0.00  0.00    +0.000 C 
ATOM     14  H   UNL     1     -16.139  40.187 -12.371  0.00  0.00    +0.000 HD
ATOM     15  H   UNL     1     -16.479  40.528 -14.032  0.00  0.00    +0.000 HD
ENDBRANCH   4  13
TORSDOF 1
ENDMDL
MODEL 2
REMARK VINA RESULT:    -5.376      2.394      3.131
REMARK INTER + INTRA:          -5.878
REMARK INTER:                  -5.678
REMARK INTRA:                  -0.200
REMARK UNBOUND:                -0.187
REMARK  Name = 89542448
REMARK  2 active torsions:
REMARK  status: ('A' for Active; 'I' for Inactive)
REMARK    1  A    between atoms: C_5  and  C_9
REMARK    2  A    between atoms: C_6  and  C_10
REMARK                            x       y       z     vdW  Elec       q    Type
REMARK                         _______ _______ _______ _____ _____    ______ ____
ROOT
ATOM      1  N   UNL     1     -19.648  41.833 -13.536  0.00  0.00    +0.000 NA
ATOM      2  N   UNL     1     -19.559  39.688 -12.534  0.00  0.00    +0.000 N 
ATOM      3  C   UNL     1     -17.188  42.485 -12.380  0.00  0.00    +0.000 A 
ATOM      4  C   UNL     1     -17.753  41.235 -12.159  0.00  0.00    +0.000 A 
ATOM      5  C   UNL     1     -18.975  40.960 -12.754  0.00  0.00    +0.000 A 
ATOM      6  C   UNL     1     -17.851  43.410 -13.179  0.00  0.00    +0.000 A 
ATOM      7  C   UNL     1     -15.875  42.863 -11.777  0.00  0.00    +0.000 C 
ATOM      8  C   UNL     1     -19.067  43.039 -13.730  0.00  0.00    +0.000 A 
ATOM      9  H   UNL     1     -18.950  38.891 -12.395  0.00  0.00    +0.000 HD
ATOM     10  H   UNL     1     -20.454  39.521 -12.978  0.00  0.00    +0.000 HD
ENDROOT
BRANCH   4  13
ATOM     11  O   UNL     1     -17.347  40.134 -10.116  0.00  0.00    +0.000 OA
ATOM     12  N   UNL     1     -16.119  39.444 -11.924  0.00  0.00    +0.000 N 
ATOM     13  C   UNL     1     -17.072  40.254 -11.321  0.00  0.00    +0.000 C 
ATOM     14  H   UNL     1     -15.888  39.525 -12.910  0.00  0.00    +0.000 HD
ATOM     15  H   UNL     1     -15.618  38.740 -11.392  0.00  0.00    +0.000 HD
ENDBRANCH   4  13
TORSDOF 1
ENDMDL
MODEL 3
REMARK VINA RESULT:    -4.992      2.008      3.151
REMARK INTER + INTRA:          -5.471
REMARK INTER:                  -5.280
REMARK INTRA:                  -0.191
REMARK UNBOUND:                -0.187
REMARK  Name = 89542448
REMARK  2 active torsions:
REMARK  status: ('A' for Active; 'I' for Inactive)
REMARK    1  A    between atoms: C_5  and  C_9
REMARK    2  A    between atoms: C_6  and  C_10
REMARK                            x       y       z     vdW  Elec       q    Type
REMARK                         _______ _______ _______ _____ _____    ______ ____
ROOT
ATOM      1  N   UNL     1     -18.980  40.325 -13.207  0.00  0.00    +0.000 NA
ATOM      2  N   UNL     1     -17.803  42.313 -13.731  0.00  0.00    +0.000 N 
ATOM      3  C   UNL     1     -18.387  40.676 -10.498  0.00  0.00    +0.000 A 
ATOM      4  C   UNL     1     -17.937  41.598 -11.436  0.00  0.00    +0.000 A 
ATOM      5  C   UNL     1     -18.257  41.378 -12.767  0.00  0.00    +0.000 A 
ATOM      6  C   UNL     1     -19.134  39.579 -10.912  0.00  0.00    +0.000 A 
ATOM      7  C   UNL     1     -18.087  40.837  -9.044  0.00  0.00    +0.000 C 
ATOM      8  C   UNL     1     -19.401  39.449 -12.265  0.00  0.00    +0.000 A 
ATOM      9  H   UNL     1     -17.703  43.282 -13.459  0.00  0.00    +0.000 HD
ATOM     10  H   UNL     1     -18.048  42.120 -14.695  0.00  0.00    +0.000 HD
ENDROOT
BRANCH   4  13
ATOM     11  O   UNL     1     -17.685  43.855 -10.809  0.00  0.00    +0.000 OA
ATOM     12  N   UNL     1     -15.785  42.573 -10.844  0.00  0.00    +0.000 N 
ATOM     13  C   UNL     1     -17.151  42.754 -11.019  0.00  0.00    +0.000 C 
ATOM     14  H   UNL     1     -15.334  41.677 -11.005  0.00  0.00    +0.000 HD
ATOM     15  H   UNL     1     -15.190  43.340 -10.549  0.00  0.00    +0.000 HD
ENDBRANCH   4  13
TORSDOF 1
ENDMDL
MODEL 4
REMARK VINA RESULT:    -4.946      2.026      3.219
REMARK INTER + INTRA:          -5.422
REMARK INTER:                  -5.217
REMARK INTRA:                  -0.205
REMARK UNBOUND:                -0.187
REMARK  Name = 89542448
REMARK  2 active torsions:
REMARK  status: ('A' for Active; 'I' for Inactive)
REMARK    1  A    between atoms: C_5  and  C_9
REMARK    2  A    between atoms: C_6  and  C_10
REMARK                            x       y       z     vdW  Elec       q    Type
REMARK                         _______ _______ _______ _____ _____    ______ ____
ROOT
ATOM      1  N   UNL     1     -17.214  43.102 -10.578  0.00  0.00    +0.000 NA
ATOM      2  N   UNL     1     -17.241  40.752 -10.279  0.00  0.00    +0.000 N 
ATOM      3  C   UNL     1     -18.528  42.816 -13.029  0.00  0.00    +0.000 A 
ATOM      4  C   UNL     1     -18.216  41.694 -12.269  0.00  0.00    +0.000 A 
ATOM      5  C   UNL     1     -17.564  41.890 -11.061  0.00  0.00    +0.000 A 
ATOM      6  C   UNL     1     -18.185  44.081 -12.564  0.00  0.00    +0.000 A 
ATOM      7  C   UNL     1     -19.230  42.695 -14.341  0.00  0.00    +0.000 C 
ATOM      8  C   UNL     1     -17.535  44.170 -11.345  0.00  0.00    +0.000 A 
ATOM      9  H   UNL     1     -17.849  39.945 -10.324  0.00  0.00    +0.000 HD
ATOM     10  H   UNL     1     -16.759  40.929  -9.406  0.00  0.00    +0.000 HD
ENDROOT
BRANCH   4  13
ATOM     11  O   UNL     1     -17.734  39.639 -13.314  0.00  0.00    +0.000 OA
ATOM     12  N   UNL     1     -19.863  39.916 -12.511  0.00  0.00    +0.000 N 
ATOM     13  C   UNL     1     -18.568  40.360 -12.742  0.00  0.00    +0.000 C 
ATOM     14  H   UNL     1     -20.554  40.491 -12.039  0.00  0.00    +0.000 HD
ATOM     15  H   UNL     1     -20.161  38.994 -12.813  0.00  0.00    +0.000 HD
ENDBRANCH   4  13
TORSDOF 1
ENDMDL
MODEL 5
REMARK VINA RESULT:    -4.794      2.322      3.795
REMARK INTER + INTRA:          -5.261
REMARK INTER:                  -5.106
REMARK INTRA:                  -0.155
REMARK UNBOUND:                -0.187
REMARK  Name = 89542448
REMARK  2 active torsions:
REMARK  status: ('A' for Active; 'I' for Inactive)
REMARK    1  A    between atoms: C_5  and  C_9
REMARK    2  A    between atoms: C_6  and  C_10
REMARK                            x       y       z     vdW  Elec       q    Type
REMARK                         _______ _______ _______ _____ _____    ______ ____
ROOT
ATOM      1  N   UNL     1     -18.474  44.500 -13.848  0.00  0.00    +0.000 NA
ATOM      2  N   UNL     1     -19.232  42.604 -15.049  0.00  0.00    +0.000 N 
ATOM      3  C   UNL     1     -17.922  42.888 -11.632  0.00  0.00    +0.000 A 
ATOM      4  C   UNL     1     -18.444  42.325 -12.791  0.00  0.00    +0.000 A 
ATOM      5  C   UNL     1     -18.701  43.168 -13.862  0.00  0.00    +0.000 A 
ATOM      6  C   UNL     1     -17.675  44.255 -11.579  0.00  0.00    +0.000 A 
ATOM      7  C   UNL     1     -17.617  42.053 -10.432  0.00  0.00    +0.000 C 
ATOM      8  C   UNL     1     -17.966  45.011 -12.703  0.00  0.00    +0.000 A 
ATOM      9  H   UNL     1     -18.983  41.653 -15.289  0.00  0.00    +0.000 HD
ATOM     10  H   UNL     1     -19.414  43.247 -15.810  0.00  0.00    +0.000 HD
ENDROOT
BRANCH   4  13
ATOM     11  O   UNL     1     -17.842  40.095 -13.250  0.00  0.00    +0.000 OA
ATOM     12  N   UNL     1     -19.965  40.452 -12.462  0.00  0.00    +0.000 N 
ATOM     13  C   UNL     1     -18.711  40.893 -12.863  0.00  0.00    +0.000 C 
ATOM     14  H   UNL     1     -20.683  41.091 -12.136  0.00  0.00    +0.000 HD
ATOM     15  H   UNL     1     -20.204  39.466 -12.485  0.00  0.00    +0.000 HD
ENDBRANCH   4  13
TORSDOF 1
ENDMDL
