MODEL 1
REMARK VINA RESULT:    -5.829      0.000      0.000
REMARK INTER + INTRA:          -6.777
REMARK INTER:                  -6.511
REMARK INTRA:                  -0.266
REMARK UNBOUND:                -0.266
REMARK  Name = 89542472
REMARK  3 active torsions:
REMARK  status: ('A' for Active; 'I' for Inactive)
REMARK    1  A    between atoms: C_5  and  C_6
REMARK    2  A    between atoms: C_6  and  C_10
REMARK    3  A    between atoms: C_7  and  C_11
REMARK                            x       y       z     vdW  Elec       q    Type
REMARK                         _______ _______ _______ _____ _____    ______ ____
ROOT
ATOM      1  N   UNL     1     -19.532  39.897  -9.498  0.00  0.00    +0.000 NA
ATOM      2  N   UNL     1     -19.611  38.784 -11.588  0.00  0.00    +0.000 N 
ATOM      3  C   UNL     1     -17.831  41.832 -10.582  0.00  0.00    +0.000 A 
ATOM      4  C   UNL     1     -18.293  40.787 -11.373  0.00  0.00    +0.000 A 
ATOM      5  C   UNL     1     -18.219  41.911  -9.248  0.00  0.00    +0.000 A 
ATOM      6  C   UNL     1     -19.134  39.853 -10.789  0.00  0.00    +0.000 A 
ATOM      7  C   UNL     1     -19.063  40.928  -8.759  0.00  0.00    +0.000 A 
ATOM      8  H   UNL     1     -19.752  38.943 -12.577  0.00  0.00    +0.000 HD
ATOM      9  H   UNL     1     -20.219  38.115 -11.130  0.00  0.00    +0.000 HD
ENDROOT
BRANCH   4  12
ATOM     10  O   UNL     1     -18.588  41.178 -13.677  0.00  0.00    +0.000 OA
ATOM     11  N   UNL     1     -16.697  40.037 -13.057  0.00  0.00    +0.000 N 
ATOM     12  C   UNL     1     -17.894  40.687 -12.773  0.00  0.00    +0.000 C 
ATOM     13  H   UNL     1     -16.116  39.636 -12.327  0.00  0.00    +0.000 HD
ATOM     14  H   UNL     1     -16.368  39.944 -14.011  0.00  0.00    +0.000 HD
ENDBRANCH   4  12
BRANCH   3  15
ATOM     15  C   UNL     1     -16.921  42.881 -11.132  0.00  0.00    +0.000 C 
ATOM     16  C   UNL     1     -17.652  44.189 -11.417  0.00  0.00    +0.000 C 
ENDBRANCH   3  15
TORSDOF 2
ENDMDL
MODEL 2
REMARK VINA RESULT:    -5.430      2.269      3.019
REMARK INTER + INTRA:          -6.332
REMARK INTER:                  -6.080
REMARK INTRA:                  -0.252
REMARK UNBOUND:                -0.266
REMARK  Name = 89542472
REMARK  3 active torsions:
REMARK  status: ('A' for Active; 'I' for Inactive)
REMARK    1  A    between atoms: C_5  and  C_6
REMARK    2  A    between atoms: C_6  and  C_10
REMARK    3  A    between atoms: C_7  and  C_11
REMARK                            x       y       z     vdW  Elec       q    Type
REMARK                         _______ _______ _______ _____ _____    ______ ____
ROOT
ATOM      1  N   UNL     1     -19.702  41.809 -13.522  0.00  0.00    +0.000 NA
ATOM      2  N   UNL     1     -19.600  39.689 -12.470  0.00  0.00    +0.000 N 
ATOM      3  C   UNL     1     -17.217  42.480 -12.433  0.00  0.00    +0.000 A 
ATOM      4  C   UNL     1     -17.782  41.238 -12.169  0.00  0.00    +0.000 A 
ATOM      5  C   UNL     1     -17.893  43.388 -13.241  0.00  0.00    +0.000 A 
ATOM      6  C   UNL     1     -19.016  40.953 -12.732  0.00  0.00    +0.000 A 
ATOM      7  C   UNL     1     -19.122  43.008 -13.756  0.00  0.00    +0.000 A 
ATOM      8  H   UNL     1     -18.991  38.894 -12.324  0.00  0.00    +0.000 HD
ATOM      9  H   UNL     1     -20.504  39.513 -12.892  0.00  0.00    +0.000 HD
ENDROOT
BRANCH   4  12
ATOM     10  O   UNL     1     -17.334  40.189 -10.108  0.00  0.00    +0.000 OA
ATOM     11  N   UNL     1     -16.151  39.443 -11.926  0.00  0.00    +0.000 N 
ATOM     12  C   UNL     1     -17.088  40.275 -11.321  0.00  0.00    +0.000 C 
ATOM     13  H   UNL     1     -15.944  39.498 -12.918  0.00  0.00    +0.000 HD
ATOM     14  H   UNL     1     -15.643  38.751 -11.386  0.00  0.00    +0.000 HD
ENDBRANCH   4  12
BRANCH   3  15
ATOM     15  C   UNL     1     -15.891  42.868 -11.865  0.00  0.00    +0.000 C 
ATOM     16  C   UNL     1     -15.132  43.831 -12.773  0.00  0.00    +0.000 C 
ENDBRANCH   3  15
TORSDOF 2
ENDMDL
MODEL 3
REMARK VINA RESULT:    -5.358      1.995      3.421
REMARK INTER + INTRA:          -6.252
REMARK INTER:                  -6.001
REMARK INTRA:                  -0.250
REMARK UNBOUND:                -0.266
REMARK  Name = 89542472
REMARK  3 active torsions:
REMARK  status: ('A' for Active; 'I' for Inactive)
REMARK    1  A    between atoms: C_5  and  C_6
REMARK    2  A    between atoms: C_6  and  C_10
REMARK    3  A    between atoms: C_7  and  C_11
REMARK                            x       y       z     vdW  Elec       q    Type
REMARK                         _______ _______ _______ _____ _____    ______ ____
ROOT
ATOM      1  N   UNL     1     -18.925  40.303 -13.218  0.00  0.00    +0.000 NA
ATOM      2  N   UNL     1     -17.735  42.293 -13.704  0.00  0.00    +0.000 N 
ATOM      3  C   UNL     1     -18.392  40.640 -10.494  0.00  0.00    +0.000 A 
ATOM      4  C   UNL     1     -17.920  41.566 -11.417  0.00  0.00    +0.000 A 
ATOM      5  C   UNL     1     -19.131  39.545 -10.931  0.00  0.00    +0.000 A 
ATOM      6  C   UNL     1     -18.211  41.355 -12.756  0.00  0.00    +0.000 A 
ATOM      7  C   UNL     1     -19.367  39.423 -12.291  0.00  0.00    +0.000 A 
ATOM      8  H   UNL     1     -17.640  43.261 -13.424  0.00  0.00    +0.000 HD
ATOM      9  H   UNL     1     -17.959  42.107 -14.675  0.00  0.00    +0.000 HD
ENDROOT
BRANCH   4  12
ATOM     10  O   UNL     1     -17.677  43.821 -10.783  0.00  0.00    +0.000 OA
ATOM     11  N   UNL     1     -15.780  42.532 -10.762  0.00  0.00    +0.000 N 
ATOM     12  C   UNL     1     -17.142  42.718 -10.976  0.00  0.00    +0.000 C 
ATOM     13  H   UNL     1     -15.330  41.634 -10.911  0.00  0.00    +0.000 HD
ATOM     14  H   UNL     1     -15.192  43.297 -10.450  0.00  0.00    +0.000 HD
ENDBRANCH   4  12
BRANCH   3  15
ATOM     15  C   UNL     1     -18.124  40.792  -9.033  0.00  0.00    +0.000 C 
ATOM     16  C   UNL     1     -19.399  40.708  -8.199  0.00  0.00    +0.000 C 
ENDBRANCH   3  15
TORSDOF 2
ENDMDL
MODEL 4
REMARK VINA RESULT:    -4.994      2.343      3.616
REMARK INTER + INTRA:          -5.845
REMARK INTER:                  -5.619
REMARK INTRA:                  -0.226
REMARK UNBOUND:                -0.266
REMARK  Name = 89542472
REMARK  3 active torsions:
REMARK  status: ('A' for Active; 'I' for Inactive)
REMARK    1  A    between atoms: C_5  and  C_6
REMARK    2  A    between atoms: C_6  and  C_10
REMARK    3  A    between atoms: C_7  and  C_11
REMARK                            x       y       z     vdW  Elec       q    Type
REMARK                         _______ _______ _______ _____ _____    ______ ____
ROOT
ATOM      1  N   UNL     1     -15.865  42.357 -11.713  0.00  0.00    +0.000 NA
ATOM      2  N   UNL     1     -16.697  40.503 -10.497  0.00  0.00    +0.000 N 
ATOM      3  C   UNL     1     -18.373  42.719 -12.895  0.00  0.00    +0.000 A 
ATOM      4  C   UNL     1     -18.172  41.688 -11.984  0.00  0.00    +0.000 A 
ATOM      5  C   UNL     1     -17.320  43.571 -13.215  0.00  0.00    +0.000 A 
ATOM      6  C   UNL     1     -16.912  41.551 -11.426  0.00  0.00    +0.000 A 
ATOM      7  C   UNL     1     -16.098  43.349 -12.603  0.00  0.00    +0.000 A 
ATOM      8  H   UNL     1     -17.469  40.206  -9.913  0.00  0.00    +0.000 HD
ATOM      9  H   UNL     1     -15.763  40.426 -10.111  0.00  0.00    +0.000 HD
ENDROOT
BRANCH   4  12
ATOM     10  O   UNL     1     -19.864  40.884 -10.556  0.00  0.00    +0.000 OA
ATOM     11  N   UNL     1     -19.623  39.820 -12.574  0.00  0.00    +0.000 N 
ATOM     12  C   UNL     1     -19.264  40.785 -11.639  0.00  0.00    +0.000 C 
ATOM     13  H   UNL     1     -19.145  39.731 -13.466  0.00  0.00    +0.000 HD
ATOM     14  H   UNL     1     -20.378  39.170 -12.389  0.00  0.00    +0.000 HD
ENDBRANCH   4  12
BRANCH   3  15
ATOM     15  C   UNL     1     -19.700  42.938 -13.542  0.00  0.00    +0.000 C 
ATOM     16  C   UNL     1     -19.590  43.077 -15.058  0.00  0.00    +0.000 C 
ENDBRANCH   3  15
TORSDOF 2
ENDMDL
MODEL 5
REMARK VINA RESULT:    -4.991      2.195      3.308
REMARK INTER + INTRA:          -5.841
REMARK INTER:                  -5.642
REMARK INTRA:                  -0.199
REMARK UNBOUND:                -0.266
REMARK  Name = 89542472
REMARK  3 active torsions:
REMARK  status: ('A' for Active; 'I' for Inactive)
REMARK    1  A    between atoms: C_5  and  C_6
REMARK    2  A    between atoms: C_6  and  C_10
REMARK    3  A    between atoms: C_7  and  C_11
REMARK                            x       y       z     vdW  Elec       q    Type
REMARK                         _______ _______ _______ _____ _____    ______ ____
ROOT
ATOM      1  N   UNL     1     -19.879  41.878 -13.800  0.00  0.00    +0.000 NA
ATOM      2  N   UNL     1     -19.615  40.044 -12.324  0.00  0.00    +0.000 N 
ATOM      3  C   UNL     1     -17.996  43.337 -12.339  0.00  0.00    +0.000 A 
ATOM      4  C   UNL     1     -18.329  42.044 -11.952  0.00  0.00    +0.000 A 
ATOM      5  C   UNL     1     -18.603  43.902 -13.456  0.00  0.00    +0.000 A 
ATOM      6  C   UNL     1     -19.268  41.362 -12.710  0.00  0.00    +0.000 A 
ATOM      7  C   UNL     1     -19.529  43.138 -14.146  0.00  0.00    +0.000 A 
ATOM      8  H   UNL     1     -18.913  39.469 -11.875  0.00  0.00    +0.000 HD
ATOM      9  H   UNL     1     -20.308  39.574 -12.895  0.00  0.00    +0.000 HD
ENDROOT
BRANCH   4  12
ATOM     10  O   UNL     1     -16.837  40.558 -10.898  0.00  0.00    +0.000 OA
ATOM     11  N   UNL     1     -18.102  41.895  -9.530  0.00  0.00    +0.000 N 
ATOM     12  C   UNL     1     -17.704  41.438 -10.782  0.00  0.00    +0.000 C 
ATOM     13  H   UNL     1     -18.807  42.618  -9.420  0.00  0.00    +0.000 HD
ATOM     14  H   UNL     1     -17.697  41.513  -8.683  0.00  0.00    +0.000 HD
ENDBRANCH   4  12
BRANCH   3  15
ATOM     15  C   UNL     1     -16.993  44.142 -11.578  0.00  0.00    +0.000 C 
ATOM     16  C   UNL     1     -17.418  45.599 -11.424  0.00  0.00    +0.000 C 
ENDBRANCH   3  15
TORSDOF 2
ENDMDL
