MODEL 1
REMARK VINA RESULT:    -6.217      0.000      0.000
REMARK INTER + INTRA:          -6.856
REMARK INTER:                  -6.944
REMARK INTRA:                   0.088
REMARK UNBOUND:                 0.088
REMARK  Name = 89649491
REMARK  4 active torsions:
REMARK  status: ('A' for Active; 'I' for Inactive)
REMARK    1  A    between atoms: O_1  and  N_3
REMARK    2  A    between atoms: O_1  and  C_13
REMARK    3  A    between atoms: N_3  and  C_12
REMARK    4  A    between atoms: C_6  and  C_7
REMARK                            x       y       z     vdW  Elec       q    Type
REMARK                         _______ _______ _______ _____ _____    ______ ____
ROOT
ATOM      1  N   UNL     1     -18.888  42.088  -7.618  0.00  0.00    +0.000 NA
ATOM      2  N   UNL     1     -20.559  42.349  -5.939  0.00  0.00    +0.000 N 
ATOM      3  C   UNL     1     -19.378  40.775  -9.588  0.00  0.00    +0.000 A 
ATOM      4  C   UNL     1     -20.658  40.519  -9.108  0.00  0.00    +0.000 A 
ATOM      5  C   UNL     1     -18.539  41.558  -8.813  0.00  0.00    +0.000 A 
ATOM      6  C   UNL     1     -21.054  41.047  -7.884  0.00  0.00    +0.000 A 
ATOM      7  C   UNL     1     -20.140  41.818  -7.185  0.00  0.00    +0.000 A 
ATOM      8  H   UNL     1     -21.544  42.533  -5.800  0.00  0.00    +0.000 HD
ATOM      9  H   UNL     1     -19.889  42.918  -5.434  0.00  0.00    +0.000 HD
ENDROOT
BRANCH   3  12
ATOM     10  O   UNL     1     -18.959  39.007 -11.014  0.00  0.00    +0.000 OA
ATOM     11  N   UNL     1     -18.521  41.115 -11.852  0.00  0.00    +0.000 N 
ATOM     12  C   UNL     1     -18.928  40.229 -10.882  0.00  0.00    +0.000 C 
ATOM     13  C   UNL     1     -18.070  40.713 -13.172  0.00  0.00    +0.000 C 
BRANCH  11  14
ATOM     14  O   UNL     1     -18.495  42.510 -11.672  0.00  0.00    +0.000 OA
ATOM     15  C   UNL     1     -17.258  43.019 -12.163  0.00  0.00    +0.000 C 
ENDBRANCH  11  14
ENDBRANCH   3  12
TORSDOF 2
ENDMDL
MODEL 2
REMARK VINA RESULT:    -6.088      2.464      5.242
REMARK INTER + INTRA:          -6.711
REMARK INTER:                  -7.235
REMARK INTRA:                   0.523
REMARK UNBOUND:                 0.088
REMARK  Name = 89649491
REMARK  4 active torsions:
REMARK  status: ('A' for Active; 'I' for Inactive)
REMARK    1  A    between atoms: O_1  and  N_3
REMARK    2  A    between atoms: O_1  and  C_13
REMARK    3  A    between atoms: N_3  and  C_12
REMARK    4  A    between atoms: C_6  and  C_7
REMARK                            x       y       z     vdW  Elec       q    Type
REMARK                         _______ _______ _______ _____ _____    ______ ____
ROOT
ATOM      1  N   UNL     1     -19.419  39.434 -10.191  0.00  0.00    +0.000 NA
ATOM      2  N   UNL     1     -17.791  39.422 -11.930  0.00  0.00    +0.000 N 
ATOM      3  C   UNL     1     -19.446  41.255  -8.601  0.00  0.00    +0.000 A 
ATOM      4  C   UNL     1     -18.364  41.844  -9.245  0.00  0.00    +0.000 A 
ATOM      5  C   UNL     1     -19.932  40.061  -9.108  0.00  0.00    +0.000 A 
ATOM      6  C   UNL     1     -17.808  41.229 -10.362  0.00  0.00    +0.000 A 
ATOM      7  C   UNL     1     -18.368  40.036 -10.791  0.00  0.00    +0.000 A 
ATOM      8  H   UNL     1     -17.337  40.010 -12.618  0.00  0.00    +0.000 HD
ATOM      9  H   UNL     1     -18.208  38.554 -12.244  0.00  0.00    +0.000 HD
ENDROOT
BRANCH   3  12
ATOM     10  O   UNL     1     -19.315  42.536  -6.683  0.00  0.00    +0.000 OA
ATOM     11  N   UNL     1     -21.405  41.707  -7.211  0.00  0.00    +0.000 N 
ATOM     12  C   UNL     1     -20.056  41.882  -7.414  0.00  0.00    +0.000 C 
ATOM     13  C   UNL     1     -22.133  42.281  -6.094  0.00  0.00    +0.000 C 
BRANCH  11  14
ATOM     14  O   UNL     1     -22.231  40.951  -8.064  0.00  0.00    +0.000 OA
ATOM     15  C   UNL     1     -23.461  40.681  -7.399  0.00  0.00    +0.000 C 
ENDBRANCH  11  14
ENDBRANCH   3  12
TORSDOF 2
ENDMDL
MODEL 3
REMARK VINA RESULT:    -5.754      1.623      2.072
REMARK INTER + INTRA:          -6.339
REMARK INTER:                  -6.806
REMARK INTRA:                   0.468
REMARK UNBOUND:                 0.088
REMARK  Name = 89649491
REMARK  4 active torsions:
REMARK  status: ('A' for Active; 'I' for Inactive)
REMARK    1  A    between atoms: O_1  and  N_3
REMARK    2  A    between atoms: O_1  and  C_13
REMARK    3  A    between atoms: N_3  and  C_12
REMARK    4  A    between atoms: C_6  and  C_7
REMARK                            x       y       z     vdW  Elec       q    Type
REMARK                         _______ _______ _______ _____ _____    ______ ____
ROOT
ATOM      1  N   UNL     1     -22.145  41.555  -7.318  0.00  0.00    +0.000 NA
ATOM      2  N   UNL     1     -22.017  43.012  -5.437  0.00  0.00    +0.000 N 
ATOM      3  C   UNL     1     -20.116  40.910  -8.462  0.00  0.00    +0.000 A 
ATOM      4  C   UNL     1     -19.364  41.674  -7.576  0.00  0.00    +0.000 A 
ATOM      5  C   UNL     1     -21.490  40.883  -8.292  0.00  0.00    +0.000 A 
ATOM      6  C   UNL     1     -20.002  42.379  -6.561  0.00  0.00    +0.000 A 
ATOM      7  C   UNL     1     -21.382  42.288  -6.477  0.00  0.00    +0.000 A 
ATOM      8  H   UNL     1     -21.497  43.192  -4.587  0.00  0.00    +0.000 HD
ATOM      9  H   UNL     1     -23.025  42.936  -5.375  0.00  0.00    +0.000 HD
ENDROOT
BRANCH   3  12
ATOM     10  O   UNL     1     -19.987  39.083  -9.870  0.00  0.00    +0.000 OA
ATOM     11  N   UNL     1     -18.347  40.689 -10.135  0.00  0.00    +0.000 N 
ATOM     12  C   UNL     1     -19.469  40.151  -9.549  0.00  0.00    +0.000 C 
ATOM     13  C   UNL     1     -17.624  40.055 -11.222  0.00  0.00    +0.000 C 
BRANCH  11  14
ATOM     14  O   UNL     1     -17.774  41.913  -9.745  0.00  0.00    +0.000 OA
ATOM     15  C   UNL     1     -17.664  42.758 -10.886  0.00  0.00    +0.000 C 
ENDBRANCH  11  14
ENDBRANCH   3  12
TORSDOF 2
ENDMDL
MODEL 4
REMARK VINA RESULT:    -5.163      2.269      3.050
REMARK INTER + INTRA:          -5.678
REMARK INTER:                  -5.495
REMARK INTRA:                  -0.184
REMARK UNBOUND:                 0.088
REMARK  Name = 89649491
REMARK  4 active torsions:
REMARK  status: ('A' for Active; 'I' for Inactive)
REMARK    1  A    between atoms: O_1  and  N_3
REMARK    2  A    between atoms: O_1  and  C_13
REMARK    3  A    between atoms: N_3  and  C_12
REMARK    4  A    between atoms: C_6  and  C_7
REMARK                            x       y       z     vdW  Elec       q    Type
REMARK                         _______ _______ _______ _____ _____    ______ ____
ROOT
ATOM      1  N   UNL     1     -19.122  41.454  -8.993  0.00  0.00    +0.000 NA
ATOM      2  N   UNL     1     -20.740  39.708  -8.901  0.00  0.00    +0.000 N 
ATOM      3  C   UNL     1     -17.645  41.607 -10.900  0.00  0.00    +0.000 A 
ATOM      4  C   UNL     1     -18.245  40.487 -11.464  0.00  0.00    +0.000 A 
ATOM      5  C   UNL     1     -18.116  42.047  -9.674  0.00  0.00    +0.000 A 
ATOM      6  C   UNL     1     -19.284  39.849 -10.793  0.00  0.00    +0.000 A 
ATOM      7  C   UNL     1     -19.681  40.368  -9.572  0.00  0.00    +0.000 A 
ATOM      8  H   UNL     1     -21.426  39.211  -9.454  0.00  0.00    +0.000 HD
ATOM      9  H   UNL     1     -21.031  40.095  -8.011  0.00  0.00    +0.000 HD
ENDROOT
BRANCH   3  12
ATOM     10  O   UNL     1     -15.401  41.905 -11.361  0.00  0.00    +0.000 OA
ATOM     11  N   UNL     1     -16.859  43.337 -12.438  0.00  0.00    +0.000 N 
ATOM     12  C   UNL     1     -16.541  42.304 -11.587  0.00  0.00    +0.000 C 
ATOM     13  C   UNL     1     -15.873  44.095 -13.187  0.00  0.00    +0.000 C 
BRANCH  11  14
ATOM     14  O   UNL     1     -18.174  43.774 -12.678  0.00  0.00    +0.000 OA
ATOM     15  C   UNL     1     -18.587  43.323 -13.964  0.00  0.00    +0.000 C 
ENDBRANCH  11  14
ENDBRANCH   3  12
TORSDOF 2
ENDMDL
MODEL 5
REMARK VINA RESULT:    -5.059      3.761      4.926
REMARK INTER + INTRA:          -5.563
REMARK INTER:                  -5.362
REMARK INTRA:                  -0.201
REMARK UNBOUND:                 0.088
REMARK  Name = 89649491
REMARK  4 active torsions:
REMARK  status: ('A' for Active; 'I' for Inactive)
REMARK    1  A    between atoms: O_1  and  N_3
REMARK    2  A    between atoms: O_1  and  C_13
REMARK    3  A    between atoms: N_3  and  C_12
REMARK    4  A    between atoms: C_6  and  C_7
REMARK                            x       y       z     vdW  Elec       q    Type
REMARK                         _______ _______ _______ _____ _____    ______ ____
ROOT
ATOM      1  N   UNL     1     -19.084  41.339 -13.493  0.00  0.00    +0.000 NA
ATOM      2  N   UNL     1     -19.812  39.311 -12.476  0.00  0.00    +0.000 N 
ATOM      3  C   UNL     1     -18.000  43.024 -12.140  0.00  0.00    +0.000 A 
ATOM      4  C   UNL     1     -18.132  42.217 -11.015  0.00  0.00    +0.000 A 
ATOM      5  C   UNL     1     -18.488  42.544 -13.344  0.00  0.00    +0.000 A 
ATOM      6  C   UNL     1     -18.740  40.971 -11.128  0.00  0.00    +0.000 A 
ATOM      7  C   UNL     1     -19.195  40.583 -12.377  0.00  0.00    +0.000 A 
ATOM      8  H   UNL     1     -19.536  38.588 -11.823  0.00  0.00    +0.000 HD
ATOM      9  H   UNL     1     -20.137  39.028 -13.393  0.00  0.00    +0.000 HD
ENDROOT
BRANCH   3  12
ATOM     10  O   UNL     1     -18.098  45.315 -11.860  0.00  0.00    +0.000 OA
ATOM     11  N   UNL     1     -15.993  44.419 -12.177  0.00  0.00    +0.000 N 
ATOM     12  C   UNL     1     -17.361  44.350 -12.053  0.00  0.00    +0.000 C 
ATOM     13  C   UNL     1     -15.238  45.656 -12.095  0.00  0.00    +0.000 C 
BRANCH  11  14
ATOM     14  O   UNL     1     -15.173  43.297 -12.398  0.00  0.00    +0.000 OA
ATOM     15  C   UNL     1     -14.330  43.108 -11.266  0.00  0.00    +0.000 C 
ENDBRANCH  11  14
ENDBRANCH   3  12
TORSDOF 2
ENDMDL
