MODEL 1
REMARK VINA RESULT:    -5.731      0.000      0.000
REMARK INTER + INTRA:          -7.077
REMARK INTER:                  -7.071
REMARK INTRA:                  -0.005
REMARK UNBOUND:                -0.005
REMARK  Name = 89783918
REMARK  6 active torsions:
REMARK  status: ('A' for Active; 'I' for Inactive)
REMARK    1  A    between atoms: N_2  and  C_11
REMARK    2  A    between atoms: C_5  and  C_6
REMARK    3  A    between atoms: C_5  and  C_7
REMARK    4  A    between atoms: C_6  and  C_8
REMARK    5  A    between atoms: C_9  and  C_11
REMARK    6  A    between atoms: C_10  and  C_13
REMARK                            x       y       z     vdW  Elec       q    Type
REMARK                         _______ _______ _______ _____ _____    ______ ____
ROOT
ATOM      1  O   UNL     1     -16.971  41.006 -13.214  0.00  0.00    +0.000 OA
ATOM      2  C   UNL     1     -18.088  41.297 -12.797  0.00  0.00    +0.000 C 
ENDROOT
BRANCH   2   4
ATOM      3  N   UNL     1     -18.134  42.178  -9.140  0.00  0.00    +0.000 NA
ATOM      4  C   UNL     1     -18.366  41.193 -11.337  0.00  0.00    +0.000 A 
ATOM      5  C   UNL     1     -19.059  40.119 -10.790  0.00  0.00    +0.000 A 
ATOM      6  C   UNL     1     -19.290  40.072  -9.420  0.00  0.00    +0.000 A 
ATOM      7  C   UNL     1     -19.562  39.006 -11.649  0.00  0.00    +0.000 C 
ATOM      8  C   UNL     1     -17.929  42.188 -10.477  0.00  0.00    +0.000 A 
ATOM      9  C   UNL     1     -18.812  41.118  -8.645  0.00  0.00    +0.000 A 
ENDBRANCH   2   4
BRANCH   2  10
ATOM     10  N   UNL     1     -19.154  41.688 -13.576  0.00  0.00    +0.000 NA
ATOM     11  N   UNL     1     -20.187  43.507 -14.776  0.00  0.00    +0.000 N 
ATOM     12  C   UNL     1     -19.227  42.921 -13.982  0.00  0.00    +0.000 C 
ATOM     13  H   UNL     1     -20.139  44.483 -15.047  0.00  0.00    +0.000 HD
ATOM     14  H   UNL     1     -20.975  42.969 -15.122  0.00  0.00    +0.000 HD
BRANCH  12  15
ATOM     15  C   UNL     1     -18.091  43.835 -13.539  0.00  0.00    +0.000 C 
BRANCH  15  16
ATOM     16  C   UNL     1     -18.603  45.082 -12.820  0.00  0.00    +0.000 C 
ATOM     17  C   UNL     1     -17.612  45.632 -11.805  0.00  0.00    +0.000 C 
ENDBRANCH  15  16
ENDBRANCH  12  15
ENDBRANCH   2  10
TORSDOF 4
ENDMDL
MODEL 2
REMARK VINA RESULT:    -5.271      1.993      4.654
REMARK INTER + INTRA:          -6.509
REMARK INTER:                  -6.772
REMARK INTRA:                   0.263
REMARK UNBOUND:                -0.005
REMARK  Name = 89783918
REMARK  6 active torsions:
REMARK  status: ('A' for Active; 'I' for Inactive)
REMARK    1  A    between atoms: N_2  and  C_11
REMARK    2  A    between atoms: C_5  and  C_6
REMARK    3  A    between atoms: C_5  and  C_7
REMARK    4  A    between atoms: C_6  and  C_8
REMARK    5  A    between atoms: C_9  and  C_11
REMARK    6  A    between atoms: C_10  and  C_13
REMARK                            x       y       z     vdW  Elec       q    Type
REMARK                         _______ _______ _______ _____ _____    ______ ____
ROOT
ATOM      1  O   UNL     1     -19.581  41.090 -13.182  0.00  0.00    +0.000 OA
ATOM      2  C   UNL     1     -18.474  41.599 -13.028  0.00  0.00    +0.000 C 
ENDROOT
BRANCH   2   4
ATOM      3  N   UNL     1     -17.679  44.968 -11.556  0.00  0.00    +0.000 NA
ATOM      4  C   UNL     1     -18.369  43.079 -12.901  0.00  0.00    +0.000 A 
ATOM      5  C   UNL     1     -18.811  43.941 -13.898  0.00  0.00    +0.000 A 
ATOM      6  C   UNL     1     -18.689  45.316 -13.726  0.00  0.00    +0.000 A 
ATOM      7  C   UNL     1     -19.419  43.419 -15.157  0.00  0.00    +0.000 C 
ATOM      8  C   UNL     1     -17.815  43.638 -11.760  0.00  0.00    +0.000 A 
ATOM      9  C   UNL     1     -18.121  45.774 -12.548  0.00  0.00    +0.000 A 
ENDBRANCH   2   4
BRANCH   2  10
ATOM     10  N   UNL     1     -17.279  40.915 -12.999  0.00  0.00    +0.000 NA
ATOM     11  N   UNL     1     -15.921  39.324 -11.800  0.00  0.00    +0.000 N 
ATOM     12  C   UNL     1     -17.032  40.109 -12.009  0.00  0.00    +0.000 C 
ATOM     13  H   UNL     1     -15.836  38.714 -10.993  0.00  0.00    +0.000 HD
ATOM     14  H   UNL     1     -15.149  39.329 -12.458  0.00  0.00    +0.000 HD
BRANCH  12  15
ATOM     15  C   UNL     1     -18.124  40.000 -10.951  0.00  0.00    +0.000 C 
BRANCH  15  16
ATOM     16  C   UNL     1     -17.704  40.630  -9.624  0.00  0.00    +0.000 C 
ATOM     17  C   UNL     1     -18.831  40.672  -8.603  0.00  0.00    +0.000 C 
ENDBRANCH  15  16
ENDBRANCH  12  15
ENDBRANCH   2  10
TORSDOF 4
ENDMDL
MODEL 3
REMARK VINA RESULT:    -5.043      2.003      2.462
REMARK INTER + INTRA:          -6.227
REMARK INTER:                  -6.287
REMARK INTRA:                   0.059
REMARK UNBOUND:                -0.005
REMARK  Name = 89783918
REMARK  6 active torsions:
REMARK  status: ('A' for Active; 'I' for Inactive)
REMARK    1  A    between atoms: N_2  and  C_11
REMARK    2  A    between atoms: C_5  and  C_6
REMARK    3  A    between atoms: C_5  and  C_7
REMARK    4  A    between atoms: C_6  and  C_8
REMARK    5  A    between atoms: C_9  and  C_11
REMARK    6  A    between atoms: C_10  and  C_13
REMARK                            x       y       z     vdW  Elec       q    Type
REMARK                         _______ _______ _______ _____ _____    ______ ____
ROOT
ATOM      1  O   UNL     1     -16.481  40.613 -11.057  0.00  0.00    +0.000 OA
ATOM      2  C   UNL     1     -17.153  41.552 -10.641  0.00  0.00    +0.000 C 
ENDROOT
BRANCH   2   4
ATOM      3  N   UNL     1     -19.497  41.796  -7.709  0.00  0.00    +0.000 NA
ATOM      4  C   UNL     1     -18.319  41.275  -9.757  0.00  0.00    +0.000 A 
ATOM      5  C   UNL     1     -19.278  40.320 -10.074  0.00  0.00    +0.000 A 
ATOM      6  C   UNL     1     -20.346  40.102  -9.211  0.00  0.00    +0.000 A 
ATOM      7  C   UNL     1     -19.185  39.519 -11.330  0.00  0.00    +0.000 C 
ATOM      8  C   UNL     1     -18.473  41.980  -8.574  0.00  0.00    +0.000 A 
ATOM      9  C   UNL     1     -20.410  40.859  -8.052  0.00  0.00    +0.000 A 
ENDBRANCH   2   4
BRANCH   2  10
ATOM     10  N   UNL     1     -16.948  42.878 -10.954  0.00  0.00    +0.000 NA
ATOM     11  N   UNL     1     -16.908  44.531 -12.708  0.00  0.00    +0.000 N 
ATOM     12  C   UNL     1     -17.052  43.264 -12.190  0.00  0.00    +0.000 C 
ATOM     13  H   UNL     1     -17.027  44.726 -13.697  0.00  0.00    +0.000 HD
ATOM     14  H   UNL     1     -16.684  45.317 -12.107  0.00  0.00    +0.000 HD
BRANCH  12  15
ATOM     15  C   UNL     1     -17.400  42.175 -13.199  0.00  0.00    +0.000 C 
BRANCH  15  16
ATOM     16  C   UNL     1     -18.604  42.554 -14.061  0.00  0.00    +0.000 C 
ATOM     17  C   UNL     1     -19.890  42.687 -13.259  0.00  0.00    +0.000 C 
ENDBRANCH  15  16
ENDBRANCH  12  15
ENDBRANCH   2  10
TORSDOF 4
ENDMDL
MODEL 4
REMARK VINA RESULT:    -4.443      2.588      5.730
REMARK INTER + INTRA:          -5.487
REMARK INTER:                  -5.508
REMARK INTRA:                   0.021
REMARK UNBOUND:                -0.005
REMARK  Name = 89783918
REMARK  6 active torsions:
REMARK  status: ('A' for Active; 'I' for Inactive)
REMARK    1  A    between atoms: N_2  and  C_11
REMARK    2  A    between atoms: C_5  and  C_6
REMARK    3  A    between atoms: C_5  and  C_7
REMARK    4  A    between atoms: C_6  and  C_8
REMARK    5  A    between atoms: C_9  and  C_11
REMARK    6  A    between atoms: C_10  and  C_13
REMARK                            x       y       z     vdW  Elec       q    Type
REMARK                         _______ _______ _______ _____ _____    ______ ____
ROOT
ATOM      1  O   UNL     1     -18.613  45.411 -12.569  0.00  0.00    +0.000 OA
ATOM      2  C   UNL     1     -18.112  44.667 -13.407  0.00  0.00    +0.000 C 
ENDROOT
BRANCH   2   4
ATOM      3  N   UNL     1     -20.332  42.642 -15.670  0.00  0.00    +0.000 NA
ATOM      4  C   UNL     1     -18.909  44.283 -14.606  0.00  0.00    +0.000 A 
ATOM      5  C   UNL     1     -19.005  45.103 -15.725  0.00  0.00    +0.000 A 
ATOM      6  C   UNL     1     -19.763  44.694 -16.816  0.00  0.00    +0.000 A 
ATOM      7  C   UNL     1     -18.307  46.421 -15.779  0.00  0.00    +0.000 C 
ATOM      8  C   UNL     1     -19.586  43.074 -14.628  0.00  0.00    +0.000 A 
ATOM      9  C   UNL     1     -20.401  43.466 -16.740  0.00  0.00    +0.000 A 
ENDBRANCH   2   4
BRANCH   2  10
ATOM     10  N   UNL     1     -16.857  44.106 -13.326  0.00  0.00    +0.000 NA
ATOM     11  N   UNL     1     -15.431  42.575 -12.128  0.00  0.00    +0.000 N 
ATOM     12  C   UNL     1     -16.600  43.258 -12.375  0.00  0.00    +0.000 C 
ATOM     13  H   UNL     1     -15.341  41.919 -11.359  0.00  0.00    +0.000 HD
ATOM     14  H   UNL     1     -14.617  42.705 -12.721  0.00  0.00    +0.000 HD
BRANCH  12  15
ATOM     15  C   UNL     1     -17.749  42.964 -11.417  0.00  0.00    +0.000 C 
BRANCH  15  16
ATOM     16  C   UNL     1     -18.011  41.466 -11.277  0.00  0.00    +0.000 C 
ATOM     17  C   UNL     1     -19.435  41.075 -11.646  0.00  0.00    +0.000 C 
ENDBRANCH  15  16
ENDBRANCH  12  15
ENDBRANCH   2  10
TORSDOF 4
ENDMDL
MODEL 5
REMARK VINA RESULT:    -4.300      2.760      3.936
REMARK INTER + INTRA:          -5.311
REMARK INTER:                  -5.316
REMARK INTRA:                   0.006
REMARK UNBOUND:                -0.005
REMARK  Name = 89783918
REMARK  6 active torsions:
REMARK  status: ('A' for Active; 'I' for Inactive)
REMARK    1  A    between atoms: N_2  and  C_11
REMARK    2  A    between atoms: C_5  and  C_6
REMARK    3  A    between atoms: C_5  and  C_7
REMARK    4  A    between atoms: C_6  and  C_8
REMARK    5  A    between atoms: C_9  and  C_11
REMARK    6  A    between atoms: C_10  and  C_13
REMARK                            x       y       z     vdW  Elec       q    Type
REMARK                         _______ _______ _______ _____ _____    ______ ____
ROOT
ATOM      1  O   UNL     1     -18.373  45.641 -12.102  0.00  0.00    +0.000 OA
ATOM      2  C   UNL     1     -17.814  44.713 -12.678  0.00  0.00    +0.000 C 
ENDROOT
BRANCH   2   4
ATOM      3  N   UNL     1     -19.809  41.658 -13.594  0.00  0.00    +0.000 NA
ATOM      4  C   UNL     1     -18.398  43.345 -12.587  0.00  0.00    +0.000 A 
ATOM      5  C   UNL     1     -18.137  42.498 -11.517  0.00  0.00    +0.000 A 
ATOM      6  C   UNL     1     -18.710  41.232 -11.483  0.00  0.00    +0.000 A 
ATOM      7  C   UNL     1     -17.248  42.923 -10.395  0.00  0.00    +0.000 C 
ATOM      8  C   UNL     1     -19.233  42.882 -13.592  0.00  0.00    +0.000 A 
ATOM      9  C   UNL     1     -19.531  40.862 -12.536  0.00  0.00    +0.000 A 
ENDBRANCH   2   4
BRANCH   2  10
ATOM     10  N   UNL     1     -16.641  44.809 -13.394  0.00  0.00    +0.000 NA
ATOM     11  N   UNL     1     -15.560  45.747 -15.334  0.00  0.00    +0.000 N 
ATOM     12  C   UNL     1     -16.620  45.508 -14.489  0.00  0.00    +0.000 C 
ATOM     13  H   UNL     1     -15.650  46.325 -16.163  0.00  0.00    +0.000 HD
ATOM     14  H   UNL     1     -14.644  45.351 -15.144  0.00  0.00    +0.000 HD
BRANCH  12  15
ATOM     15  C   UNL     1     -17.936  46.169 -14.882  0.00  0.00    +0.000 C 
BRANCH  15  16
ATOM     16  C   UNL     1     -18.455  45.662 -16.227  0.00  0.00    +0.000 C 
ATOM     17  C   UNL     1     -19.815  46.236 -16.593  0.00  0.00    +0.000 C 
ENDBRANCH  15  16
ENDBRANCH  12  15
ENDBRANCH   2  10
TORSDOF 4
ENDMDL
