MODEL 1
REMARK VINA RESULT:    -5.281      0.000      0.000
REMARK INTER + INTRA:          -5.544
REMARK INTER:                  -5.590
REMARK INTRA:                   0.046
REMARK UNBOUND:                 0.046
REMARK  Name = 89996510
REMARK  4 active torsions:
REMARK  status: ('A' for Active; 'I' for Inactive)
REMARK    1  A    between atoms: N_3  and  C_12
REMARK    2  A    between atoms: N_3  and  C_13
REMARK    3  A    between atoms: C_6  and  C_7
REMARK    4  A    between atoms: C_14  and  C_15
REMARK                            x       y       z     vdW  Elec       q    Type
REMARK                         _______ _______ _______ _____ _____    ______ ____
ROOT
ATOM      1  O   UNL     1     -19.422  41.374  -8.155  0.00  0.00    +0.000 OA
ATOM      2  N   UNL     1     -18.091  42.431 -10.410  0.00  0.00    +0.000 NA
ATOM      3  N   UNL     1     -19.689  40.686 -10.393  0.00  0.00    +0.000 N 
ATOM      4  C   UNL     1     -17.115  43.124 -12.510  0.00  0.00    +0.000 A 
ATOM      5  C   UNL     1     -17.876  42.175 -13.185  0.00  0.00    +0.000 A 
ATOM      6  C   UNL     1     -18.813  41.519 -11.100  0.00  0.00    +0.000 A 
ATOM      7  C   UNL     1     -18.743  41.353 -12.473  0.00  0.00    +0.000 A 
ATOM      8  C   UNL     1     -17.259  43.211 -11.135  0.00  0.00    +0.000 A 
ATOM      9  C   UNL     1     -19.931  40.664  -9.016  0.00  0.00    +0.000 C 
ATOM     10  C   UNL     1     -20.953  39.618  -8.649  0.00  0.00    +0.000 C 
ATOM     11  H   UNL     1     -20.209  40.019 -10.958  0.00  0.00    +0.000 HD
ENDROOT
BRANCH   4  14
ATOM     12  O   UNL     1     -14.997  43.691 -13.199  0.00  0.00    +0.000 OA
ATOM     13  N   UNL     1     -16.710  45.115 -13.907  0.00  0.00    +0.000 N 
ATOM     14  C   UNL     1     -16.186  44.007 -13.233  0.00  0.00    +0.000 C 
ATOM     15  C   UNL     1     -15.870  46.034 -14.660  0.00  0.00    +0.000 C 
ATOM     16  C   UNL     1     -18.138  45.425 -13.901  0.00  0.00    +0.000 C 
ENDBRANCH   4  14
TORSDOF 1
ENDMDL
MODEL 2
REMARK VINA RESULT:    -5.184      4.600      5.600
REMARK INTER + INTRA:          -5.441
REMARK INTER:                  -5.460
REMARK INTRA:                   0.019
REMARK UNBOUND:                 0.046
REMARK  Name = 89996510
REMARK  4 active torsions:
REMARK  status: ('A' for Active; 'I' for Inactive)
REMARK    1  A    between atoms: N_3  and  C_12
REMARK    2  A    between atoms: N_3  and  C_13
REMARK    3  A    between atoms: C_6  and  C_7
REMARK    4  A    between atoms: C_14  and  C_15
REMARK                            x       y       z     vdW  Elec       q    Type
REMARK                         _______ _______ _______ _____ _____    ______ ____
ROOT
ATOM      1  O   UNL     1     -19.610  40.948 -13.010  0.00  0.00    +0.000 OA
ATOM      2  N   UNL     1     -20.009  42.695 -15.193  0.00  0.00    +0.000 NA
ATOM      3  N   UNL     1     -18.712  43.113 -13.260  0.00  0.00    +0.000 N 
ATOM      4  C   UNL     1     -20.166  44.394 -16.906  0.00  0.00    +0.000 A 
ATOM      5  C   UNL     1     -19.341  45.230 -16.162  0.00  0.00    +0.000 A 
ATOM      6  C   UNL     1     -19.211  43.536 -14.498  0.00  0.00    +0.000 A 
ATOM      7  C   UNL     1     -18.851  44.800 -14.934  0.00  0.00    +0.000 A 
ATOM      8  C   UNL     1     -20.467  43.147 -16.382  0.00  0.00    +0.000 A 
ATOM      9  C   UNL     1     -18.933  41.892 -12.615  0.00  0.00    +0.000 C 
ATOM     10  C   UNL     1     -18.211  41.824 -11.293  0.00  0.00    +0.000 C 
ATOM     11  H   UNL     1     -18.116  43.782 -12.777  0.00  0.00    +0.000 HD
ENDROOT
BRANCH   4  14
ATOM     12  O   UNL     1     -21.840  45.294 -18.198  0.00  0.00    +0.000 OA
ATOM     13  N   UNL     1     -19.899  44.669 -19.341  0.00  0.00    +0.000 N 
ATOM     14  C   UNL     1     -20.705  44.820 -18.208  0.00  0.00    +0.000 C 
ATOM     15  C   UNL     1     -20.342  45.076 -20.667  0.00  0.00    +0.000 C 
ATOM     16  C   UNL     1     -18.557  44.094 -19.272  0.00  0.00    +0.000 C 
ENDBRANCH   4  14
TORSDOF 1
ENDMDL
MODEL 3
REMARK VINA RESULT:    -4.923      2.520      3.226
REMARK INTER + INTRA:          -5.165
REMARK INTER:                  -5.174
REMARK INTRA:                   0.010
REMARK UNBOUND:                 0.046
REMARK  Name = 89996510
REMARK  4 active torsions:
REMARK  status: ('A' for Active; 'I' for Inactive)
REMARK    1  A    between atoms: N_3  and  C_12
REMARK    2  A    between atoms: N_3  and  C_13
REMARK    3  A    between atoms: C_6  and  C_7
REMARK    4  A    between atoms: C_14  and  C_15
REMARK                            x       y       z     vdW  Elec       q    Type
REMARK                         _______ _______ _______ _____ _____    ______ ____
ROOT
ATOM      1  O   UNL     1     -19.828  40.667 -13.080  0.00  0.00    +0.000 OA
ATOM      2  N   UNL     1     -18.895  43.332 -13.111  0.00  0.00    +0.000 NA
ATOM      3  N   UNL     1     -18.396  41.672 -11.501  0.00  0.00    +0.000 N 
ATOM      4  C   UNL     1     -17.943  45.541 -12.871  0.00  0.00    +0.000 A 
ATOM      5  C   UNL     1     -17.294  45.143 -11.708  0.00  0.00    +0.000 A 
ATOM      6  C   UNL     1     -18.250  42.981 -11.976  0.00  0.00    +0.000 A 
ATOM      7  C   UNL     1     -17.446  43.840 -11.245  0.00  0.00    +0.000 A 
ATOM      8  C   UNL     1     -18.724  44.606 -13.530  0.00  0.00    +0.000 A 
ATOM      9  C   UNL     1     -19.147  40.634 -12.059  0.00  0.00    +0.000 C 
ATOM     10  C   UNL     1     -19.041  39.370 -11.243  0.00  0.00    +0.000 C 
ATOM     11  H   UNL     1     -17.890  41.459 -10.644  0.00  0.00    +0.000 HD
ENDROOT
BRANCH   4  14
ATOM     12  O   UNL     1     -18.581  47.748 -12.921  0.00  0.00    +0.000 OA
ATOM     13  N   UNL     1     -16.815  47.169 -14.339  0.00  0.00    +0.000 N 
ATOM     14  C   UNL     1     -17.806  46.913 -13.386  0.00  0.00    +0.000 C 
ATOM     15  C   UNL     1     -16.597  48.497 -14.893  0.00  0.00    +0.000 C 
ATOM     16  C   UNL     1     -15.932  46.121 -14.844  0.00  0.00    +0.000 C 
ENDBRANCH   4  14
TORSDOF 1
ENDMDL
MODEL 4
REMARK VINA RESULT:    -4.761      2.677      5.873
REMARK INTER + INTRA:          -4.993
REMARK INTER:                  -5.044
REMARK INTRA:                   0.051
REMARK UNBOUND:                 0.046
REMARK  Name = 89996510
REMARK  4 active torsions:
REMARK  status: ('A' for Active; 'I' for Inactive)
REMARK    1  A    between atoms: N_3  and  C_12
REMARK    2  A    between atoms: N_3  and  C_13
REMARK    3  A    between atoms: C_6  and  C_7
REMARK    4  A    between atoms: C_14  and  C_15
REMARK                            x       y       z     vdW  Elec       q    Type
REMARK                         _______ _______ _______ _____ _____    ______ ____
ROOT
ATOM      1  O   UNL     1     -16.761  47.703 -11.244  0.00  0.00    +0.000 OA
ATOM      2  N   UNL     1     -17.354  45.017 -11.886  0.00  0.00    +0.000 NA
ATOM      3  N   UNL     1     -15.238  46.070 -11.999  0.00  0.00    +0.000 N 
ATOM      4  C   UNL     1     -17.554  42.689 -12.505  0.00  0.00    +0.000 A 
ATOM      5  C   UNL     1     -16.192  42.638 -12.782  0.00  0.00    +0.000 A 
ATOM      6  C   UNL     1     -16.034  44.930 -12.166  0.00  0.00    +0.000 A 
ATOM      7  C   UNL     1     -15.411  43.776 -12.612  0.00  0.00    +0.000 A 
ATOM      8  C   UNL     1     -18.081  43.891 -12.064  0.00  0.00    +0.000 A 
ATOM      9  C   UNL     1     -15.634  47.339 -11.565  0.00  0.00    +0.000 C 
ATOM     10  C   UNL     1     -14.471  48.297 -11.516  0.00  0.00    +0.000 C 
ATOM     11  H   UNL     1     -14.253  45.952 -12.222  0.00  0.00    +0.000 HD
ENDROOT
BRANCH   4  14
ATOM     12  O   UNL     1     -19.092  41.470 -13.701  0.00  0.00    +0.000 OA
ATOM     13  N   UNL     1     -18.377  40.512 -11.692  0.00  0.00    +0.000 N 
ATOM     14  C   UNL     1     -18.409  41.503 -12.678  0.00  0.00    +0.000 C 
ATOM     15  C   UNL     1     -19.176  39.299 -11.786  0.00  0.00    +0.000 C 
ATOM     16  C   UNL     1     -17.538  40.625 -10.501  0.00  0.00    +0.000 C 
ENDBRANCH   4  14
TORSDOF 1
ENDMDL
MODEL 5
REMARK VINA RESULT:    -4.668      2.667      6.030
REMARK INTER + INTRA:          -4.895
REMARK INTER:                  -4.919
REMARK INTRA:                   0.024
REMARK UNBOUND:                 0.046
REMARK  Name = 89996510
REMARK  4 active torsions:
REMARK  status: ('A' for Active; 'I' for Inactive)
REMARK    1  A    between atoms: N_3  and  C_12
REMARK    2  A    between atoms: N_3  and  C_13
REMARK    3  A    between atoms: C_6  and  C_7
REMARK    4  A    between atoms: C_14  and  C_15
REMARK                            x       y       z     vdW  Elec       q    Type
REMARK                         _______ _______ _______ _____ _____    ______ ____
ROOT
ATOM      1  O   UNL     1     -12.754  45.154 -10.643  0.00  0.00    +0.000 OA
ATOM      2  N   UNL     1     -14.746  43.320 -11.447  0.00  0.00    +0.000 NA
ATOM      3  N   UNL     1     -14.399  45.501 -12.295  0.00  0.00    +0.000 N 
ATOM      4  C   UNL     1     -16.546  41.974 -12.338  0.00  0.00    +0.000 A 
ATOM      5  C   UNL     1     -16.899  43.006 -13.201  0.00  0.00    +0.000 A 
ATOM      6  C   UNL     1     -15.119  44.301 -12.300  0.00  0.00    +0.000 A 
ATOM      7  C   UNL     1     -16.177  44.194 -13.188  0.00  0.00    +0.000 A 
ATOM      8  C   UNL     1     -15.471  42.180 -11.489  0.00  0.00    +0.000 A 
ATOM      9  C   UNL     1     -13.302  45.843 -11.497  0.00  0.00    +0.000 C 
ATOM     10  C   UNL     1     -12.808  47.235 -11.800  0.00  0.00    +0.000 C 
ATOM     11  H   UNL     1     -14.719  46.206 -12.955  0.00  0.00    +0.000 HD
ENDROOT
BRANCH   4  14
ATOM     12  O   UNL     1     -16.966  39.874 -13.170  0.00  0.00    +0.000 OA
ATOM     13  N   UNL     1     -18.292  40.534 -11.362  0.00  0.00    +0.000 N 
ATOM     14  C   UNL     1     -17.292  40.706 -12.324  0.00  0.00    +0.000 C 
ATOM     15  C   UNL     1     -19.071  39.308 -11.263  0.00  0.00    +0.000 C 
ATOM     16  C   UNL     1     -18.623  41.573 -10.389  0.00  0.00    +0.000 C 
ENDBRANCH   4  14
TORSDOF 1
ENDMDL
