MODEL 1
REMARK VINA RESULT:    -6.143      0.000      0.000
REMARK INTER + INTRA:          -7.489
REMARK INTER:                  -7.041
REMARK INTRA:                  -0.448
REMARK UNBOUND:                -0.448
REMARK  Name = 90244946
REMARK  6 active torsions:
REMARK  status: ('A' for Active; 'I' for Inactive)
REMARK    1  A    between atoms: N_3  and  C_13
REMARK    2  A    between atoms: C_5  and  C_6
REMARK    3  A    between atoms: C_5  and  C_7
REMARK    4  A    between atoms: C_5  and  C_8
REMARK    5  A    between atoms: C_5  and  C_9
REMARK    6  A    between atoms: C_12  and  C_14
REMARK                            x       y       z     vdW  Elec       q    Type
REMARK                         _______ _______ _______ _____ _____    ______ ____
ROOT
ATOM      1  N   UNL     1     -18.847  40.395 -13.210  0.00  0.00    +0.000 NA
ATOM      2  C   UNL     1     -18.056  42.519 -12.365  0.00  0.00    +0.000 A 
ATOM      3  C   UNL     1     -18.334  42.114 -11.065  0.00  0.00    +0.000 A 
ATOM      4  C   UNL     1     -18.327  41.630 -13.393  0.00  0.00    +0.000 A 
ATOM      5  C   UNL     1     -18.869  40.851 -10.836  0.00  0.00    +0.000 A 
ATOM      6  C   UNL     1     -19.104  40.037 -11.932  0.00  0.00    +0.000 A 
ENDROOT
BRANCH   5   9
ATOM      7  O   UNL     1     -20.286  40.033  -9.141  0.00  0.00    +0.000 OA
ATOM      8  N   UNL     1     -18.118  40.487  -8.545  0.00  0.00    +0.000 N 
ATOM      9  C   UNL     1     -19.158  40.435  -9.469  0.00  0.00    +0.000 C 
ATOM     10  H   UNL     1     -17.188  40.805  -8.799  0.00  0.00    +0.000 HD
ATOM     11  H   UNL     1     -18.261  40.203  -7.583  0.00  0.00    +0.000 HD
ENDBRANCH   5   9
BRANCH   2  12
ATOM     12  C   UNL     1     -17.465  43.909 -12.653  0.00  0.00    +0.000 C 
ATOM     13  C   UNL     1     -17.516  44.872 -11.445  0.00  0.00    +0.000 C 
ATOM     14  C   UNL     1     -15.984  43.769 -13.063  0.00  0.00    +0.000 C 
ATOM     15  C   UNL     1     -18.249  44.579 -13.803  0.00  0.00    +0.000 C 
ENDBRANCH   2  12
BRANCH   6  16
ATOM     16  N   UNL     1     -19.649  38.748 -11.706  0.00  0.00    +0.000 N 
ATOM     17  H   UNL     1     -19.014  37.978 -11.530  0.00  0.00    +0.000 HD
ATOM     18  H   UNL     1     -20.522  38.538 -12.174  0.00  0.00    +0.000 HD
ENDBRANCH   6  16
TORSDOF 3
ENDMDL
MODEL 2
REMARK VINA RESULT:    -5.964      0.687      1.405
REMARK INTER + INTRA:          -7.283
REMARK INTER:                  -6.873
REMARK INTRA:                  -0.411
REMARK UNBOUND:                -0.448
REMARK  Name = 90244946
REMARK  6 active torsions:
REMARK  status: ('A' for Active; 'I' for Inactive)
REMARK    1  A    between atoms: N_3  and  C_13
REMARK    2  A    between atoms: C_5  and  C_6
REMARK    3  A    between atoms: C_5  and  C_7
REMARK    4  A    between atoms: C_5  and  C_8
REMARK    5  A    between atoms: C_5  and  C_9
REMARK    6  A    between atoms: C_12  and  C_14
REMARK                            x       y       z     vdW  Elec       q    Type
REMARK                         _______ _______ _______ _____ _____    ______ ____
ROOT
ATOM      1  N   UNL     1     -18.976  41.173 -13.568  0.00  0.00    +0.000 NA
ATOM      2  C   UNL     1     -17.816  42.963 -12.428  0.00  0.00    +0.000 A 
ATOM      3  C   UNL     1     -18.045  42.343 -11.205  0.00  0.00    +0.000 A 
ATOM      4  C   UNL     1     -18.297  42.343 -13.570  0.00  0.00    +0.000 A 
ATOM      5  C   UNL     1     -18.740  41.140 -11.162  0.00  0.00    +0.000 A 
ATOM      6  C   UNL     1     -19.180  40.601 -12.360  0.00  0.00    +0.000 A 
ENDROOT
BRANCH   5   9
ATOM      7  O   UNL     1     -20.077  39.993  -9.598  0.00  0.00    +0.000 OA
ATOM      8  N   UNL     1     -17.919  40.453  -8.972  0.00  0.00    +0.000 N 
ATOM      9  C   UNL     1     -18.977  40.498  -9.875  0.00  0.00    +0.000 C 
ATOM     10  H   UNL     1     -17.012  40.854  -9.186  0.00  0.00    +0.000 HD
ATOM     11  H   UNL     1     -18.026  40.013  -8.065  0.00  0.00    +0.000 HD
ENDBRANCH   5   9
BRANCH   2  12
ATOM     12  C   UNL     1     -17.051  44.295 -12.510  0.00  0.00    +0.000 C 
ATOM     13  C   UNL     1     -17.194  45.014 -13.872  0.00  0.00    +0.000 C 
ATOM     14  C   UNL     1     -17.574  45.262 -11.427  0.00  0.00    +0.000 C 
ATOM     15  C   UNL     1     -15.545  44.044 -12.283  0.00  0.00    +0.000 C 
ENDBRANCH   2  12
BRANCH   6  16
ATOM     16  N   UNL     1     -19.889  39.374 -12.324  0.00  0.00    +0.000 N 
ATOM     17  H   UNL     1     -19.976  38.840 -13.181  0.00  0.00    +0.000 HD
ATOM     18  H   UNL     1     -20.643  39.307 -11.652  0.00  0.00    +0.000 HD
ENDBRANCH   6  16
TORSDOF 3
ENDMDL
MODEL 3
REMARK VINA RESULT:    -5.264      2.990      4.630
REMARK INTER + INTRA:          -6.481
REMARK INTER:                  -6.028
REMARK INTRA:                  -0.453
REMARK UNBOUND:                -0.448
REMARK  Name = 90244946
REMARK  6 active torsions:
REMARK  status: ('A' for Active; 'I' for Inactive)
REMARK    1  A    between atoms: N_3  and  C_13
REMARK    2  A    between atoms: C_5  and  C_6
REMARK    3  A    between atoms: C_5  and  C_7
REMARK    4  A    between atoms: C_5  and  C_8
REMARK    5  A    between atoms: C_5  and  C_9
REMARK    6  A    between atoms: C_12  and  C_14
REMARK                            x       y       z     vdW  Elec       q    Type
REMARK                         _______ _______ _______ _____ _____    ______ ____
ROOT
ATOM      1  N   UNL     1     -19.179  42.376 -14.249  0.00  0.00    +0.000 NA
ATOM      2  C   UNL     1     -18.289  41.578 -12.146  0.00  0.00    +0.000 A 
ATOM      3  C   UNL     1     -17.996  42.883 -11.767  0.00  0.00    +0.000 A 
ATOM      4  C   UNL     1     -18.876  41.380 -13.385  0.00  0.00    +0.000 A 
ATOM      5  C   UNL     1     -18.292  43.935 -12.627  0.00  0.00    +0.000 A 
ATOM      6  C   UNL     1     -18.878  43.630 -13.845  0.00  0.00    +0.000 A 
ENDROOT
BRANCH   5   9
ATOM      7  O   UNL     1     -18.858  46.175 -12.173  0.00  0.00    +0.000 OA
ATOM      8  N   UNL     1     -16.663  45.583 -11.871  0.00  0.00    +0.000 N 
ATOM      9  C   UNL     1     -17.980  45.299 -12.222  0.00  0.00    +0.000 C 
ATOM     10  H   UNL     1     -15.935  44.877 -11.898  0.00  0.00    +0.000 HD
ATOM     11  H   UNL     1     -16.392  46.513 -11.575  0.00  0.00    +0.000 HD
ENDBRANCH   5   9
BRANCH   2  12
ATOM     12  C   UNL     1     -17.974  40.393 -11.218  0.00  0.00    +0.000 C 
ATOM     13  C   UNL     1     -18.028  40.746  -9.714  0.00  0.00    +0.000 C 
ATOM     14  C   UNL     1     -18.994  39.260 -11.457  0.00  0.00    +0.000 C 
ATOM     15  C   UNL     1     -16.553  39.867 -11.512  0.00  0.00    +0.000 C 
ENDBRANCH   2  12
BRANCH   6  16
ATOM     16  N   UNL     1     -19.183  44.697 -14.728  0.00  0.00    +0.000 N 
ATOM     17  H   UNL     1     -19.929  45.335 -14.477  0.00  0.00    +0.000 HD
ATOM     18  H   UNL     1     -19.022  44.529 -15.713  0.00  0.00    +0.000 HD
ENDBRANCH   6  16
TORSDOF 3
ENDMDL
MODEL 4
REMARK VINA RESULT:    -4.641     14.734     15.700
REMARK INTER + INTRA:          -5.767
REMARK INTER:                  -5.308
REMARK INTRA:                  -0.459
REMARK UNBOUND:                -0.448
REMARK  Name = 90244946
REMARK  6 active torsions:
REMARK  status: ('A' for Active; 'I' for Inactive)
REMARK    1  A    between atoms: N_3  and  C_13
REMARK    2  A    between atoms: C_5  and  C_6
REMARK    3  A    between atoms: C_5  and  C_7
REMARK    4  A    between atoms: C_5  and  C_8
REMARK    5  A    between atoms: C_5  and  C_9
REMARK    6  A    between atoms: C_12  and  C_14
REMARK                            x       y       z     vdW  Elec       q    Type
REMARK                         _______ _______ _______ _____ _____    ______ ____
ROOT
ATOM      1  N   UNL     1     -31.709  44.633 -14.227  0.00  0.00    +0.000 NA
ATOM      2  C   UNL     1     -33.627  43.261 -13.692  0.00  0.00    +0.000 A 
ATOM      3  C   UNL     1     -33.410  42.499 -14.835  0.00  0.00    +0.000 A 
ATOM      4  C   UNL     1     -32.755  44.307 -13.434  0.00  0.00    +0.000 A 
ATOM      5  C   UNL     1     -32.344  42.805 -15.674  0.00  0.00    +0.000 A 
ATOM      6  C   UNL     1     -31.530  43.871 -15.328  0.00  0.00    +0.000 A 
ENDROOT
BRANCH   5   9
ATOM      7  O   UNL     1     -31.089  41.334 -17.020  0.00  0.00    +0.000 OA
ATOM      8  N   UNL     1     -33.129  41.993 -17.834  0.00  0.00    +0.000 N 
ATOM      9  C   UNL     1     -32.125  42.001 -16.871  0.00  0.00    +0.000 C 
ATOM     10  H   UNL     1     -33.985  42.526 -17.725  0.00  0.00    +0.000 HD
ATOM     11  H   UNL     1     -33.032  41.446 -18.683  0.00  0.00    +0.000 HD
ENDBRANCH   5   9
BRANCH   2  12
ATOM     12  C   UNL     1     -34.796  42.950 -12.743  0.00  0.00    +0.000 C 
ATOM     13  C   UNL     1     -36.025  42.331 -13.448  0.00  0.00    +0.000 C 
ATOM     14  C   UNL     1     -34.338  41.948 -11.663  0.00  0.00    +0.000 C 
ATOM     15  C   UNL     1     -35.270  44.251 -12.060  0.00  0.00    +0.000 C 
ENDBRANCH   2  12
BRANCH   6  16
ATOM     16  N   UNL     1     -30.442  44.188 -16.179  0.00  0.00    +0.000 N 
ATOM     17  H   UNL     1     -29.759  44.865 -15.860  0.00  0.00    +0.000 HD
ATOM     18  H   UNL     1     -30.615  44.131 -17.175  0.00  0.00    +0.000 HD
ENDBRANCH   6  16
TORSDOF 3
ENDMDL
MODEL 5
REMARK VINA RESULT:    -4.447     13.518     14.321
REMARK INTER + INTRA:          -5.545
REMARK INTER:                  -5.118
REMARK INTRA:                  -0.427
REMARK UNBOUND:                -0.448
REMARK  Name = 90244946
REMARK  6 active torsions:
REMARK  status: ('A' for Active; 'I' for Inactive)
REMARK    1  A    between atoms: N_3  and  C_13
REMARK    2  A    between atoms: C_5  and  C_6
REMARK    3  A    between atoms: C_5  and  C_7
REMARK    4  A    between atoms: C_5  and  C_8
REMARK    5  A    between atoms: C_5  and  C_9
REMARK    6  A    between atoms: C_12  and  C_14
REMARK                            x       y       z     vdW  Elec       q    Type
REMARK                         _______ _______ _______ _____ _____    ______ ____
ROOT
ATOM      1  N   UNL     1     -32.727  42.810 -14.662  0.00  0.00    +0.000 NA
ATOM      2  C   UNL     1     -31.665  42.902 -16.833  0.00  0.00    +0.000 A 
ATOM      3  C   UNL     1     -30.910  43.996 -16.426  0.00  0.00    +0.000 A 
ATOM      4  C   UNL     1     -32.551  42.350 -15.922  0.00  0.00    +0.000 A 
ATOM      5  C   UNL     1     -31.063  44.498 -15.138  0.00  0.00    +0.000 A 
ATOM      6  C   UNL     1     -31.976  43.875 -14.303  0.00  0.00    +0.000 A 
ENDROOT
BRANCH   5   9
ATOM      7  O   UNL     1     -30.789  46.620 -14.152  0.00  0.00    +0.000 OA
ATOM      8  N   UNL     1     -28.899  45.605 -14.963  0.00  0.00    +0.000 N 
ATOM      9  C   UNL     1     -30.268  45.646 -14.720  0.00  0.00    +0.000 C 
ATOM     10  H   UNL     1     -28.456  44.814 -15.419  0.00  0.00    +0.000 HD
ATOM     11  H   UNL     1     -28.297  46.373 -14.688  0.00  0.00    +0.000 HD
ENDBRANCH   5   9
BRANCH   2  12
ATOM     12  C   UNL     1     -31.521  42.323 -18.251  0.00  0.00    +0.000 C 
ATOM     13  C   UNL     1     -30.613  43.163 -19.179  0.00  0.00    +0.000 C 
ATOM     14  C   UNL     1     -30.910  40.908 -18.174  0.00  0.00    +0.000 C 
ATOM     15  C   UNL     1     -32.908  42.242 -18.922  0.00  0.00    +0.000 C 
ENDBRANCH   2  12
BRANCH   6  16
ATOM     16  N   UNL     1     -32.137  44.381 -12.988  0.00  0.00    +0.000 N 
ATOM     17  H   UNL     1     -31.674  45.248 -12.743  0.00  0.00    +0.000 HD
ATOM     18  H   UNL     1     -32.271  43.698 -12.254  0.00  0.00    +0.000 HD
ENDBRANCH   6  16
TORSDOF 3
ENDMDL
