MODEL 1
REMARK VINA RESULT:    -6.605      0.000      0.000
REMARK INTER + INTRA:          -7.441
REMARK INTER:                  -7.377
REMARK INTRA:                  -0.064
REMARK UNBOUND:                -0.064
REMARK  Name = 90275756
REMARK  2 active torsions:
REMARK  status: ('A' for Active; 'I' for Inactive)
REMARK    1  A    between atoms: C_5  and  C_6
REMARK    2  A    between atoms: C_6  and  C_10
REMARK                            x       y       z     vdW  Elec       q    Type
REMARK                         _______ _______ _______ _____ _____    ______ ____
ROOT
ATOM      1  N   UNL     1     -18.954  40.587  -9.956  0.00  0.00    +0.000 NA
ATOM      2  N   UNL     1     -17.309  42.289  -9.686  0.00  0.00    +0.000 N 
ATOM      3  C   UNL     1     -20.181  41.422  -7.587  0.00  0.00    +0.000 A 
ATOM      4  C   UNL     1     -19.041  42.071  -8.050  0.00  0.00    +0.000 A 
ATOM      5  C   UNL     1     -20.708  40.357  -8.309  0.00  0.00    +0.000 A 
ATOM      6  C   UNL     1     -18.470  41.619  -9.228  0.00  0.00    +0.000 A 
ATOM      7  C   UNL     1     -20.064  39.982  -9.476  0.00  0.00    +0.000 A 
ATOM      8  H   UNL     1     -17.185  43.263  -9.438  0.00  0.00    +0.000 HD
ATOM      9  H   UNL     1     -16.899  41.959 -10.551  0.00  0.00    +0.000 HD
ENDROOT
BRANCH   3  10
ATOM     10  C   UNL     1     -20.835  41.868  -6.324  0.00  0.00    +0.000 C 
BRANCH  10  13
ATOM     11  O   UNL     1     -23.221  41.921  -6.762  0.00  0.00    +0.000 OA
ATOM     12  N   UNL     1     -22.118  43.912  -6.441  0.00  0.00    +0.000 N 
ATOM     13  C   UNL     1     -22.185  42.538  -6.536  0.00  0.00    +0.000 C 
ATOM     14  H   UNL     1     -21.250  44.400  -6.250  0.00  0.00    +0.000 HD
ATOM     15  H   UNL     1     -22.948  44.484  -6.560  0.00  0.00    +0.000 HD
ENDBRANCH  10  13
ENDBRANCH   3  10
TORSDOF 2
ENDMDL
MODEL 2
REMARK VINA RESULT:    -6.066      2.272      4.603
REMARK INTER + INTRA:          -6.840
REMARK INTER:                  -6.733
REMARK INTRA:                  -0.107
REMARK UNBOUND:                -0.064
REMARK  Name = 90275756
REMARK  2 active torsions:
REMARK  status: ('A' for Active; 'I' for Inactive)
REMARK    1  A    between atoms: C_5  and  C_6
REMARK    2  A    between atoms: C_6  and  C_10
REMARK                            x       y       z     vdW  Elec       q    Type
REMARK                         _______ _______ _______ _____ _____    ______ ____
ROOT
ATOM      1  N   UNL     1     -22.951  42.282  -6.557  0.00  0.00    +0.000 NA
ATOM      2  N   UNL     1     -24.096  40.446  -7.556  0.00  0.00    +0.000 N 
ATOM      3  C   UNL     1     -20.532  41.284  -7.542  0.00  0.00    +0.000 A 
ATOM      4  C   UNL     1     -21.721  40.610  -7.798  0.00  0.00    +0.000 A 
ATOM      5  C   UNL     1     -20.552  42.457  -6.794  0.00  0.00    +0.000 A 
ATOM      6  C   UNL     1     -22.893  41.144  -7.288  0.00  0.00    +0.000 A 
ATOM      7  C   UNL     1     -21.776  42.909  -6.329  0.00  0.00    +0.000 A 
ATOM      8  H   UNL     1     -24.152  39.890  -8.401  0.00  0.00    +0.000 HD
ATOM      9  H   UNL     1     -24.951  40.844  -7.187  0.00  0.00    +0.000 HD
ENDROOT
BRANCH   3  10
ATOM     10  C   UNL     1     -19.242  40.754  -8.067  0.00  0.00    +0.000 C 
BRANCH  10  13
ATOM     11  O   UNL     1     -19.561  40.825 -10.471  0.00  0.00    +0.000 OA
ATOM     12  N   UNL     1     -17.861  42.067  -9.551  0.00  0.00    +0.000 N 
ATOM     13  C   UNL     1     -18.929  41.198  -9.488  0.00  0.00    +0.000 C 
ATOM     14  H   UNL     1     -17.354  42.364  -8.724  0.00  0.00    +0.000 HD
ATOM     15  H   UNL     1     -17.545  42.442 -10.439  0.00  0.00    +0.000 HD
ENDBRANCH  10  13
ENDBRANCH   3  10
TORSDOF 2
ENDMDL
MODEL 3
REMARK VINA RESULT:    -5.720      2.829      4.813
REMARK INTER + INTRA:          -6.453
REMARK INTER:                  -6.301
REMARK INTRA:                  -0.152
REMARK UNBOUND:                -0.064
REMARK  Name = 90275756
REMARK  2 active torsions:
REMARK  status: ('A' for Active; 'I' for Inactive)
REMARK    1  A    between atoms: C_5  and  C_6
REMARK    2  A    between atoms: C_6  and  C_10
REMARK                            x       y       z     vdW  Elec       q    Type
REMARK                         _______ _______ _______ _____ _____    ______ ____
ROOT
ATOM      1  N   UNL     1     -20.697  42.015  -7.078  0.00  0.00    +0.000 NA
ATOM      2  N   UNL     1     -22.723  40.858  -7.565  0.00  0.00    +0.000 N 
ATOM      3  C   UNL     1     -19.457  40.704  -9.214  0.00  0.00    +0.000 A 
ATOM      4  C   UNL     1     -20.793  40.452  -8.920  0.00  0.00    +0.000 A 
ATOM      5  C   UNL     1     -18.741  41.611  -8.440  0.00  0.00    +0.000 A 
ATOM      6  C   UNL     1     -21.361  41.126  -7.852  0.00  0.00    +0.000 A 
ATOM      7  C   UNL     1     -19.401  42.234  -7.394  0.00  0.00    +0.000 A 
ATOM      8  H   UNL     1     -23.327  40.570  -8.325  0.00  0.00    +0.000 HD
ATOM      9  H   UNL     1     -23.136  41.358  -6.788  0.00  0.00    +0.000 HD
ENDROOT
BRANCH   3  10
ATOM     10  C   UNL     1     -18.796  40.007 -10.353  0.00  0.00    +0.000 C 
BRANCH  10  13
ATOM     11  O   UNL     1     -19.342  41.584 -12.114  0.00  0.00    +0.000 OA
ATOM     12  N   UNL     1     -19.774  39.353 -12.462  0.00  0.00    +0.000 N 
ATOM     13  C   UNL     1     -19.324  40.423 -11.718  0.00  0.00    +0.000 C 
ATOM     14  H   UNL     1     -19.747  38.401 -12.115  0.00  0.00    +0.000 HD
ATOM     15  H   UNL     1     -20.153  39.489 -13.395  0.00  0.00    +0.000 HD
ENDBRANCH  10  13
ENDBRANCH   3  10
TORSDOF 2
ENDMDL
MODEL 4
REMARK VINA RESULT:    -5.484      2.922      3.859
REMARK INTER + INTRA:          -6.190
REMARK INTER:                  -6.227
REMARK INTRA:                   0.037
REMARK UNBOUND:                -0.064
REMARK  Name = 90275756
REMARK  2 active torsions:
REMARK  status: ('A' for Active; 'I' for Inactive)
REMARK    1  A    between atoms: C_5  and  C_6
REMARK    2  A    between atoms: C_6  and  C_10
REMARK                            x       y       z     vdW  Elec       q    Type
REMARK                         _______ _______ _______ _____ _____    ______ ____
ROOT
ATOM      1  N   UNL     1     -16.916  39.866 -12.756  0.00  0.00    +0.000 NA
ATOM      2  N   UNL     1     -15.168  40.395 -11.226  0.00  0.00    +0.000 N 
ATOM      3  C   UNL     1     -18.802  40.532 -10.803  0.00  0.00    +0.000 A 
ATOM      4  C   UNL     1     -17.443  40.631 -10.524  0.00  0.00    +0.000 A 
ATOM      5  C   UNL     1     -19.219  40.100 -12.057  0.00  0.00    +0.000 A 
ATOM      6  C   UNL     1     -16.549  40.289 -11.525  0.00  0.00    +0.000 A 
ATOM      7  C   UNL     1     -18.245  39.782 -12.990  0.00  0.00    +0.000 A 
ATOM      8  H   UNL     1     -14.875  41.076 -10.535  0.00  0.00    +0.000 HD
ATOM      9  H   UNL     1     -14.518  40.150 -11.962  0.00  0.00    +0.000 HD
ENDROOT
BRANCH   3  10
ATOM     10  C   UNL     1     -19.808  40.888  -9.762  0.00  0.00    +0.000 C 
BRANCH  10  13
ATOM     11  O   UNL     1     -18.760  42.277  -8.070  0.00  0.00    +0.000 OA
ATOM     12  N   UNL     1     -19.208  40.080  -7.566  0.00  0.00    +0.000 N 
ATOM     13  C   UNL     1     -19.202  41.180  -8.397  0.00  0.00    +0.000 C 
ATOM     14  H   UNL     1     -19.582  39.183  -7.857  0.00  0.00    +0.000 HD
ATOM     15  H   UNL     1     -18.834  40.136  -6.624  0.00  0.00    +0.000 HD
ENDBRANCH  10  13
ENDBRANCH   3  10
TORSDOF 2
ENDMDL
MODEL 5
REMARK VINA RESULT:    -5.274      3.898      5.460
REMARK INTER + INTRA:          -5.955
REMARK INTER:                  -5.853
REMARK INTRA:                  -0.102
REMARK UNBOUND:                -0.064
REMARK  Name = 90275756
REMARK  2 active torsions:
REMARK  status: ('A' for Active; 'I' for Inactive)
REMARK    1  A    between atoms: C_5  and  C_6
REMARK    2  A    between atoms: C_6  and  C_10
REMARK                            x       y       z     vdW  Elec       q    Type
REMARK                         _______ _______ _______ _____ _____    ______ ____
ROOT
ATOM      1  N   UNL     1     -19.615  39.694  -9.559  0.00  0.00    +0.000 NA
ATOM      2  N   UNL     1     -19.561  38.845 -11.784  0.00  0.00    +0.000 N 
ATOM      3  C   UNL     1     -18.043  41.860 -10.366  0.00  0.00    +0.000 A 
ATOM      4  C   UNL     1     -18.413  40.885 -11.285  0.00  0.00    +0.000 A 
ATOM      5  C   UNL     1     -18.459  41.753  -9.043  0.00  0.00    +0.000 A 
ATOM      6  C   UNL     1     -19.192  39.831 -10.836  0.00  0.00    +0.000 A 
ATOM      7  C   UNL     1     -19.236  40.662  -8.694  0.00  0.00    +0.000 A 
ATOM      8  H   UNL     1     -19.640  39.118 -12.757  0.00  0.00    +0.000 HD
ATOM      9  H   UNL     1     -20.135  38.081 -11.453  0.00  0.00    +0.000 HD
ENDROOT
BRANCH   3  10
ATOM     10  C   UNL     1     -17.205  43.015 -10.796  0.00  0.00    +0.000 C 
BRANCH  10  13
ATOM     11  O   UNL     1     -16.141  42.940 -12.975  0.00  0.00    +0.000 OA
ATOM     12  N   UNL     1     -15.076  41.947 -11.197  0.00  0.00    +0.000 N 
ATOM     13  C   UNL     1     -16.110  42.645 -11.784  0.00  0.00    +0.000 C 
ATOM     14  H   UNL     1     -15.070  41.717 -10.209  0.00  0.00    +0.000 HD
ATOM     15  H   UNL     1     -14.278  41.639 -11.743  0.00  0.00    +0.000 HD
ENDBRANCH  10  13
ENDBRANCH   3  10
TORSDOF 2
ENDMDL
