MODEL 1
REMARK VINA RESULT:    -5.276      0.000      0.000
REMARK INTER + INTRA:          -6.160
REMARK INTER:                  -5.893
REMARK INTRA:                  -0.268
REMARK UNBOUND:                -0.268
REMARK  Name = 90271760
REMARK  3 active torsions:
REMARK  status: ('A' for Active; 'I' for Inactive)
REMARK    1  A    between atoms: N_3  and  C_7
REMARK    2  A    between atoms: N_3  and  C_12
REMARK    3  A    between atoms: C_6  and  C_10
REMARK                            x       y       z     vdW  Elec       q    Type
REMARK                         _______ _______ _______ _____ _____    ______ ____
ROOT
ATOM      1  I   UNL     1     -20.619  41.963  -6.797  0.00  0.00    +0.000 I 
ATOM      2  N   UNL     1     -19.545  39.436 -10.129  0.00  0.00    +0.000 NA
ATOM      3  C   UNL     1     -18.038  41.323 -10.217  0.00  0.00    +0.000 A 
ATOM      4  C   UNL     1     -18.523  40.116 -10.694  0.00  0.00    +0.000 A 
ATOM      5  C   UNL     1     -18.639  41.865  -9.086  0.00  0.00    +0.000 A 
ATOM      6  C   UNL     1     -19.694  41.195  -8.477  0.00  0.00    +0.000 A 
ATOM      7  C   UNL     1     -20.105  39.994  -9.033  0.00  0.00    +0.000 A 
ENDROOT
BRANCH   3  10
ATOM      8  O   UNL     1     -15.879  41.450 -11.150  0.00  0.00    +0.000 OA
ATOM      9  N   UNL     1     -17.107  43.387 -11.119  0.00  0.00    +0.000 N 
ATOM     10  C   UNL     1     -16.933  42.033 -10.848  0.00  0.00    +0.000 C 
ATOM     11  H   UNL     1     -17.963  43.878 -10.885  0.00  0.00    +0.000 HD
ATOM     12  H   UNL     1     -16.373  43.928 -11.562  0.00  0.00    +0.000 HD
ENDBRANCH   3  10
BRANCH   4  13
ATOM     13  N   UNL     1     -17.914  39.557 -11.845  0.00  0.00    +0.000 N 
ATOM     14  C   UNL     1     -18.366  39.841 -13.168  0.00  0.00    +0.000 C 
ATOM     15  H   UNL     1     -17.345  38.729 -11.713  0.00  0.00    +0.000 HD
ENDBRANCH   4  13
TORSDOF 2
ENDMDL
MODEL 2
REMARK VINA RESULT:    -4.906      3.649      4.312
REMARK INTER + INTRA:          -5.747
REMARK INTER:                  -5.442
REMARK INTRA:                  -0.305
REMARK UNBOUND:                -0.268
REMARK  Name = 90271760
REMARK  3 active torsions:
REMARK  status: ('A' for Active; 'I' for Inactive)
REMARK    1  A    between atoms: N_3  and  C_7
REMARK    2  A    between atoms: N_3  and  C_12
REMARK    3  A    between atoms: C_6  and  C_10
REMARK                            x       y       z     vdW  Elec       q    Type
REMARK                         _______ _______ _______ _____ _____    ______ ____
ROOT
ATOM      1  I   UNL     1     -17.884  45.823 -14.600  0.00  0.00    +0.000 I 
ATOM      2  N   UNL     1     -19.888  42.125 -13.624  0.00  0.00    +0.000 NA
ATOM      3  C   UNL     1     -18.288  42.499 -11.851  0.00  0.00    +0.000 A 
ATOM      4  C   UNL     1     -19.290  41.766 -12.465  0.00  0.00    +0.000 A 
ATOM      5  C   UNL     1     -17.875  43.678 -12.463  0.00  0.00    +0.000 A 
ATOM      6  C   UNL     1     -18.466  44.081 -13.655  0.00  0.00    +0.000 A 
ATOM      7  C   UNL     1     -19.460  43.275 -14.189  0.00  0.00    +0.000 A 
ENDROOT
BRANCH   3  10
ATOM      8  O   UNL     1     -18.206  42.299  -9.506  0.00  0.00    +0.000 OA
ATOM      9  N   UNL     1     -16.439  41.427 -10.680  0.00  0.00    +0.000 N 
ATOM     10  C   UNL     1     -17.662  42.086 -10.602  0.00  0.00    +0.000 C 
ATOM     11  H   UNL     1     -15.984  41.239 -11.567  0.00  0.00    +0.000 HD
ATOM     12  H   UNL     1     -15.962  41.111  -9.842  0.00  0.00    +0.000 HD
ENDBRANCH   3  10
BRANCH   4  13
ATOM     13  N   UNL     1     -19.716  40.563 -11.847  0.00  0.00    +0.000 N 
ATOM     14  C   UNL     1     -19.258  39.279 -12.266  0.00  0.00    +0.000 C 
ATOM     15  H   UNL     1     -20.568  40.601 -11.301  0.00  0.00    +0.000 HD
ENDBRANCH   4  13
TORSDOF 2
ENDMDL
MODEL 3
REMARK VINA RESULT:    -4.826      3.219      3.719
REMARK INTER + INTRA:          -5.658
REMARK INTER:                  -5.296
REMARK INTRA:                  -0.362
REMARK UNBOUND:                -0.268
REMARK  Name = 90271760
REMARK  3 active torsions:
REMARK  status: ('A' for Active; 'I' for Inactive)
REMARK    1  A    between atoms: N_3  and  C_7
REMARK    2  A    between atoms: N_3  and  C_12
REMARK    3  A    between atoms: C_6  and  C_10
REMARK                            x       y       z     vdW  Elec       q    Type
REMARK                         _______ _______ _______ _____ _____    ______ ____
ROOT
ATOM      1  I   UNL     1     -18.536  40.835  -9.255  0.00  0.00    +0.000 I 
ATOM      2  N   UNL     1     -19.630  41.504 -13.378  0.00  0.00    +0.000 NA
ATOM      3  C   UNL     1     -17.938  43.153 -12.866  0.00  0.00    +0.000 A 
ATOM      4  C   UNL     1     -18.838  42.544 -13.725  0.00  0.00    +0.000 A 
ATOM      5  C   UNL     1     -17.843  42.663 -11.568  0.00  0.00    +0.000 A 
ATOM      6  C   UNL     1     -18.642  41.595 -11.173  0.00  0.00    +0.000 A 
ATOM      7  C   UNL     1     -19.511  41.056 -12.109  0.00  0.00    +0.000 A 
ENDROOT
BRANCH   3  10
ATOM      8  O   UNL     1     -17.590  45.367 -13.589  0.00  0.00    +0.000 OA
ATOM      9  N   UNL     1     -15.720  44.079 -13.268  0.00  0.00    +0.000 N 
ATOM     10  C   UNL     1     -17.098  44.272 -13.269  0.00  0.00    +0.000 C 
ATOM     11  H   UNL     1     -15.300  43.194 -13.004  0.00  0.00    +0.000 HD
ATOM     12  H   UNL     1     -15.088  44.826 -13.534  0.00  0.00    +0.000 HD
ENDBRANCH   3  10
BRANCH   4  13
ATOM     13  N   UNL     1     -18.940  43.038 -15.050  0.00  0.00    +0.000 N 
ATOM     14  C   UNL     1     -20.193  43.260 -15.694  0.00  0.00    +0.000 C 
ATOM     15  H   UNL     1     -18.119  42.955 -15.639  0.00  0.00    +0.000 HD
ENDBRANCH   4  13
TORSDOF 2
ENDMDL
MODEL 4
REMARK VINA RESULT:    -4.273      7.830      9.042
REMARK INTER + INTRA:          -5.041
REMARK INTER:                  -4.663
REMARK INTRA:                  -0.378
REMARK UNBOUND:                -0.268
REMARK  Name = 90271760
REMARK  3 active torsions:
REMARK  status: ('A' for Active; 'I' for Inactive)
REMARK    1  A    between atoms: N_3  and  C_7
REMARK    2  A    between atoms: N_3  and  C_12
REMARK    3  A    between atoms: C_6  and  C_10
REMARK                            x       y       z     vdW  Elec       q    Type
REMARK                         _______ _______ _______ _____ _____    ______ ____
ROOT
ATOM      1  I   UNL     1     -25.179  46.317 -17.680  0.00  0.00    +0.000 I 
ATOM      2  N   UNL     1     -20.907  46.749 -17.229  0.00  0.00    +0.000 NA
ATOM      3  C   UNL     1     -21.367  44.393 -16.948  0.00  0.00    +0.000 A 
ATOM      4  C   UNL     1     -20.507  45.478 -17.001  0.00  0.00    +0.000 A 
ATOM      5  C   UNL     1     -22.724  44.627 -17.145  0.00  0.00    +0.000 A 
ATOM      6  C   UNL     1     -23.173  45.921 -17.383  0.00  0.00    +0.000 A 
ATOM      7  C   UNL     1     -22.232  46.938 -17.416  0.00  0.00    +0.000 A 
ENDROOT
BRANCH   3  10
ATOM      8  O   UNL     1     -20.388  42.716 -15.615  0.00  0.00    +0.000 OA
ATOM      9  N   UNL     1     -21.084  42.096 -17.710  0.00  0.00    +0.000 N 
ATOM     10  C   UNL     1     -20.907  43.034 -16.698  0.00  0.00    +0.000 C 
ATOM     11  H   UNL     1     -21.512  42.335 -18.598  0.00  0.00    +0.000 HD
ATOM     12  H   UNL     1     -20.788  41.133 -17.587  0.00  0.00    +0.000 HD
ENDBRANCH   3  10
BRANCH   4  13
ATOM     13  N   UNL     1     -19.123  45.246 -16.801  0.00  0.00    +0.000 N 
ATOM     14  C   UNL     1     -18.425  45.707 -15.646  0.00  0.00    +0.000 C 
ATOM     15  H   UNL     1     -18.572  45.008 -17.617  0.00  0.00    +0.000 HD
ENDBRANCH   4  13
TORSDOF 2
ENDMDL
MODEL 5
REMARK VINA RESULT:    -4.162      3.907      4.859
REMARK INTER + INTRA:          -4.916
REMARK INTER:                  -4.548
REMARK INTRA:                  -0.368
REMARK UNBOUND:                -0.268
REMARK  Name = 90271760
REMARK  3 active torsions:
REMARK  status: ('A' for Active; 'I' for Inactive)
REMARK    1  A    between atoms: N_3  and  C_7
REMARK    2  A    between atoms: N_3  and  C_12
REMARK    3  A    between atoms: C_6  and  C_10
REMARK                            x       y       z     vdW  Elec       q    Type
REMARK                         _______ _______ _______ _____ _____    ______ ____
ROOT
ATOM      1  I   UNL     1     -18.811  39.789 -11.818  0.00  0.00    +0.000 I 
ATOM      2  N   UNL     1     -18.920  43.403 -14.180  0.00  0.00    +0.000 NA
ATOM      3  C   UNL     1     -16.829  43.466 -12.968  0.00  0.00    +0.000 A 
ATOM      4  C   UNL     1     -17.749  43.997 -13.858  0.00  0.00    +0.000 A 
ATOM      5  C   UNL     1     -17.129  42.245 -12.373  0.00  0.00    +0.000 A 
ATOM      6  C   UNL     1     -18.323  41.602 -12.679  0.00  0.00    +0.000 A 
ATOM      7  C   UNL     1     -19.177  42.218 -13.581  0.00  0.00    +0.000 A 
ENDROOT
BRANCH   3  10
ATOM      8  O   UNL     1     -15.559  45.272 -12.150  0.00  0.00    +0.000 OA
ATOM      9  N   UNL     1     -14.394  43.436 -12.879  0.00  0.00    +0.000 N 
ATOM     10  C   UNL     1     -15.575  44.131 -12.641  0.00  0.00    +0.000 C 
ATOM     11  H   UNL     1     -14.389  42.501 -13.272  0.00  0.00    +0.000 HD
ATOM     12  H   UNL     1     -13.493  43.849 -12.664  0.00  0.00    +0.000 HD
ENDBRANCH   3  10
BRANCH   4  13
ATOM     13  N   UNL     1     -17.450  45.241 -14.468  0.00  0.00    +0.000 N 
ATOM     14  C   UNL     1     -18.376  46.325 -14.499  0.00  0.00    +0.000 C 
ATOM     15  H   UNL     1     -16.689  45.257 -15.137  0.00  0.00    +0.000 HD
ENDBRANCH   4  13
TORSDOF 2
ENDMDL
