MODEL 1
REMARK VINA RESULT:    -6.558      0.000      0.000
REMARK INTER + INTRA:          -8.553
REMARK INTER:                  -8.284
REMARK INTRA:                  -0.269
REMARK UNBOUND:                -0.269
REMARK  Name = 90405501
REMARK  6 active torsions:
REMARK  status: ('A' for Active; 'I' for Inactive)
REMARK    1  A    between atoms: N_2  and  C_5
REMARK    2  A    between atoms: N_3  and  C_5
REMARK    3  A    between atoms: C_5  and  C_6
REMARK    4  A    between atoms: C_6  and  C_7
REMARK    5  A    between atoms: C_7  and  C_10
REMARK    6  A    between atoms: C_11  and  C_14
REMARK                            x       y       z     vdW  Elec       q    Type
REMARK                         _______ _______ _______ _____ _____    ______ ____
ROOT
ATOM      1  N   UNL     1     -18.914  41.026  -9.385  0.00  0.00    +0.000 N 
ATOM      2  C   UNL     1     -18.781  40.323 -10.519  0.00  0.00    +0.000 A 
ATOM      3  C   UNL     1     -18.326  42.217  -9.207  0.00  0.00    +0.000 A 
ATOM      4  C   UNL     1     -18.012  40.823 -11.561  0.00  0.00    +0.000 A 
ATOM      5  C   UNL     1     -17.545  42.766 -10.215  0.00  0.00    +0.000 A 
ATOM      6  C   UNL     1     -17.391  42.057 -11.403  0.00  0.00    +0.000 A 
ENDROOT
BRANCH   4   9
ATOM      7  O   UNL     1     -18.850  39.682 -13.443  0.00  0.00    +0.000 OA
ATOM      8  N   UNL     1     -16.569  39.805 -13.239  0.00  0.00    +0.000 N 
ATOM      9  C   UNL     1     -17.862  40.068 -12.793  0.00  0.00    +0.000 C 
ATOM     10  H   UNL     1     -15.716  40.087 -12.773  0.00  0.00    +0.000 HD
ATOM     11  H   UNL     1     -16.435  39.286 -14.101  0.00  0.00    +0.000 HD
ENDBRANCH   4   9
BRANCH   1  12
ATOM     12  C   UNL     1     -19.760  40.453  -8.264  0.00  0.00    +0.000 C 
BRANCH  12  13
ATOM     13  N   UNL     1     -20.965  39.812  -8.805  0.00  0.00    +0.000 NA
ATOM     14  H   UNL     1     -20.697  39.090  -9.472  0.00  0.00    +0.000 HD
ATOM     15  H   UNL     1     -21.528  40.488  -9.317  0.00  0.00    +0.000 HD
ENDBRANCH  12  13
BRANCH  12  16
ATOM     16  C   UNL     1     -20.173  41.504  -7.211  0.00  0.00    +0.000 C 
BRANCH  16  17
ATOM     17  C   UNL     1     -21.663  41.860  -7.280  0.00  0.00    +0.000 C 
ATOM     18  C   UNL     1     -22.102  42.643  -6.052  0.00  0.00    +0.000 C 
ENDBRANCH  16  17
ENDBRANCH  12  16
ENDBRANCH   1  12
TORSDOF 5
ENDMDL
MODEL 2
REMARK VINA RESULT:    -6.166      2.329      2.781
REMARK INTER + INTRA:          -8.057
REMARK INTER:                  -7.803
REMARK INTRA:                  -0.254
REMARK UNBOUND:                -0.269
REMARK  Name = 90405501
REMARK  6 active torsions:
REMARK  status: ('A' for Active; 'I' for Inactive)
REMARK    1  A    between atoms: N_2  and  C_5
REMARK    2  A    between atoms: N_3  and  C_5
REMARK    3  A    between atoms: C_5  and  C_6
REMARK    4  A    between atoms: C_6  and  C_7
REMARK    5  A    between atoms: C_7  and  C_10
REMARK    6  A    between atoms: C_11  and  C_14
REMARK                            x       y       z     vdW  Elec       q    Type
REMARK                         _______ _______ _______ _____ _____    ______ ____
ROOT
ATOM      1  N   UNL     1     -18.523  41.308 -11.131  0.00  0.00    +0.000 N 
ATOM      2  C   UNL     1     -19.055  41.566 -12.334  0.00  0.00    +0.000 A 
ATOM      3  C   UNL     1     -17.683  42.157 -10.521  0.00  0.00    +0.000 A 
ATOM      4  C   UNL     1     -18.742  42.746 -12.994  0.00  0.00    +0.000 A 
ATOM      5  C   UNL     1     -17.335  43.352 -11.134  0.00  0.00    +0.000 A 
ATOM      6  C   UNL     1     -17.873  43.645 -12.384  0.00  0.00    +0.000 A 
ENDROOT
BRANCH   4   9
ATOM      7  O   UNL     1     -20.319  42.432 -14.714  0.00  0.00    +0.000 OA
ATOM      8  N   UNL     1     -18.706  44.024 -15.068  0.00  0.00    +0.000 N 
ATOM      9  C   UNL     1     -19.312  43.034 -14.299  0.00  0.00    +0.000 C 
ATOM     10  H   UNL     1     -17.891  44.561 -14.802  0.00  0.00    +0.000 HD
ATOM     11  H   UNL     1     -19.089  44.250 -15.981  0.00  0.00    +0.000 HD
ENDBRANCH   4   9
BRANCH   1  12
ATOM     12  C   UNL     1     -18.883  40.010 -10.434  0.00  0.00    +0.000 C 
BRANCH  12  13
ATOM     13  N   UNL     1     -19.307  39.001 -11.413  0.00  0.00    +0.000 NA
ATOM     14  H   UNL     1     -20.322  38.919 -11.401  0.00  0.00    +0.000 HD
ATOM     15  H   UNL     1     -18.936  38.086 -11.164  0.00  0.00    +0.000 HD
ENDBRANCH  12  13
BRANCH  12  16
ATOM     16  C   UNL     1     -19.984  40.174  -9.365  0.00  0.00    +0.000 C 
BRANCH  16  17
ATOM     17  C   UNL     1     -19.419  40.477  -7.972  0.00  0.00    +0.000 C 
ATOM     18  C   UNL     1     -20.072  41.711  -7.366  0.00  0.00    +0.000 C 
ENDBRANCH  16  17
ENDBRANCH  12  16
ENDBRANCH   1  12
TORSDOF 5
ENDMDL
MODEL 3
REMARK VINA RESULT:    -6.088      1.847      2.433
REMARK INTER + INTRA:          -7.959
REMARK INTER:                  -7.688
REMARK INTRA:                  -0.271
REMARK UNBOUND:                -0.269
REMARK  Name = 90405501
REMARK  6 active torsions:
REMARK  status: ('A' for Active; 'I' for Inactive)
REMARK    1  A    between atoms: N_2  and  C_5
REMARK    2  A    between atoms: N_3  and  C_5
REMARK    3  A    between atoms: C_5  and  C_6
REMARK    4  A    between atoms: C_6  and  C_7
REMARK    5  A    between atoms: C_7  and  C_10
REMARK    6  A    between atoms: C_11  and  C_14
REMARK                            x       y       z     vdW  Elec       q    Type
REMARK                         _______ _______ _______ _____ _____    ______ ____
ROOT
ATOM      1  N   UNL     1     -18.960  40.312 -10.044  0.00  0.00    +0.000 N 
ATOM      2  C   UNL     1     -18.005  41.250 -10.107  0.00  0.00    +0.000 A 
ATOM      3  C   UNL     1     -19.265  39.527 -11.087  0.00  0.00    +0.000 A 
ATOM      4  C   UNL     1     -17.292  41.438 -11.283  0.00  0.00    +0.000 A 
ATOM      5  C   UNL     1     -18.583  39.669 -12.287  0.00  0.00    +0.000 A 
ATOM      6  C   UNL     1     -17.587  40.637 -12.381  0.00  0.00    +0.000 A 
ENDROOT
BRANCH   4   9
ATOM      7  O   UNL     1     -16.536  43.656 -11.514  0.00  0.00    +0.000 OA
ATOM      8  N   UNL     1     -14.931  42.040 -11.243  0.00  0.00    +0.000 N 
ATOM      9  C   UNL     1     -16.256  42.453 -11.362  0.00  0.00    +0.000 C 
ATOM     10  H   UNL     1     -14.621  41.085 -11.114  0.00  0.00    +0.000 HD
ATOM     11  H   UNL     1     -14.188  42.730 -11.288  0.00  0.00    +0.000 HD
ENDBRANCH   4   9
BRANCH   1  12
ATOM     12  C   UNL     1     -19.724  40.131  -8.745  0.00  0.00    +0.000 C 
BRANCH  12  13
ATOM     13  N   UNL     1     -21.119  39.762  -9.017  0.00  0.00    +0.000 NA
ATOM     14  H   UNL     1     -21.524  40.422  -9.678  0.00  0.00    +0.000 HD
ATOM     15  H   UNL     1     -21.675  39.822  -8.165  0.00  0.00    +0.000 HD
ENDBRANCH  12  13
BRANCH  12  16
ATOM     16  C   UNL     1     -19.696  41.379  -7.840  0.00  0.00    +0.000 C 
BRANCH  16  17
ATOM     17  C   UNL     1     -21.088  41.782  -7.339  0.00  0.00    +0.000 C 
ATOM     18  C   UNL     1     -21.084  42.036  -5.838  0.00  0.00    +0.000 C 
ENDBRANCH  16  17
ENDBRANCH  12  16
ENDBRANCH   1  12
TORSDOF 5
ENDMDL
MODEL 4
REMARK VINA RESULT:    -5.775      2.459      3.189
REMARK INTER + INTRA:          -7.564
REMARK INTER:                  -7.284
REMARK INTRA:                  -0.280
REMARK UNBOUND:                -0.269
REMARK  Name = 90405501
REMARK  6 active torsions:
REMARK  status: ('A' for Active; 'I' for Inactive)
REMARK    1  A    between atoms: N_2  and  C_5
REMARK    2  A    between atoms: N_3  and  C_5
REMARK    3  A    between atoms: C_5  and  C_6
REMARK    4  A    between atoms: C_6  and  C_7
REMARK    5  A    between atoms: C_7  and  C_10
REMARK    6  A    between atoms: C_11  and  C_14
REMARK                            x       y       z     vdW  Elec       q    Type
REMARK                         _______ _______ _______ _____ _____    ______ ____
ROOT
ATOM      1  N   UNL     1     -18.415  41.008 -11.379  0.00  0.00    +0.000 N 
ATOM      2  C   UNL     1     -17.178  41.457 -11.126  0.00  0.00    +0.000 A 
ATOM      3  C   UNL     1     -19.162  41.491 -12.382  0.00  0.00    +0.000 A 
ATOM      4  C   UNL     1     -16.626  42.458 -11.914  0.00  0.00    +0.000 A 
ATOM      5  C   UNL     1     -18.662  42.491 -13.203  0.00  0.00    +0.000 A 
ATOM      6  C   UNL     1     -17.379  42.977 -12.963  0.00  0.00    +0.000 A 
ENDROOT
BRANCH   4   9
ATOM      7  O   UNL     1     -14.972  44.133 -11.881  0.00  0.00    +0.000 OA
ATOM      8  N   UNL     1     -14.365  42.064 -11.098  0.00  0.00    +0.000 N 
ATOM      9  C   UNL     1     -15.287  42.952 -11.646  0.00  0.00    +0.000 C 
ATOM     10  H   UNL     1     -14.542  41.094 -10.874  0.00  0.00    +0.000 HD
ATOM     11  H   UNL     1     -13.424  42.386 -10.894  0.00  0.00    +0.000 HD
ENDBRANCH   4   9
BRANCH   1  12
ATOM     12  C   UNL     1     -18.991  39.914 -10.500  0.00  0.00    +0.000 C 
BRANCH  12  13
ATOM     13  N   UNL     1     -19.669  38.901 -11.318  0.00  0.00    +0.000 NA
ATOM     14  H   UNL     1     -19.851  39.278 -12.247  0.00  0.00    +0.000 HD
ATOM     15  H   UNL     1     -20.574  38.665 -10.915  0.00  0.00    +0.000 HD
ENDBRANCH  12  13
BRANCH  12  16
ATOM     16  C   UNL     1     -19.971  40.441  -9.430  0.00  0.00    +0.000 C 
BRANCH  16  17
ATOM     17  C   UNL     1     -19.318  40.600  -8.053  0.00  0.00    +0.000 C 
ATOM     18  C   UNL     1     -19.762  41.888  -7.374  0.00  0.00    +0.000 C 
ENDBRANCH  16  17
ENDBRANCH  12  16
ENDBRANCH   1  12
TORSDOF 5
ENDMDL
MODEL 5
REMARK VINA RESULT:    -5.401      2.507      5.086
REMARK INTER + INTRA:          -7.092
REMARK INTER:                  -6.758
REMARK INTRA:                  -0.333
REMARK UNBOUND:                -0.269
REMARK  Name = 90405501
REMARK  6 active torsions:
REMARK  status: ('A' for Active; 'I' for Inactive)
REMARK    1  A    between atoms: N_2  and  C_5
REMARK    2  A    between atoms: N_3  and  C_5
REMARK    3  A    between atoms: C_5  and  C_6
REMARK    4  A    between atoms: C_6  and  C_7
REMARK    5  A    between atoms: C_7  and  C_10
REMARK    6  A    between atoms: C_11  and  C_14
REMARK                            x       y       z     vdW  Elec       q    Type
REMARK                         _______ _______ _______ _____ _____    ______ ____
ROOT
ATOM      1  N   UNL     1     -17.867  41.823 -12.127  0.00  0.00    +0.000 N 
ATOM      2  C   UNL     1     -18.321  41.648 -10.878  0.00  0.00    +0.000 A 
ATOM      3  C   UNL     1     -18.016  40.895 -13.082  0.00  0.00    +0.000 A 
ATOM      4  C   UNL     1     -18.971  40.471 -10.534  0.00  0.00    +0.000 A 
ATOM      5  C   UNL     1     -18.659  39.698 -12.794  0.00  0.00    +0.000 A 
ATOM      6  C   UNL     1     -19.140  39.489 -11.505  0.00  0.00    +0.000 A 
ENDROOT
BRANCH   4   9
ATOM      7  O   UNL     1     -20.643  39.933  -8.965  0.00  0.00    +0.000 OA
ATOM      8  N   UNL     1     -18.570  40.451  -8.130  0.00  0.00    +0.000 N 
ATOM      9  C   UNL     1     -19.465  40.271  -9.183  0.00  0.00    +0.000 C 
ATOM     10  H   UNL     1     -17.599  40.720  -8.222  0.00  0.00    +0.000 HD
ATOM     11  H   UNL     1     -18.888  40.310  -7.177  0.00  0.00    +0.000 HD
ENDBRANCH   4   9
BRANCH   1  12
ATOM     12  C   UNL     1     -17.160  43.120 -12.474  0.00  0.00    +0.000 C 
BRANCH  12  13
ATOM     13  N   UNL     1     -15.757  42.863 -12.822  0.00  0.00    +0.000 NA
ATOM     14  H   UNL     1     -15.286  42.418 -12.036  0.00  0.00    +0.000 HD
ATOM     15  H   UNL     1     -15.268  43.739 -12.998  0.00  0.00    +0.000 HD
ENDBRANCH  12  13
BRANCH  12  16
ATOM     16  C   UNL     1     -17.219  44.170 -11.345  0.00  0.00    +0.000 C 
BRANCH  16  17
ATOM     17  C   UNL     1     -17.910  45.469 -11.776  0.00  0.00    +0.000 C 
ATOM     18  C   UNL     1     -18.497  45.346 -13.174  0.00  0.00    +0.000 C 
ENDBRANCH  16  17
ENDBRANCH  12  16
ENDBRANCH   1  12
TORSDOF 5
ENDMDL
