MODEL 1
REMARK VINA RESULT:    -6.660      0.000      0.000
REMARK INTER + INTRA:          -9.864
REMARK INTER:                  -9.385
REMARK INTRA:                  -0.478
REMARK UNBOUND:                -0.478
REMARK  Name = 90929211
REMARK  10 active torsions:
REMARK  status: ('A' for Active; 'I' for Inactive)
REMARK    1  A    between atoms: N_2  and  C_8
REMARK    2  A    between atoms: N_4  and  C_13
REMARK    3  A    between atoms: N_5  and  C_19
REMARK    4  A    between atoms: C_6  and  C_7
REMARK    5  A    between atoms: C_6  and  C_8
REMARK    6  A    between atoms: C_7  and  C_9
REMARK    7  A    between atoms: C_9  and  C_10
REMARK    8  A    between atoms: C_11  and  C_12
REMARK    9  A    between atoms: C_13  and  C_17
REMARK   10  A    between atoms: C_13  and  C_18
REMARK                            x       y       z     vdW  Elec       q    Type
REMARK                         _______ _______ _______ _____ _____    ______ ____
ROOT
ATOM      1  N   UNL     1     -19.652  41.930 -14.015  0.00  0.00    +0.000 NA
ATOM      2  C   UNL     1     -18.415  42.079 -11.944  0.00  0.00    +0.000 A 
ATOM      3  C   UNL     1     -17.966  43.348 -12.295  0.00  0.00    +0.000 A 
ATOM      4  C   UNL     1     -19.248  41.419 -12.831  0.00  0.00    +0.000 A 
ATOM      5  C   UNL     1     -18.359  43.909 -13.505  0.00  0.00    +0.000 A 
ATOM      6  C   UNL     1     -19.195  43.165 -14.323  0.00  0.00    +0.000 A 
ENDROOT
BRANCH   2   9
ATOM      7  O   UNL     1     -16.842  41.122 -10.492  0.00  0.00    +0.000 OA
ATOM      8  N   UNL     1     -19.017  41.310  -9.707  0.00  0.00    +0.000 N 
ATOM      9  C   UNL     1     -18.013  41.454 -10.658  0.00  0.00    +0.000 C 
ATOM     10  H   UNL     1     -19.973  41.565  -9.929  0.00  0.00    +0.000 HD
BRANCH   8  11
ATOM     11  C   UNL     1     -18.779  40.745  -8.407  0.00  0.00    +0.000 C 
BRANCH  11  12
ATOM     12  C   UNL     1     -19.755  41.292  -7.373  0.00  0.00    +0.000 C 
BRANCH  12  13
ATOM     13  C   UNL     1     -21.196  41.232  -7.879  0.00  0.00    +0.000 C 
BRANCH  13  14
ATOM     14  C   UNL     1     -22.162  41.888  -6.893  0.00  0.00    +0.000 C 
ATOM     15  C   UNL     1     -21.454  42.300  -5.611  0.00  0.00    +0.000 C 
ENDBRANCH  13  14
ENDBRANCH  12  13
ENDBRANCH  11  12
ENDBRANCH   8  11
ENDBRANCH   2   9
BRANCH   6  17
ATOM     16  N   UNL     1     -20.038  42.763 -16.283  0.00  0.00    +0.000 NA
ATOM     17  N   UNL     1     -19.620  43.686 -15.548  0.00  0.00    +0.000 NA
BRANCH  16  18
ATOM     18  C   UNL     1     -20.494  43.262 -17.580  0.00  0.00    +0.000 C 
ATOM     19  C   UNL     1     -19.305  43.843 -18.332  0.00  0.00    +0.000 C 
ATOM     20  C   UNL     1     -21.581  44.302 -17.356  0.00  0.00    +0.000 C 
ENDBRANCH  16  18
ENDBRANCH   6  17
TORSDOF 7
ENDMDL
MODEL 2
REMARK VINA RESULT:    -5.972      2.447      3.041
REMARK INTER + INTRA:          -8.893
REMARK INTER:                  -8.417
REMARK INTRA:                  -0.476
REMARK UNBOUND:                -0.478
REMARK  Name = 90929211
REMARK  10 active torsions:
REMARK  status: ('A' for Active; 'I' for Inactive)
REMARK    1  A    between atoms: N_2  and  C_8
REMARK    2  A    between atoms: N_4  and  C_13
REMARK    3  A    between atoms: N_5  and  C_19
REMARK    4  A    between atoms: C_6  and  C_7
REMARK    5  A    between atoms: C_6  and  C_8
REMARK    6  A    between atoms: C_7  and  C_9
REMARK    7  A    between atoms: C_9  and  C_10
REMARK    8  A    between atoms: C_11  and  C_12
REMARK    9  A    between atoms: C_13  and  C_17
REMARK   10  A    between atoms: C_13  and  C_18
REMARK                            x       y       z     vdW  Elec       q    Type
REMARK                         _______ _______ _______ _____ _____    ______ ____
ROOT
ATOM      1  N   UNL     1     -19.358  43.646 -14.847  0.00  0.00    +0.000 NA
ATOM      2  C   UNL     1     -19.076  42.328 -12.840  0.00  0.00    +0.000 A 
ATOM      3  C   UNL     1     -18.344  43.358 -12.258  0.00  0.00    +0.000 A 
ATOM      4  C   UNL     1     -19.556  42.521 -14.124  0.00  0.00    +0.000 A 
ATOM      5  C   UNL     1     -18.119  44.532 -12.969  0.00  0.00    +0.000 A 
ATOM      6  C   UNL     1     -18.642  44.625 -14.249  0.00  0.00    +0.000 A 
ENDROOT
BRANCH   2   9
ATOM      7  O   UNL     1     -19.615  40.048 -12.740  0.00  0.00    +0.000 OA
ATOM      8  N   UNL     1     -19.213  41.121 -10.723  0.00  0.00    +0.000 N 
ATOM      9  C   UNL     1     -19.335  41.063 -12.106  0.00  0.00    +0.000 C 
ATOM     10  H   UNL     1     -19.023  42.004 -10.262  0.00  0.00    +0.000 HD
BRANCH   8  11
ATOM     11  C   UNL     1     -19.408  39.975  -9.878  0.00  0.00    +0.000 C 
BRANCH  11  12
ATOM     12  C   UNL     1     -20.194  40.334  -8.622  0.00  0.00    +0.000 C 
BRANCH  12  13
ATOM     13  C   UNL     1     -19.447  41.362  -7.772  0.00  0.00    +0.000 C 
BRANCH  13  14
ATOM     14  C   UNL     1     -20.344  41.934  -6.674  0.00  0.00    +0.000 C 
ATOM     15  C   UNL     1     -21.794  42.017  -7.126  0.00  0.00    +0.000 C 
ENDBRANCH  13  14
ENDBRANCH  12  13
ENDBRANCH  11  12
ENDBRANCH   8  11
ENDBRANCH   2   9
BRANCH   6  17
ATOM     16  N   UNL     1     -18.630  46.796 -14.288  0.00  0.00    +0.000 NA
ATOM     17  N   UNL     1     -18.444  45.785 -15.003  0.00  0.00    +0.000 NA
BRANCH  16  18
ATOM     18  C   UNL     1     -18.434  48.037 -15.035  0.00  0.00    +0.000 C 
ATOM     19  C   UNL     1     -18.374  49.200 -14.055  0.00  0.00    +0.000 C 
ATOM     20  C   UNL     1     -19.571  48.200 -16.032  0.00  0.00    +0.000 C 
ENDBRANCH  16  18
ENDBRANCH   6  17
TORSDOF 7
ENDMDL
MODEL 3
REMARK VINA RESULT:    -5.898      1.372      1.823
REMARK INTER + INTRA:          -8.790
REMARK INTER:                  -8.328
REMARK INTRA:                  -0.462
REMARK UNBOUND:                -0.478
REMARK  Name = 90929211
REMARK  10 active torsions:
REMARK  status: ('A' for Active; 'I' for Inactive)
REMARK    1  A    between atoms: N_2  and  C_8
REMARK    2  A    between atoms: N_4  and  C_13
REMARK    3  A    between atoms: N_5  and  C_19
REMARK    4  A    between atoms: C_6  and  C_7
REMARK    5  A    between atoms: C_6  and  C_8
REMARK    6  A    between atoms: C_7  and  C_9
REMARK    7  A    between atoms: C_9  and  C_10
REMARK    8  A    between atoms: C_11  and  C_12
REMARK    9  A    between atoms: C_13  and  C_17
REMARK   10  A    between atoms: C_13  and  C_18
REMARK                            x       y       z     vdW  Elec       q    Type
REMARK                         _______ _______ _______ _____ _____    ______ ____
ROOT
ATOM      1  N   UNL     1     -18.070  44.695 -13.654  0.00  0.00    +0.000 NA
ATOM      2  C   UNL     1     -18.510  42.672 -12.407  0.00  0.00    +0.000 A 
ATOM      3  C   UNL     1     -19.368  42.232 -13.409  0.00  0.00    +0.000 A 
ATOM      4  C   UNL     1     -17.892  43.899 -12.577  0.00  0.00    +0.000 A 
ATOM      5  C   UNL     1     -19.577  43.022 -14.535  0.00  0.00    +0.000 A 
ATOM      6  C   UNL     1     -18.911  44.235 -14.608  0.00  0.00    +0.000 A 
ENDROOT
BRANCH   2   9
ATOM      7  O   UNL     1     -17.176  41.925 -10.629  0.00  0.00    +0.000 OA
ATOM      8  N   UNL     1     -19.323  41.058 -10.767  0.00  0.00    +0.000 N 
ATOM      9  C   UNL     1     -18.265  41.851 -11.194  0.00  0.00    +0.000 C 
ATOM     10  H   UNL     1     -20.180  41.011 -11.308  0.00  0.00    +0.000 HD
BRANCH   8  11
ATOM     11  C   UNL     1     -19.248  40.227  -9.597  0.00  0.00    +0.000 C 
BRANCH  11  12
ATOM     12  C   UNL     1     -20.559  40.235  -8.820  0.00  0.00    +0.000 C 
BRANCH  12  13
ATOM     13  C   UNL     1     -20.579  41.347  -7.772  0.00  0.00    +0.000 C 
BRANCH  13  14
ATOM     14  C   UNL     1     -21.979  41.537  -7.188  0.00  0.00    +0.000 C 
ATOM     15  C   UNL     1     -22.171  42.944  -6.644  0.00  0.00    +0.000 C 
ENDBRANCH  13  14
ENDBRANCH  12  13
ENDBRANCH  11  12
ENDBRANCH   8  11
ENDBRANCH   2   9
BRANCH   6  17
ATOM     16  N   UNL     1     -19.954  44.578 -16.481  0.00  0.00    +0.000 NA
ATOM     17  N   UNL     1     -19.087  45.064 -15.720  0.00  0.00    +0.000 NA
BRANCH  16  18
ATOM     18  C   UNL     1     -20.173  45.413 -17.662  0.00  0.00    +0.000 C 
ATOM     19  C   UNL     1     -20.806  46.727 -17.227  0.00  0.00    +0.000 C 
ATOM     20  C   UNL     1     -21.059  44.659 -18.643  0.00  0.00    +0.000 C 
ENDBRANCH  16  18
ENDBRANCH   6  17
TORSDOF 7
ENDMDL
MODEL 4
REMARK VINA RESULT:    -5.806      3.597      7.222
REMARK INTER + INTRA:          -8.660
REMARK INTER:                  -8.033
REMARK INTRA:                  -0.628
REMARK UNBOUND:                -0.478
REMARK  Name = 90929211
REMARK  10 active torsions:
REMARK  status: ('A' for Active; 'I' for Inactive)
REMARK    1  A    between atoms: N_2  and  C_8
REMARK    2  A    between atoms: N_4  and  C_13
REMARK    3  A    between atoms: N_5  and  C_19
REMARK    4  A    between atoms: C_6  and  C_7
REMARK    5  A    between atoms: C_6  and  C_8
REMARK    6  A    between atoms: C_7  and  C_9
REMARK    7  A    between atoms: C_9  and  C_10
REMARK    8  A    between atoms: C_11  and  C_12
REMARK    9  A    between atoms: C_13  and  C_17
REMARK   10  A    between atoms: C_13  and  C_18
REMARK                            x       y       z     vdW  Elec       q    Type
REMARK                         _______ _______ _______ _____ _____    ______ ____
ROOT
ATOM      1  N   UNL     1     -19.777  40.636 -10.300  0.00  0.00    +0.000 NA
ATOM      2  C   UNL     1     -17.893  41.901 -11.135  0.00  0.00    +0.000 A 
ATOM      3  C   UNL     1     -17.701  42.459  -9.876  0.00  0.00    +0.000 A 
ATOM      4  C   UNL     1     -18.936  41.003 -11.293  0.00  0.00    +0.000 A 
ATOM      5  C   UNL     1     -18.545  42.107  -8.828  0.00  0.00    +0.000 A 
ATOM      6  C   UNL     1     -19.560  41.199  -9.090  0.00  0.00    +0.000 A 
ENDROOT
BRANCH   2   9
ATOM      7  O   UNL     1     -17.033  41.567 -13.290  0.00  0.00    +0.000 OA
ATOM      8  N   UNL     1     -16.216  43.385 -12.104  0.00  0.00    +0.000 N 
ATOM      9  C   UNL     1     -17.008  42.256 -12.274  0.00  0.00    +0.000 C 
ATOM     10  H   UNL     1     -16.214  43.882 -11.220  0.00  0.00    +0.000 HD
BRANCH   8  11
ATOM     11  C   UNL     1     -15.327  43.870 -13.124  0.00  0.00    +0.000 C 
BRANCH  11  12
ATOM     12  C   UNL     1     -15.378  45.389 -13.236  0.00  0.00    +0.000 C 
BRANCH  12  13
ATOM     13  C   UNL     1     -15.875  46.027 -11.938  0.00  0.00    +0.000 C 
BRANCH  13  14
ATOM     14  C   UNL     1     -17.018  47.007 -12.202  0.00  0.00    +0.000 C 
ATOM     15  C   UNL     1     -18.204  46.740 -11.288  0.00  0.00    +0.000 C 
ENDBRANCH  13  14
ENDBRANCH  12  13
ENDBRANCH  11  12
ENDBRANCH   8  11
ENDBRANCH   2   9
BRANCH   6  17
ATOM     16  N   UNL     1     -21.108  41.795  -7.690  0.00  0.00    +0.000 NA
ATOM     17  N   UNL     1     -20.432  40.812  -8.069  0.00  0.00    +0.000 NA
BRANCH  16  18
ATOM     18  C   UNL     1     -22.038  41.438  -6.619  0.00  0.00    +0.000 C 
ATOM     19  C   UNL     1     -23.354  40.990  -7.238  0.00  0.00    +0.000 C 
ATOM     20  C   UNL     1     -22.226  42.641  -5.706  0.00  0.00    +0.000 C 
ENDBRANCH  16  18
ENDBRANCH   6  17
TORSDOF 7
ENDMDL
MODEL 5
REMARK VINA RESULT:    -5.475      3.768      5.052
REMARK INTER + INTRA:          -8.193
REMARK INTER:                  -7.730
REMARK INTRA:                  -0.463
REMARK UNBOUND:                -0.478
REMARK  Name = 90929211
REMARK  10 active torsions:
REMARK  status: ('A' for Active; 'I' for Inactive)
REMARK    1  A    between atoms: N_2  and  C_8
REMARK    2  A    between atoms: N_4  and  C_13
REMARK    3  A    between atoms: N_5  and  C_19
REMARK    4  A    between atoms: C_6  and  C_7
REMARK    5  A    between atoms: C_6  and  C_8
REMARK    6  A    between atoms: C_7  and  C_9
REMARK    7  A    between atoms: C_9  and  C_10
REMARK    8  A    between atoms: C_11  and  C_12
REMARK    9  A    between atoms: C_13  and  C_17
REMARK   10  A    between atoms: C_13  and  C_18
REMARK                            x       y       z     vdW  Elec       q    Type
REMARK                         _______ _______ _______ _____ _____    ______ ____
ROOT
ATOM      1  N   UNL     1     -16.963  45.117 -11.859  0.00  0.00    +0.000 NA
ATOM      2  C   UNL     1     -17.058  42.826 -11.091  0.00  0.00    +0.000 A 
ATOM      3  C   UNL     1     -15.708  42.665 -11.382  0.00  0.00    +0.000 A 
ATOM      4  C   UNL     1     -17.632  44.061 -11.345  0.00  0.00    +0.000 A 
ATOM      5  C   UNL     1     -14.984  43.728 -11.911  0.00  0.00    +0.000 A 
ATOM      6  C   UNL     1     -15.652  44.923 -12.129  0.00  0.00    +0.000 A 
ENDROOT
BRANCH   2   9
ATOM      7  O   UNL     1     -18.286  40.838 -11.276  0.00  0.00    +0.000 OA
ATOM      8  N   UNL     1     -18.046  41.729  -9.148  0.00  0.00    +0.000 N 
ATOM      9  C   UNL     1     -17.858  41.711 -10.525  0.00  0.00    +0.000 C 
ATOM     10  H   UNL     1     -17.702  42.506  -8.594  0.00  0.00    +0.000 HD
BRANCH   8  11
ATOM     11  C   UNL     1     -18.776  40.706  -8.450  0.00  0.00    +0.000 C 
BRANCH  11  12
ATOM     12  C   UNL     1     -20.169  41.183  -8.056  0.00  0.00    +0.000 C 
BRANCH  12  13
ATOM     13  C   UNL     1     -20.151  41.900  -6.706  0.00  0.00    +0.000 C 
BRANCH  13  14
ATOM     14  C   UNL     1     -21.564  42.262  -6.249  0.00  0.00    +0.000 C 
ATOM     15  C   UNL     1     -22.619  41.588  -7.112  0.00  0.00    +0.000 C 
ENDBRANCH  13  14
ENDBRANCH  12  13
ENDBRANCH  11  12
ENDBRANCH   8  11
ENDBRANCH   2   9
BRANCH   6  17
ATOM     16  N   UNL     1     -14.171  46.477 -11.806  0.00  0.00    +0.000 NA
ATOM     17  N   UNL     1     -14.967  46.021 -12.657  0.00  0.00    +0.000 NA
BRANCH  16  18
ATOM     18  C   UNL     1     -13.430  47.631 -12.315  0.00  0.00    +0.000 C 
ATOM     19  C   UNL     1     -13.977  48.005 -13.685  0.00  0.00    +0.000 C 
ATOM     20  C   UNL     1     -11.950  47.280 -12.376  0.00  0.00    +0.000 C 
ENDBRANCH  16  18
ENDBRANCH   6  17
TORSDOF 7
ENDMDL
