MODEL 1
REMARK VINA RESULT:    -5.829      0.000      0.000
REMARK INTER + INTRA:          -7.121
REMARK INTER:                  -6.851
REMARK INTRA:                  -0.271
REMARK UNBOUND:                -0.271
REMARK  Name = 90954548
REMARK  6 active torsions:
REMARK  status: ('A' for Active; 'I' for Inactive)
REMARK    1  A    between atoms: N_2  and  C_6
REMARK    2  A    between atoms: N_3  and  C_10
REMARK    3  A    between atoms: N_5  and  C_15
REMARK    4  A    between atoms: C_6  and  C_7
REMARK    5  A    between atoms: C_6  and  C_8
REMARK    6  A    between atoms: C_9  and  C_14
REMARK                            x       y       z     vdW  Elec       q    Type
REMARK                         _______ _______ _______ _____ _____    ______ ____
ROOT
ATOM      1  N   UNL     1     -19.729  41.559 -13.514  0.00  0.00    +0.000 NA
ATOM      2  C   UNL     1     -18.609  41.597 -11.372  0.00  0.00    +0.000 A 
ATOM      3  C   UNL     1     -19.099  42.717 -13.812  0.00  0.00    +0.000 A 
ATOM      4  C   UNL     1     -17.979  42.788 -11.715  0.00  0.00    +0.000 A 
ATOM      5  C   UNL     1     -18.223  43.365 -12.956  0.00  0.00    +0.000 A 
ATOM      6  C   UNL     1     -19.467  41.028 -12.299  0.00  0.00    +0.000 A 
ENDROOT
BRANCH   2   9
ATOM      7  O   UNL     1     -17.327  40.329  -9.872  0.00  0.00    +0.000 OA
ATOM      8  N   UNL     1     -19.360  41.137  -9.104  0.00  0.00    +0.000 N 
ATOM      9  C   UNL     1     -18.374  40.969 -10.083  0.00  0.00    +0.000 C 
ATOM     10  C   UNL     1     -19.263  40.594  -7.768  0.00  0.00    +0.000 C 
ATOM     11  H   UNL     1     -20.161  41.733  -9.289  0.00  0.00    +0.000 HD
ENDBRANCH   2   9
BRANCH   3  13
ATOM     12  N   UNL     1     -20.404  42.725 -15.543  0.00  0.00    +0.000 NA
ATOM     13  N   UNL     1     -19.379  43.261 -15.076  0.00  0.00    +0.000 NA
BRANCH  12  14
ATOM     14  C   UNL     1     -20.737  43.264 -16.865  0.00  0.00    +0.000 C 
ATOM     15  C   UNL     1     -22.143  43.844 -16.822  0.00  0.00    +0.000 C 
ATOM     16  C   UNL     1     -19.704  44.315 -17.246  0.00  0.00    +0.000 C 
ENDBRANCH  12  14
ENDBRANCH   3  13
TORSDOF 3
ENDMDL
MODEL 2
REMARK VINA RESULT:    -5.175      2.632      6.518
REMARK INTER + INTRA:          -6.354
REMARK INTER:                  -6.077
REMARK INTRA:                  -0.277
REMARK UNBOUND:                -0.271
REMARK  Name = 90954548
REMARK  6 active torsions:
REMARK  status: ('A' for Active; 'I' for Inactive)
REMARK    1  A    between atoms: N_2  and  C_6
REMARK    2  A    between atoms: N_3  and  C_10
REMARK    3  A    between atoms: N_5  and  C_15
REMARK    4  A    between atoms: C_6  and  C_7
REMARK    5  A    between atoms: C_6  and  C_8
REMARK    6  A    between atoms: C_9  and  C_14
REMARK                            x       y       z     vdW  Elec       q    Type
REMARK                         _______ _______ _______ _____ _____    ______ ____
ROOT
ATOM      1  N   UNL     1     -17.904  43.503 -11.901  0.00  0.00    +0.000 NA
ATOM      2  C   UNL     1     -18.771  44.029 -14.096  0.00  0.00    +0.000 A 
ATOM      3  C   UNL     1     -18.568  42.328 -11.972  0.00  0.00    +0.000 A 
ATOM      4  C   UNL     1     -19.440  42.811 -14.131  0.00  0.00    +0.000 A 
ATOM      5  C   UNL     1     -19.342  41.938 -13.054  0.00  0.00    +0.000 A 
ATOM      6  C   UNL     1     -18.023  44.325 -12.968  0.00  0.00    +0.000 A 
ENDROOT
BRANCH   2   9
ATOM      7  O   UNL     1     -17.952  45.799 -15.398  0.00  0.00    +0.000 OA
ATOM      8  N   UNL     1     -19.969  44.857 -16.046  0.00  0.00    +0.000 N 
ATOM      9  C   UNL     1     -18.854  44.963 -15.206  0.00  0.00    +0.000 C 
ATOM     10  C   UNL     1     -20.183  45.697 -17.202  0.00  0.00    +0.000 C 
ATOM     11  H   UNL     1     -20.641  44.110 -15.903  0.00  0.00    +0.000 HD
ENDBRANCH   2   9
BRANCH   3  13
ATOM     12  N   UNL     1     -19.562  41.048 -10.533  0.00  0.00    +0.000 NA
ATOM     13  N   UNL     1     -18.439  41.481 -10.859  0.00  0.00    +0.000 NA
BRANCH  12  14
ATOM     14  C   UNL     1     -19.478  40.156  -9.372  0.00  0.00    +0.000 C 
ATOM     15  C   UNL     1     -18.481  40.732  -8.378  0.00  0.00    +0.000 C 
ATOM     16  C   UNL     1     -20.863  40.007  -8.760  0.00  0.00    +0.000 C 
ENDBRANCH  12  14
ENDBRANCH   3  13
TORSDOF 3
ENDMDL
MODEL 3
REMARK VINA RESULT:    -5.144      2.421      2.898
REMARK INTER + INTRA:          -6.317
REMARK INTER:                  -6.042
REMARK INTRA:                  -0.275
REMARK UNBOUND:                -0.271
REMARK  Name = 90954548
REMARK  6 active torsions:
REMARK  status: ('A' for Active; 'I' for Inactive)
REMARK    1  A    between atoms: N_2  and  C_6
REMARK    2  A    between atoms: N_3  and  C_10
REMARK    3  A    between atoms: N_5  and  C_15
REMARK    4  A    between atoms: C_6  and  C_7
REMARK    5  A    between atoms: C_6  and  C_8
REMARK    6  A    between atoms: C_9  and  C_14
REMARK                            x       y       z     vdW  Elec       q    Type
REMARK                         _______ _______ _______ _____ _____    ______ ____
ROOT
ATOM      1  N   UNL     1     -19.511  41.892 -13.922  0.00  0.00    +0.000 NA
ATOM      2  C   UNL     1     -17.667  43.036 -12.856  0.00  0.00    +0.000 A 
ATOM      3  C   UNL     1     -19.700  42.998 -14.675  0.00  0.00    +0.000 A 
ATOM      4  C   UNL     1     -17.893  44.155 -13.650  0.00  0.00    +0.000 A 
ATOM      5  C   UNL     1     -18.927  44.144 -14.579  0.00  0.00    +0.000 A 
ATOM      6  C   UNL     1     -18.496  41.940 -13.030  0.00  0.00    +0.000 A 
ENDROOT
BRANCH   2   9
ATOM      7  O   UNL     1     -16.842  42.840 -10.669  0.00  0.00    +0.000 OA
ATOM      8  N   UNL     1     -15.289  43.180 -12.357  0.00  0.00    +0.000 N 
ATOM      9  C   UNL     1     -16.594  43.016 -11.876  0.00  0.00    +0.000 C 
ATOM     10  C   UNL     1     -14.117  43.161 -11.513  0.00  0.00    +0.000 C 
ATOM     11  H   UNL     1     -15.122  43.239 -13.356  0.00  0.00    +0.000 HD
ENDBRANCH   2   9
BRANCH   3  13
ATOM     12  N   UNL     1     -20.609  43.829 -16.460  0.00  0.00    +0.000 NA
ATOM     13  N   UNL     1     -20.758  42.939 -15.598  0.00  0.00    +0.000 NA
BRANCH  12  14
ATOM     14  C   UNL     1     -21.691  43.805 -17.449  0.00  0.00    +0.000 C 
ATOM     15  C   UNL     1     -22.887  44.564 -16.890  0.00  0.00    +0.000 C 
ATOM     16  C   UNL     1     -21.189  44.421 -18.747  0.00  0.00    +0.000 C 
ENDBRANCH  12  14
ENDBRANCH   3  13
TORSDOF 3
ENDMDL
MODEL 4
REMARK VINA RESULT:    -5.036      3.188      6.570
REMARK INTER + INTRA:          -6.190
REMARK INTER:                  -5.901
REMARK INTRA:                  -0.289
REMARK UNBOUND:                -0.271
REMARK  Name = 90954548
REMARK  6 active torsions:
REMARK  status: ('A' for Active; 'I' for Inactive)
REMARK    1  A    between atoms: N_2  and  C_6
REMARK    2  A    between atoms: N_3  and  C_10
REMARK    3  A    between atoms: N_5  and  C_15
REMARK    4  A    between atoms: C_6  and  C_7
REMARK    5  A    between atoms: C_6  and  C_8
REMARK    6  A    between atoms: C_9  and  C_14
REMARK                            x       y       z     vdW  Elec       q    Type
REMARK                         _______ _______ _______ _____ _____    ______ ____
ROOT
ATOM      1  N   UNL     1     -19.703  42.312 -14.756  0.00  0.00    +0.000 NA
ATOM      2  C   UNL     1     -19.573  44.480 -15.818  0.00  0.00    +0.000 A 
ATOM      3  C   UNL     1     -18.806  42.756 -13.847  0.00  0.00    +0.000 A 
ATOM      4  C   UNL     1     -18.653  44.900 -14.864  0.00  0.00    +0.000 A 
ATOM      5  C   UNL     1     -18.256  44.028 -13.857  0.00  0.00    +0.000 A 
ATOM      6  C   UNL     1     -20.064  43.189 -15.720  0.00  0.00    +0.000 A 
ENDROOT
BRANCH   2   9
ATOM      7  O   UNL     1     -19.967  44.999 -18.071  0.00  0.00    +0.000 OA
ATOM      8  N   UNL     1     -20.488  46.628 -16.505  0.00  0.00    +0.000 N 
ATOM      9  C   UNL     1     -20.008  45.368 -16.883  0.00  0.00    +0.000 C 
ATOM     10  C   UNL     1     -20.977  47.613 -17.443  0.00  0.00    +0.000 C 
ATOM     11  H   UNL     1     -20.581  46.860 -15.521  0.00  0.00    +0.000 HD
ENDBRANCH   2   9
BRANCH   3  13
ATOM     12  N   UNL     1     -18.807  40.693 -13.180  0.00  0.00    +0.000 NA
ATOM     13  N   UNL     1     -18.435  41.838 -12.851  0.00  0.00    +0.000 NA
BRANCH  12  14
ATOM     14  C   UNL     1     -18.440  39.698 -12.168  0.00  0.00    +0.000 C 
ATOM     15  C   UNL     1     -16.941  39.772 -11.922  0.00  0.00    +0.000 C 
ATOM     16  C   UNL     1     -19.235  39.968 -10.898  0.00  0.00    +0.000 C 
ENDBRANCH  12  14
ENDBRANCH   3  13
TORSDOF 3
ENDMDL
MODEL 5
REMARK VINA RESULT:    -4.663      4.229      6.750
REMARK INTER + INTRA:          -5.751
REMARK INTER:                  -5.473
REMARK INTRA:                  -0.278
REMARK UNBOUND:                -0.271
REMARK  Name = 90954548
REMARK  6 active torsions:
REMARK  status: ('A' for Active; 'I' for Inactive)
REMARK    1  A    between atoms: N_2  and  C_6
REMARK    2  A    between atoms: N_3  and  C_10
REMARK    3  A    between atoms: N_5  and  C_15
REMARK    4  A    between atoms: C_6  and  C_7
REMARK    5  A    between atoms: C_6  and  C_8
REMARK    6  A    between atoms: C_9  and  C_14
REMARK                            x       y       z     vdW  Elec       q    Type
REMARK                         _______ _______ _______ _____ _____    ______ ____
ROOT
ATOM      1  N   UNL     1     -16.357  43.088 -12.252  0.00  0.00    +0.000 NA
ATOM      2  C   UNL     1     -16.251  45.302 -13.218  0.00  0.00    +0.000 A 
ATOM      3  C   UNL     1     -17.213  43.583 -11.330  0.00  0.00    +0.000 A 
ATOM      4  C   UNL     1     -17.134  45.773 -12.253  0.00  0.00    +0.000 A 
ATOM      5  C   UNL     1     -17.628  44.904 -11.287  0.00  0.00    +0.000 A 
ATOM      6  C   UNL     1     -15.898  43.963 -13.175  0.00  0.00    +0.000 A 
ENDROOT
BRANCH   2   9
ATOM      7  O   UNL     1     -15.214  47.280 -13.932  0.00  0.00    +0.000 OA
ATOM      8  N   UNL     1     -15.778  45.735 -15.566  0.00  0.00    +0.000 N 
ATOM      9  C   UNL     1     -15.717  46.185 -14.242  0.00  0.00    +0.000 C 
ATOM     10  C   UNL     1     -15.270  46.486 -16.691  0.00  0.00    +0.000 C 
ATOM     11  H   UNL     1     -16.123  44.802 -15.768  0.00  0.00    +0.000 HD
ENDBRANCH   2   9
BRANCH   3  13
ATOM     12  N   UNL     1     -17.709  41.523 -10.872  0.00  0.00    +0.000 NA
ATOM     13  N   UNL     1     -17.683  42.667 -10.374  0.00  0.00    +0.000 NA
BRANCH  12  14
ATOM     14  C   UNL     1     -18.194  40.530  -9.908  0.00  0.00    +0.000 C 
ATOM     15  C   UNL     1     -18.600  41.242  -8.627  0.00  0.00    +0.000 C 
ATOM     16  C   UNL     1     -19.360  39.771 -10.526  0.00  0.00    +0.000 C 
ENDBRANCH  12  14
ENDBRANCH   3  13
TORSDOF 3
ENDMDL
