MODEL 1
REMARK VINA RESULT:    -7.708      0.000      0.000
REMARK INTER + INTRA:          -9.462
REMARK INTER:                  -9.060
REMARK INTRA:                  -0.402
REMARK UNBOUND:                -0.402
REMARK  Name = 91205842
REMARK  3 active torsions:
REMARK  status: ('A' for Active; 'I' for Inactive)
REMARK    1  A    between atoms: N_2  and  C_6
REMARK    2  A    between atoms: C_6  and  C_7
REMARK    3  A    between atoms: C_10  and  C_11
REMARK                            x       y       z     vdW  Elec       q    Type
REMARK                         _______ _______ _______ _____ _____    ______ ____
ROOT
ATOM      1  O   UNL     1     -18.357  40.813  -8.290  0.00  0.00    +0.000 OA
ATOM      2  N   UNL     1     -20.000  40.221  -9.814  0.00  0.00    +0.000 N 
ATOM      3  C   UNL     1     -19.561  40.763  -8.600  0.00  0.00    +0.000 C 
ATOM      4  H   UNL     1     -20.994  40.159 -10.012  0.00  0.00    +0.000 HD
ENDROOT
BRANCH   3   6
ATOM      5  N   UNL     1     -22.918  41.414  -7.098  0.00  0.00    +0.000 NA
ATOM      6  C   UNL     1     -20.580  41.253  -7.688  0.00  0.00    +0.000 A 
ATOM      7  C   UNL     1     -20.237  42.000  -6.566  0.00  0.00    +0.000 A 
ATOM      8  C   UNL     1     -21.922  40.989  -7.906  0.00  0.00    +0.000 A 
ATOM      9  C   UNL     1     -21.234  42.454  -5.709  0.00  0.00    +0.000 A 
ATOM     10  C   UNL     1     -22.547  42.138  -6.017  0.00  0.00    +0.000 A 
ENDBRANCH   3   6
BRANCH   2  11
ATOM     11  C   UNL     1     -19.112  39.672 -10.814  0.00  0.00    +0.000 C 
BRANCH  11  14
ATOM     12  N   UNL     1     -17.746  42.670 -13.573  0.00  0.00    +0.000 NA
ATOM     13  N   UNL     1     -19.902  42.696 -14.587  0.00  0.00    +0.000 N 
ATOM     14  C   UNL     1     -18.636  40.720 -11.778  0.00  0.00    +0.000 A 
ATOM     15  C   UNL     1     -19.499  41.226 -12.743  0.00  0.00    +0.000 A 
ATOM     16  C   UNL     1     -17.328  41.188 -11.709  0.00  0.00    +0.000 A 
ATOM     17  C   UNL     1     -19.010  42.191 -13.609  0.00  0.00    +0.000 A 
ATOM     18  C   UNL     1     -16.936  42.154 -12.622  0.00  0.00    +0.000 A 
ATOM     19  H   UNL     1     -20.651  42.097 -14.913  0.00  0.00    +0.000 HD
ATOM     20  H   UNL     1     -19.538  43.397 -15.222  0.00  0.00    +0.000 HD
ENDBRANCH  11  14
ENDBRANCH   2  11
TORSDOF 3
ENDMDL
MODEL 2
REMARK VINA RESULT:    -7.672      0.568      1.611
REMARK INTER + INTRA:          -9.419
REMARK INTER:                  -9.016
REMARK INTRA:                  -0.403
REMARK UNBOUND:                -0.402
REMARK  Name = 91205842
REMARK  3 active torsions:
REMARK  status: ('A' for Active; 'I' for Inactive)
REMARK    1  A    between atoms: N_2  and  C_6
REMARK    2  A    between atoms: C_6  and  C_7
REMARK    3  A    between atoms: C_10  and  C_11
REMARK                            x       y       z     vdW  Elec       q    Type
REMARK                         _______ _______ _______ _____ _____    ______ ____
ROOT
ATOM      1  O   UNL     1     -18.360  40.848  -8.328  0.00  0.00    +0.000 OA
ATOM      2  N   UNL     1     -19.998  40.267  -9.864  0.00  0.00    +0.000 N 
ATOM      3  C   UNL     1     -19.563  40.794  -8.641  0.00  0.00    +0.000 C 
ATOM      4  H   UNL     1     -20.990  40.202 -10.064  0.00  0.00    +0.000 HD
ENDROOT
BRANCH   3   6
ATOM      5  N   UNL     1     -22.924  41.376  -7.118  0.00  0.00    +0.000 NA
ATOM      6  C   UNL     1     -20.586  41.264  -7.723  0.00  0.00    +0.000 A 
ATOM      7  C   UNL     1     -20.253  42.021  -6.605  0.00  0.00    +0.000 A 
ATOM      8  C   UNL     1     -21.924  40.971  -7.932  0.00  0.00    +0.000 A 
ATOM      9  C   UNL     1     -21.254  42.455  -5.742  0.00  0.00    +0.000 A 
ATOM     10  C   UNL     1     -22.562  42.109  -6.041  0.00  0.00    +0.000 A 
ENDBRANCH   3   6
BRANCH   2  11
ATOM     11  C   UNL     1     -19.105  39.740 -10.870  0.00  0.00    +0.000 C 
BRANCH  11  14
ATOM     12  N   UNL     1     -17.807  42.778 -13.618  0.00  0.00    +0.000 NA
ATOM     13  N   UNL     1     -15.595  42.593 -12.753  0.00  0.00    +0.000 N 
ATOM     14  C   UNL     1     -18.651  40.800 -11.830  0.00  0.00    +0.000 A 
ATOM     15  C   UNL     1     -17.321  41.206 -11.846  0.00  0.00    +0.000 A 
ATOM     16  C   UNL     1     -19.559  41.382 -12.708  0.00  0.00    +0.000 A 
ATOM     17  C   UNL     1     -16.953  42.189 -12.750  0.00  0.00    +0.000 A 
ATOM     18  C   UNL     1     -19.092  42.358 -13.574  0.00  0.00    +0.000 A 
ATOM     19  H   UNL     1     -15.066  42.512 -11.893  0.00  0.00    +0.000 HD
ATOM     20  H   UNL     1     -15.332  43.316 -13.412  0.00  0.00    +0.000 HD
ENDBRANCH  11  14
ENDBRANCH   2  11
TORSDOF 3
ENDMDL
MODEL 3
REMARK VINA RESULT:    -7.610      1.199      6.358
REMARK INTER + INTRA:          -9.347
REMARK INTER:                  -8.969
REMARK INTRA:                  -0.378
REMARK UNBOUND:                -0.402
REMARK  Name = 91205842
REMARK  3 active torsions:
REMARK  status: ('A' for Active; 'I' for Inactive)
REMARK    1  A    between atoms: N_2  and  C_6
REMARK    2  A    between atoms: C_6  and  C_7
REMARK    3  A    between atoms: C_10  and  C_11
REMARK                            x       y       z     vdW  Elec       q    Type
REMARK                         _______ _______ _______ _____ _____    ______ ____
ROOT
ATOM      1  O   UNL     1     -19.272  39.550 -10.371  0.00  0.00    +0.000 OA
ATOM      2  N   UNL     1     -19.003  41.511  -9.163  0.00  0.00    +0.000 N 
ATOM      3  C   UNL     1     -19.034  40.772 -10.352  0.00  0.00    +0.000 C 
ATOM      4  H   UNL     1     -18.762  42.497  -9.184  0.00  0.00    +0.000 HD
ENDROOT
BRANCH   3   6
ATOM      5  N   UNL     1     -19.286  41.900 -13.903  0.00  0.00    +0.000 NA
ATOM      6  C   UNL     1     -18.750  41.488 -11.583  0.00  0.00    +0.000 A 
ATOM      7  C   UNL     1     -17.718  42.419 -11.649  0.00  0.00    +0.000 A 
ATOM      8  C   UNL     1     -19.498  41.267 -12.728  0.00  0.00    +0.000 A 
ATOM      9  C   UNL     1     -17.470  43.091 -12.841  0.00  0.00    +0.000 A 
ATOM     10  C   UNL     1     -18.276  42.798 -13.930  0.00  0.00    +0.000 A 
ENDBRANCH   3   6
BRANCH   2  11
ATOM     11  C   UNL     1     -19.241  40.938  -7.857  0.00  0.00    +0.000 C 
BRANCH  11  14
ATOM     12  N   UNL     1     -23.039  42.137  -6.245  0.00  0.00    +0.000 NA
ATOM     13  N   UNL     1     -24.118  40.535  -7.640  0.00  0.00    +0.000 N 
ATOM     14  C   UNL     1     -20.568  41.356  -7.294  0.00  0.00    +0.000 A 
ATOM     15  C   UNL     1     -21.737  40.744  -7.732  0.00  0.00    +0.000 A 
ATOM     16  C   UNL     1     -20.633  42.357  -6.331  0.00  0.00    +0.000 A 
ATOM     17  C   UNL     1     -22.936  41.167  -7.181  0.00  0.00    +0.000 A 
ATOM     18  C   UNL     1     -21.881  42.708  -5.842  0.00  0.00    +0.000 A 
ATOM     19  H   UNL     1     -24.131  40.158  -8.580  0.00  0.00    +0.000 HD
ATOM     20  H   UNL     1     -24.994  40.852  -7.239  0.00  0.00    +0.000 HD
ENDBRANCH  11  14
ENDBRANCH   2  11
TORSDOF 3
ENDMDL
MODEL 4
REMARK VINA RESULT:    -6.851      2.114      2.656
REMARK INTER + INTRA:          -8.454
REMARK INTER:                  -8.101
REMARK INTRA:                  -0.353
REMARK UNBOUND:                -0.402
REMARK  Name = 91205842
REMARK  3 active torsions:
REMARK  status: ('A' for Active; 'I' for Inactive)
REMARK    1  A    between atoms: N_2  and  C_6
REMARK    2  A    between atoms: C_6  and  C_7
REMARK    3  A    between atoms: C_10  and  C_11
REMARK                            x       y       z     vdW  Elec       q    Type
REMARK                         _______ _______ _______ _____ _____    ______ ____
ROOT
ATOM      1  O   UNL     1     -19.815  39.643  -9.744  0.00  0.00    +0.000 OA
ATOM      2  N   UNL     1     -18.308  41.306  -9.164  0.00  0.00    +0.000 N 
ATOM      3  C   UNL     1     -19.512  40.607  -9.018  0.00  0.00    +0.000 C 
ATOM      4  H   UNL     1     -18.116  42.114  -8.580  0.00  0.00    +0.000 HD
ENDROOT
BRANCH   3   6
ATOM      5  N   UNL     1     -22.683  41.215  -7.140  0.00  0.00    +0.000 NA
ATOM      6  C   UNL     1     -20.424  41.069  -7.985  0.00  0.00    +0.000 A 
ATOM      7  C   UNL     1     -19.958  41.778  -6.884  0.00  0.00    +0.000 A 
ATOM      8  C   UNL     1     -21.784  40.815  -8.066  0.00  0.00    +0.000 A 
ATOM      9  C   UNL     1     -20.853  42.206  -5.910  0.00  0.00    +0.000 A 
ATOM     10  C   UNL     1     -22.194  41.902  -6.083  0.00  0.00    +0.000 A 
ENDBRANCH   3   6
BRANCH   2  11
ATOM     11  C   UNL     1     -17.310  40.983 -10.159  0.00  0.00    +0.000 C 
BRANCH  11  14
ATOM     12  N   UNL     1     -15.977  44.470 -12.286  0.00  0.00    +0.000 NA
ATOM     13  N   UNL     1     -13.840  43.456 -12.576  0.00  0.00    +0.000 N 
ATOM     14  C   UNL     1     -16.844  42.200 -10.903  0.00  0.00    +0.000 A 
ATOM     15  C   UNL     1     -15.547  42.262 -11.399  0.00  0.00    +0.000 A 
ATOM     16  C   UNL     1     -17.708  43.272 -11.098  0.00  0.00    +0.000 A 
ATOM     17  C   UNL     1     -15.165  43.408 -12.078  0.00  0.00    +0.000 A 
ATOM     18  C   UNL     1     -17.230  44.374 -11.789  0.00  0.00    +0.000 A 
ATOM     19  H   UNL     1     -13.124  42.925 -12.096  0.00  0.00    +0.000 HD
ATOM     20  H   UNL     1     -13.564  44.299 -13.066  0.00  0.00    +0.000 HD
ENDBRANCH  11  14
ENDBRANCH   2  11
TORSDOF 3
ENDMDL
MODEL 5
REMARK VINA RESULT:    -6.356      3.636      7.556
REMARK INTER + INTRA:          -7.873
REMARK INTER:                  -7.527
REMARK INTRA:                  -0.345
REMARK UNBOUND:                -0.402
REMARK  Name = 91205842
REMARK  3 active torsions:
REMARK  status: ('A' for Active; 'I' for Inactive)
REMARK    1  A    between atoms: N_2  and  C_6
REMARK    2  A    between atoms: C_6  and  C_7
REMARK    3  A    between atoms: C_10  and  C_11
REMARK                            x       y       z     vdW  Elec       q    Type
REMARK                         _______ _______ _______ _____ _____    ______ ____
ROOT
ATOM      1  O   UNL     1     -18.695  45.272 -14.292  0.00  0.00    +0.000 OA
ATOM      2  N   UNL     1     -18.508  42.961 -14.296  0.00  0.00    +0.000 N 
ATOM      3  C   UNL     1     -18.949  44.178 -14.829  0.00  0.00    +0.000 C 
ATOM      4  H   UNL     1     -18.772  42.087 -14.740  0.00  0.00    +0.000 HD
ENDROOT
BRANCH   3   6
ATOM      5  N   UNL     1     -20.525  45.201 -18.057  0.00  0.00    +0.000 NA
ATOM      6  C   UNL     1     -19.748  44.119 -16.041  0.00  0.00    +0.000 A 
ATOM      7  C   UNL     1     -20.479  42.980 -16.361  0.00  0.00    +0.000 A 
ATOM      8  C   UNL     1     -19.804  45.192 -16.915  0.00  0.00    +0.000 A 
ATOM      9  C   UNL     1     -21.234  42.951 -17.529  0.00  0.00    +0.000 A 
ATOM     10  C   UNL     1     -21.224  44.077 -18.336  0.00  0.00    +0.000 A 
ENDBRANCH   3   6
BRANCH   2  11
ATOM     11  C   UNL     1     -17.725  42.853 -13.086  0.00  0.00    +0.000 C 
BRANCH  11  14
ATOM     12  N   UNL     1     -18.855  39.436 -10.739  0.00  0.00    +0.000 NA
ATOM     13  N   UNL     1     -17.982  40.503  -8.795  0.00  0.00    +0.000 N 
ATOM     14  C   UNL     1     -18.120  41.660 -12.265  0.00  0.00    +0.000 A 
ATOM     15  C   UNL     1     -17.866  41.637 -10.899  0.00  0.00    +0.000 A 
ATOM     16  C   UNL     1     -18.742  40.573 -12.870  0.00  0.00    +0.000 A 
ATOM     17  C   UNL     1     -18.249  40.511 -10.187  0.00  0.00    +0.000 A 
ATOM     18  C   UNL     1     -19.086  39.495 -12.070  0.00  0.00    +0.000 A 
ATOM     19  H   UNL     1     -17.197  41.041  -8.451  0.00  0.00    +0.000 HD
ATOM     20  H   UNL     1     -18.259  39.675  -8.280  0.00  0.00    +0.000 HD
ENDBRANCH  11  14
ENDBRANCH   2  11
TORSDOF 3
ENDMDL
