MODEL 1
REMARK VINA RESULT:    -7.377      0.000      0.000
REMARK INTER + INTRA:          -7.904
REMARK INTER:                  -7.808
REMARK INTRA:                  -0.096
REMARK UNBOUND:                -0.096
REMARK  Name = 91311755
REMARK  1 active torsions:
REMARK  status: ('A' for Active; 'I' for Inactive)
REMARK    1  A    between atoms: C_5  and  C_12
REMARK                            x       y       z     vdW  Elec       q    Type
REMARK                         _______ _______ _______ _____ _____    ______ ____
ROOT
ATOM      1  N   UNL     1     -18.847  42.085  -7.788  0.00  0.00    +0.000 NA
ATOM      2  N   UNL     1     -20.810  42.591  -6.695  0.00  0.00    +0.000 NA
ATOM      3  C   UNL     1     -19.414  40.326 -10.193  0.00  0.00    +0.000 C 
ATOM      4  C   UNL     1     -18.910  41.729 -10.262  0.00  0.00    +0.000 C 
ATOM      5  C   UNL     1     -20.909  40.773  -8.288  0.00  0.00    +0.000 A 
ATOM      6  C   UNL     1     -20.312  39.888  -9.298  0.00  0.00    +0.000 C 
ATOM      7  C   UNL     1     -20.219  41.805  -7.633  0.00  0.00    +0.000 A 
ATOM      8  C   UNL     1     -18.266  42.053  -8.945  0.00  0.00    +0.000 C 
ATOM      9  C   UNL     1     -22.248  40.560  -7.936  0.00  0.00    +0.000 A 
ATOM     10  C   UNL     1     -22.864  41.364  -6.984  0.00  0.00    +0.000 A 
ATOM     11  C   UNL     1     -22.107  42.360  -6.401  0.00  0.00    +0.000 A 
ENDROOT
BRANCH   3  14
ATOM     12  O   UNL     1     -19.642  38.469 -11.626  0.00  0.00    +0.000 OA
ATOM     13  N   UNL     1     -17.589  39.518 -11.481  0.00  0.00    +0.000 N 
ATOM     14  C   UNL     1     -18.916  39.345 -11.162  0.00  0.00    +0.000 C 
ATOM     15  H   UNL     1     -17.019  40.263 -11.090  0.00  0.00    +0.000 HD
ATOM     16  H   UNL     1     -17.131  38.899 -12.141  0.00  0.00    +0.000 HD
ENDBRANCH   3  14
TORSDOF 1
ENDMDL
MODEL 2
REMARK VINA RESULT:    -6.697      2.498      5.174
REMARK INTER + INTRA:          -7.184
REMARK INTER:                  -7.107
REMARK INTRA:                  -0.077
REMARK UNBOUND:                -0.096
REMARK  Name = 91311755
REMARK  1 active torsions:
REMARK  status: ('A' for Active; 'I' for Inactive)
REMARK    1  A    between atoms: C_5  and  C_12
REMARK                            x       y       z     vdW  Elec       q    Type
REMARK                         _______ _______ _______ _____ _____    ______ ____
ROOT
ATOM      1  N   UNL     1     -19.954  39.525  -8.958  0.00  0.00    +0.000 NA
ATOM      2  N   UNL     1     -18.501  40.190 -10.617  0.00  0.00    +0.000 NA
ATOM      3  C   UNL     1     -20.783  41.912  -7.280  0.00  0.00    +0.000 C 
ATOM      4  C   UNL     1     -21.696  41.139  -8.174  0.00  0.00    +0.000 C 
ATOM      5  C   UNL     1     -18.869  41.767  -8.821  0.00  0.00    +0.000 A 
ATOM      6  C   UNL     1     -19.503  42.192  -7.566  0.00  0.00    +0.000 C 
ATOM      7  C   UNL     1     -19.123  40.546  -9.463  0.00  0.00    +0.000 A 
ATOM      8  C   UNL     1     -21.089  39.782  -8.390  0.00  0.00    +0.000 C 
ATOM      9  C   UNL     1     -17.929  42.626  -9.407  0.00  0.00    +0.000 A 
ATOM     10  C   UNL     1     -17.294  42.275 -10.592  0.00  0.00    +0.000 A 
ATOM     11  C   UNL     1     -17.616  41.057 -11.154  0.00  0.00    +0.000 A 
ENDROOT
BRANCH   3  14
ATOM     12  O   UNL     1     -20.941  41.944  -4.929  0.00  0.00    +0.000 OA
ATOM     13  N   UNL     1     -22.204  43.443  -6.149  0.00  0.00    +0.000 N 
ATOM     14  C   UNL     1     -21.301  42.416  -6.005  0.00  0.00    +0.000 C 
ATOM     15  H   UNL     1     -22.471  43.821  -7.054  0.00  0.00    +0.000 HD
ATOM     16  H   UNL     1     -22.633  43.874  -5.337  0.00  0.00    +0.000 HD
ENDBRANCH   3  14
TORSDOF 1
ENDMDL
MODEL 3
REMARK VINA RESULT:    -6.283      2.534      3.633
REMARK INTER + INTRA:          -6.746
REMARK INTER:                  -6.668
REMARK INTRA:                  -0.078
REMARK UNBOUND:                -0.096
REMARK  Name = 91311755
REMARK  1 active torsions:
REMARK  status: ('A' for Active; 'I' for Inactive)
REMARK    1  A    between atoms: C_5  and  C_12
REMARK                            x       y       z     vdW  Elec       q    Type
REMARK                         _______ _______ _______ _____ _____    ______ ____
ROOT
ATOM      1  N   UNL     1     -19.380  39.899 -11.120  0.00  0.00    +0.000 NA
ATOM      2  N   UNL     1     -20.430  39.909  -9.070  0.00  0.00    +0.000 NA
ATOM      3  C   UNL     1     -16.842  41.556 -11.000  0.00  0.00    +0.000 C 
ATOM      4  C   UNL     1     -16.886  40.076 -11.189  0.00  0.00    +0.000 C 
ATOM      5  C   UNL     1     -18.715  41.582  -9.403  0.00  0.00    +0.000 A 
ATOM      6  C   UNL     1     -17.671  42.241 -10.199  0.00  0.00    +0.000 C 
ATOM      7  C   UNL     1     -19.464  40.478  -9.838  0.00  0.00    +0.000 A 
ATOM      8  C   UNL     1     -18.246  39.719 -11.719  0.00  0.00    +0.000 C 
ATOM      9  C   UNL     1     -19.003  42.103  -8.134  0.00  0.00    +0.000 A 
ATOM     10  C   UNL     1     -19.982  41.523  -7.338  0.00  0.00    +0.000 A 
ATOM     11  C   UNL     1     -20.659  40.434  -7.848  0.00  0.00    +0.000 A 
ENDROOT
BRANCH   3  14
ATOM     12  O   UNL     1     -16.122  43.062 -12.663  0.00  0.00    +0.000 OA
ATOM     13  N   UNL     1     -14.554  42.152 -11.232  0.00  0.00    +0.000 N 
ATOM     14  C   UNL     1     -15.828  42.332 -11.720  0.00  0.00    +0.000 C 
ATOM     15  H   UNL     1     -14.345  41.551 -10.440  0.00  0.00    +0.000 HD
ATOM     16  H   UNL     1     -13.767  42.637 -11.650  0.00  0.00    +0.000 HD
ENDBRANCH   3  14
TORSDOF 1
ENDMDL
MODEL 4
REMARK VINA RESULT:    -5.579      3.550      4.703
REMARK INTER + INTRA:          -6.001
REMARK INTER:                  -5.904
REMARK INTRA:                  -0.097
REMARK UNBOUND:                -0.096
REMARK  Name = 91311755
REMARK  1 active torsions:
REMARK  status: ('A' for Active; 'I' for Inactive)
REMARK    1  A    between atoms: C_5  and  C_12
REMARK                            x       y       z     vdW  Elec       q    Type
REMARK                         _______ _______ _______ _____ _____    ______ ____
ROOT
ATOM      1  N   UNL     1     -17.076  43.319 -11.425  0.00  0.00    +0.000 NA
ATOM      2  N   UNL     1     -17.734  41.998  -9.656  0.00  0.00    +0.000 NA
ATOM      3  C   UNL     1     -19.132  43.183 -13.650  0.00  0.00    +0.000 C 
ATOM      4  C   UNL     1     -18.837  44.398 -12.835  0.00  0.00    +0.000 C 
ATOM      5  C   UNL     1     -18.888  41.636 -11.750  0.00  0.00    +0.000 A 
ATOM      6  C   UNL     1     -19.150  41.933 -13.165  0.00  0.00    +0.000 C 
ATOM      7  C   UNL     1     -17.951  42.317 -10.959  0.00  0.00    +0.000 A 
ATOM      8  C   UNL     1     -17.463  44.238 -12.251  0.00  0.00    +0.000 C 
ATOM      9  C   UNL     1     -19.603  40.588 -11.155  0.00  0.00    +0.000 A 
ATOM     10  C   UNL     1     -19.395  40.261  -9.821  0.00  0.00    +0.000 A 
ATOM     11  C   UNL     1     -18.459  40.993  -9.121  0.00  0.00    +0.000 A 
ENDROOT
BRANCH   3  14
ATOM     12  O   UNL     1     -20.196  42.579 -15.664  0.00  0.00    +0.000 OA
ATOM     13  N   UNL     1     -18.792  44.413 -15.654  0.00  0.00    +0.000 N 
ATOM     14  C   UNL     1     -19.435  43.343 -15.075  0.00  0.00    +0.000 C 
ATOM     15  H   UNL     1     -18.179  45.035 -15.135  0.00  0.00    +0.000 HD
ATOM     16  H   UNL     1     -18.922  44.625 -16.638  0.00  0.00    +0.000 HD
ENDBRANCH   3  14
TORSDOF 1
ENDMDL
MODEL 5
REMARK VINA RESULT:    -5.332      5.299      6.496
REMARK INTER + INTRA:          -5.739
REMARK INTER:                  -5.639
REMARK INTRA:                  -0.100
REMARK UNBOUND:                -0.096
REMARK  Name = 91311755
REMARK  1 active torsions:
REMARK  status: ('A' for Active; 'I' for Inactive)
REMARK    1  A    between atoms: C_5  and  C_12
REMARK                            x       y       z     vdW  Elec       q    Type
REMARK                         _______ _______ _______ _____ _____    ______ ____
ROOT
ATOM      1  N   UNL     1     -19.511  41.984 -13.435  0.00  0.00    +0.000 NA
ATOM      2  N   UNL     1     -18.128  40.234 -12.864  0.00  0.00    +0.000 NA
ATOM      3  C   UNL     1     -18.163  44.628 -12.808  0.00  0.00    +0.000 C 
ATOM      4  C   UNL     1     -18.476  44.135 -14.182  0.00  0.00    +0.000 C 
ATOM      5  C   UNL     1     -17.541  42.401 -11.963  0.00  0.00    +0.000 A 
ATOM      6  C   UNL     1     -17.747  43.846 -11.801  0.00  0.00    +0.000 C 
ATOM      7  C   UNL     1     -18.349  41.570 -12.754  0.00  0.00    +0.000 A 
ATOM      8  C   UNL     1     -19.571  43.114 -14.066  0.00  0.00    +0.000 C 
ATOM      9  C   UNL     1     -16.484  41.804 -11.263  0.00  0.00    +0.000 A 
ATOM     10  C   UNL     1     -16.244  40.441 -11.376  0.00  0.00    +0.000 A 
ATOM     11  C   UNL     1     -17.086  39.707 -12.185  0.00  0.00    +0.000 A 
ENDROOT
BRANCH   3  14
ATOM     12  O   UNL     1     -18.710  46.851 -13.366  0.00  0.00    +0.000 OA
ATOM     13  N   UNL     1     -17.941  46.396 -11.236  0.00  0.00    +0.000 N 
ATOM     14  C   UNL     1     -18.304  46.059 -12.520  0.00  0.00    +0.000 C 
ATOM     15  H   UNL     1     -17.622  45.713 -10.555  0.00  0.00    +0.000 HD
ATOM     16  H   UNL     1     -17.995  47.358 -10.919  0.00  0.00    +0.000 HD
ENDBRANCH   3  14
TORSDOF 1
ENDMDL
