MODEL 1
REMARK VINA RESULT:    -6.297      0.000      0.000
REMARK INTER + INTRA:          -7.544
REMARK INTER:                  -7.218
REMARK INTRA:                  -0.326
REMARK UNBOUND:                -0.326
REMARK  Name = 91355552
REMARK  3 active torsions:
REMARK  status: ('A' for Active; 'I' for Inactive)
REMARK    1  A    between atoms: N_4  and  C_9
REMARK    2  A    between atoms: C_6  and  C_12
REMARK    3  A    between atoms: C_7  and  C_11
REMARK                            x       y       z     vdW  Elec       q    Type
REMARK                         _______ _______ _______ _____ _____    ______ ____
ROOT
ATOM      1  N   UNL     1     -18.460  42.140  -8.247  0.00  0.00    +0.000 NA
ATOM      2  C   UNL     1     -19.313  40.664  -9.961  0.00  0.00    +0.000 A 
ATOM      3  C   UNL     1     -20.687  41.219  -8.068  0.00  0.00    +0.000 A 
ATOM      4  C   UNL     1     -20.513  40.543  -9.270  0.00  0.00    +0.000 A 
ATOM      5  C   UNL     1     -18.327  41.467  -9.413  0.00  0.00    +0.000 A 
ATOM      6  C   UNL     1     -19.640  41.997  -7.604  0.00  0.00    +0.000 A 
ENDROOT
BRANCH   2   9
ATOM      7  O   UNL     1     -18.335  39.010 -11.326  0.00  0.00    +0.000 OA
ATOM      8  N   UNL     1     -19.921  40.350 -12.299  0.00  0.00    +0.000 N 
ATOM      9  C   UNL     1     -19.140  39.952 -11.220  0.00  0.00    +0.000 C 
ATOM     10  H   UNL     1     -20.589  41.111 -12.230  0.00  0.00    +0.000 HD
ATOM     11  H   UNL     1     -19.846  39.885 -13.198  0.00  0.00    +0.000 HD
ENDBRANCH   2   9
BRANCH   5  12
ATOM     12  N   UNL     1     -17.100  41.596 -10.112  0.00  0.00    +0.000 N 
ATOM     13  H   UNL     1     -16.563  40.759 -10.308  0.00  0.00    +0.000 HD
ATOM     14  H   UNL     1     -16.589  42.459  -9.972  0.00  0.00    +0.000 HD
ENDBRANCH   5  12
BRANCH   3  16
ATOM     15 BR   UNL     1     -22.191  42.686  -6.187  0.00  0.00    +0.000 Br
ATOM     16  C   UNL     1     -21.959  41.109  -7.304  0.00  0.00    +0.000 C 
ENDBRANCH   3  16
TORSDOF 3
ENDMDL
MODEL 2
REMARK VINA RESULT:    -6.269      3.508      4.531
REMARK INTER + INTRA:          -7.512
REMARK INTER:                  -7.411
REMARK INTRA:                  -0.101
REMARK UNBOUND:                -0.326
REMARK  Name = 91355552
REMARK  3 active torsions:
REMARK  status: ('A' for Active; 'I' for Inactive)
REMARK    1  A    between atoms: N_4  and  C_9
REMARK    2  A    between atoms: C_6  and  C_12
REMARK    3  A    between atoms: C_7  and  C_11
REMARK                            x       y       z     vdW  Elec       q    Type
REMARK                         _______ _______ _______ _____ _____    ______ ____
ROOT
ATOM      1  N   UNL     1     -18.944  41.832  -7.474  0.00  0.00    +0.000 NA
ATOM      2  C   UNL     1     -21.304  41.335  -7.638  0.00  0.00    +0.000 A 
ATOM      3  C   UNL     1     -19.796  40.553  -9.340  0.00  0.00    +0.000 A 
ATOM      4  C   UNL     1     -21.085  40.648  -8.827  0.00  0.00    +0.000 A 
ATOM      5  C   UNL     1     -20.211  41.904  -7.006  0.00  0.00    +0.000 A 
ATOM      6  C   UNL     1     -18.770  41.156  -8.632  0.00  0.00    +0.000 A 
ENDROOT
BRANCH   2   9
ATOM      7  O   UNL     1     -23.011  42.389  -6.402  0.00  0.00    +0.000 OA
ATOM      8  N   UNL     1     -23.552  40.415  -7.437  0.00  0.00    +0.000 N 
ATOM      9  C   UNL     1     -22.658  41.429  -7.109  0.00  0.00    +0.000 C 
ATOM     10  H   UNL     1     -23.284  39.628  -8.019  0.00  0.00    +0.000 HD
ATOM     11  H   UNL     1     -24.509  40.434  -7.101  0.00  0.00    +0.000 HD
ENDBRANCH   2   9
BRANCH   5  12
ATOM     12  N   UNL     1     -20.427  42.605  -5.793  0.00  0.00    +0.000 N 
ATOM     13  H   UNL     1     -21.329  42.521  -5.338  0.00  0.00    +0.000 HD
ATOM     14  H   UNL     1     -19.926  43.478  -5.680  0.00  0.00    +0.000 HD
ENDBRANCH   5  12
BRANCH   3  16
ATOM     15 BR   UNL     1     -19.365  41.099 -12.072  0.00  0.00    +0.000 Br
ATOM     16  C   UNL     1     -19.528  39.826 -10.609  0.00  0.00    +0.000 C 
ENDBRANCH   3  16
TORSDOF 3
ENDMDL
MODEL 3
REMARK VINA RESULT:    -5.779      1.551      2.495
REMARK INTER + INTRA:          -6.950
REMARK INTER:                  -6.661
REMARK INTRA:                  -0.289
REMARK UNBOUND:                -0.326
REMARK  Name = 91355552
REMARK  3 active torsions:
REMARK  status: ('A' for Active; 'I' for Inactive)
REMARK    1  A    between atoms: N_4  and  C_9
REMARK    2  A    between atoms: C_6  and  C_12
REMARK    3  A    between atoms: C_7  and  C_11
REMARK                            x       y       z     vdW  Elec       q    Type
REMARK                         _______ _______ _______ _____ _____    ______ ____
ROOT
ATOM      1  N   UNL     1     -20.347  39.642  -9.796  0.00  0.00    +0.000 NA
ATOM      2  C   UNL     1     -18.204  40.757  -9.891  0.00  0.00    +0.000 A 
ATOM      3  C   UNL     1     -19.731  41.251  -8.100  0.00  0.00    +0.000 A 
ATOM      4  C   UNL     1     -18.508  41.457  -8.728  0.00  0.00    +0.000 A 
ATOM      5  C   UNL     1     -19.148  39.869 -10.379  0.00  0.00    +0.000 A 
ATOM      6  C   UNL     1     -20.607  40.341  -8.668  0.00  0.00    +0.000 A 
ENDROOT
BRANCH   2   9
ATOM      7  O   UNL     1     -16.227  40.031 -10.948  0.00  0.00    +0.000 OA
ATOM      8  N   UNL     1     -16.502  42.295 -10.712  0.00  0.00    +0.000 N 
ATOM      9  C   UNL     1     -16.920  40.980 -10.542  0.00  0.00    +0.000 C 
ATOM     10  H   UNL     1     -17.058  43.083 -10.394  0.00  0.00    +0.000 HD
ATOM     11  H   UNL     1     -15.620  42.508 -11.165  0.00  0.00    +0.000 HD
ENDBRANCH   2   9
BRANCH   5  12
ATOM     12  N   UNL     1     -18.845  39.151 -11.563  0.00  0.00    +0.000 N 
ATOM     13  H   UNL     1     -17.982  38.621 -11.601  0.00  0.00    +0.000 HD
ATOM     14  H   UNL     1     -19.193  39.542 -12.430  0.00  0.00    +0.000 HD
ENDBRANCH   5  12
BRANCH   3  16
ATOM     15 BR   UNL     1     -22.008  42.294  -6.804  0.00  0.00    +0.000 Br
ATOM     16  C   UNL     1     -20.087  41.985  -6.856  0.00  0.00    +0.000 C 
ENDBRANCH   3  16
TORSDOF 3
ENDMDL
MODEL 4
REMARK VINA RESULT:    -5.513      3.511      5.035
REMARK INTER + INTRA:          -6.645
REMARK INTER:                  -6.337
REMARK INTRA:                  -0.309
REMARK UNBOUND:                -0.326
REMARK  Name = 91355552
REMARK  3 active torsions:
REMARK  status: ('A' for Active; 'I' for Inactive)
REMARK    1  A    between atoms: N_4  and  C_9
REMARK    2  A    between atoms: C_6  and  C_12
REMARK    3  A    between atoms: C_7  and  C_11
REMARK                            x       y       z     vdW  Elec       q    Type
REMARK                         _______ _______ _______ _____ _____    ______ ____
ROOT
ATOM      1  N   UNL     1     -18.766  40.533 -13.263  0.00  0.00    +0.000 NA
ATOM      2  C   UNL     1     -18.803  40.892 -10.873  0.00  0.00    +0.000 A 
ATOM      3  C   UNL     1     -18.002  42.628 -12.331  0.00  0.00    +0.000 A 
ATOM      4  C   UNL     1     -18.282  42.169 -11.049  0.00  0.00    +0.000 A 
ATOM      5  C   UNL     1     -19.025  40.121 -12.001  0.00  0.00    +0.000 A 
ATOM      6  C   UNL     1     -18.260  41.780 -13.395  0.00  0.00    +0.000 A 
ENDROOT
BRANCH   2   9
ATOM      7  O   UNL     1     -20.198  39.933  -9.235  0.00  0.00    +0.000 OA
ATOM      8  N   UNL     1     -18.080  40.515  -8.577  0.00  0.00    +0.000 N 
ATOM      9  C   UNL     1     -19.092  40.420  -9.526  0.00  0.00    +0.000 C 
ATOM     10  H   UNL     1     -17.168  40.903  -8.797  0.00  0.00    +0.000 HD
ATOM     11  H   UNL     1     -18.226  40.196  -7.625  0.00  0.00    +0.000 HD
ENDBRANCH   2   9
BRANCH   5  12
ATOM     12  N   UNL     1     -19.556  38.818 -11.829  0.00  0.00    +0.000 N 
ATOM     13  H   UNL     1     -19.870  38.540 -10.907  0.00  0.00    +0.000 HD
ATOM     14  H   UNL     1     -19.186  38.095 -12.436  0.00  0.00    +0.000 HD
ENDBRANCH   5  12
BRANCH   3  16
ATOM     15 BR   UNL     1     -15.530  43.867 -12.881  0.00  0.00    +0.000 Br
ATOM     16  C   UNL     1     -17.444  43.989 -12.554  0.00  0.00    +0.000 C 
ENDBRANCH   3  16
TORSDOF 3
ENDMDL
MODEL 5
REMARK VINA RESULT:    -5.092      4.159      5.122
REMARK INTER + INTRA:          -6.163
REMARK INTER:                  -5.839
REMARK INTRA:                  -0.324
REMARK UNBOUND:                -0.326
REMARK  Name = 91355552
REMARK  3 active torsions:
REMARK  status: ('A' for Active; 'I' for Inactive)
REMARK    1  A    between atoms: N_4  and  C_9
REMARK    2  A    between atoms: C_6  and  C_12
REMARK    3  A    between atoms: C_7  and  C_11
REMARK                            x       y       z     vdW  Elec       q    Type
REMARK                         _______ _______ _______ _____ _____    ______ ____
ROOT
ATOM      1  N   UNL     1     -19.776  41.497 -13.266  0.00  0.00    +0.000 NA
ATOM      2  C   UNL     1     -17.750  41.183 -11.984  0.00  0.00    +0.000 A 
ATOM      3  C   UNL     1     -18.118  43.252 -13.153  0.00  0.00    +0.000 A 
ATOM      4  C   UNL     1     -17.321  42.458 -12.336  0.00  0.00    +0.000 A 
ATOM      5  C   UNL     1     -18.974  40.753 -12.471  0.00  0.00    +0.000 A 
ATOM      6  C   UNL     1     -19.325  42.730 -13.587  0.00  0.00    +0.000 A 
ENDROOT
BRANCH   2   9
ATOM      7  O   UNL     1     -17.206  40.145  -9.940  0.00  0.00    +0.000 OA
ATOM      8  N   UNL     1     -15.766  39.799 -11.691  0.00  0.00    +0.000 N 
ATOM      9  C   UNL     1     -16.908  40.358 -11.128  0.00  0.00    +0.000 C 
ATOM     10  H   UNL     1     -15.511  39.955 -12.662  0.00  0.00    +0.000 HD
ATOM     11  H   UNL     1     -15.148  39.211 -11.142  0.00  0.00    +0.000 HD
ENDBRANCH   2   9
BRANCH   5  12
ATOM     12  N   UNL     1     -19.418  39.454 -12.116  0.00  0.00    +0.000 N 
ATOM     13  H   UNL     1     -19.134  39.072 -11.222  0.00  0.00    +0.000 HD
ATOM     14  H   UNL     1     -19.565  38.803 -12.878  0.00  0.00    +0.000 HD
ENDBRANCH   5  12
BRANCH   3  16
ATOM     15 BR   UNL     1     -17.780  45.806 -12.007  0.00  0.00    +0.000 Br
ATOM     16  C   UNL     1     -17.687  44.620 -13.547  0.00  0.00    +0.000 C 
ENDBRANCH   3  16
TORSDOF 3
ENDMDL
