MODEL 1
REMARK VINA RESULT:    -7.249      0.000      0.000
REMARK INTER + INTRA:          -8.943
REMARK INTER:                  -8.521
REMARK INTRA:                  -0.422
REMARK UNBOUND:                -0.422
REMARK  Name = 91381381
REMARK  4 active torsions:
REMARK  status: ('A' for Active; 'I' for Inactive)
REMARK    1  A    between atoms: C_8  and  C_9
REMARK    2  A    between atoms: C_8  and  C_10
REMARK    3  A    between atoms: C_8  and  C_11
REMARK    4  A    between atoms: C_14  and  C_17
REMARK                            x       y       z     vdW  Elec       q    Type
REMARK                         _______ _______ _______ _____ _____    ______ ____
ROOT
ATOM      1  O   UNL     1     -17.372  41.021 -10.025  0.00  0.00    +0.000 OA
ATOM      2  N   UNL     1     -19.528  40.090 -10.035  0.00  0.00    +0.000 N 
ATOM      3  N   UNL     1     -21.436  40.408  -8.651  0.00  0.00    +0.000 NA
ATOM      4  C   UNL     1     -18.226  40.273 -10.493  0.00  0.00    +0.000 C 
ATOM      5  C   UNL     1     -20.153  40.725  -8.935  0.00  0.00    +0.000 A 
ATOM      6  C   UNL     1     -19.400  41.636  -8.212  0.00  0.00    +0.000 A 
ATOM      7  C   UNL     1     -21.323  41.965  -6.804  0.00  0.00    +0.000 A 
ATOM      8  C   UNL     1     -20.004  42.264  -7.127  0.00  0.00    +0.000 A 
ATOM      9  C   UNL     1     -21.989  41.038  -7.590  0.00  0.00    +0.000 A 
ATOM     10  H   UNL     1     -20.124  39.427 -10.522  0.00  0.00    +0.000 HD
ENDROOT
BRANCH   7  13
ATOM     11  O   UNL     1     -23.216  42.761  -5.651  0.00  0.00    +0.000 OA
ATOM     12  N   UNL     1     -21.189  43.010  -4.607  0.00  0.00    +0.000 N 
ATOM     13  C   UNL     1     -21.982  42.600  -5.676  0.00  0.00    +0.000 C 
ATOM     14  H   UNL     1     -20.183  42.912  -4.549  0.00  0.00    +0.000 HD
ATOM     15  H   UNL     1     -21.625  43.451  -3.804  0.00  0.00    +0.000 HD
ENDBRANCH   7  13
BRANCH   4  16
ATOM     16  C   UNL     1     -17.939  39.379 -11.702  0.00  0.00    +0.000 C 
ATOM     17  C   UNL     1     -19.138  39.334 -12.649  0.00  0.00    +0.000 C 
BRANCH  16  20
ATOM     18  O   UNL     1     -16.766  40.311 -13.607  0.00  0.00    +0.000 OA
ATOM     19  N   UNL     1     -15.530  39.638 -11.790  0.00  0.00    +0.000 N 
ATOM     20  C   UNL     1     -16.707  39.830 -12.477  0.00  0.00    +0.000 C 
ATOM     21  H   UNL     1     -15.501  39.231 -10.860  0.00  0.00    +0.000 HD
ATOM     22  H   UNL     1     -14.638  39.897 -12.201  0.00  0.00    +0.000 HD
ENDBRANCH  16  20
ENDBRANCH   4  16
TORSDOF 3
ENDMDL
MODEL 2
REMARK VINA RESULT:    -6.600      4.978      6.852
REMARK INTER + INTRA:          -8.180
REMARK INTER:                  -7.774
REMARK INTRA:                  -0.406
REMARK UNBOUND:                -0.422
REMARK  Name = 91381381
REMARK  4 active torsions:
REMARK  status: ('A' for Active; 'I' for Inactive)
REMARK    1  A    between atoms: C_8  and  C_9
REMARK    2  A    between atoms: C_8  and  C_10
REMARK    3  A    between atoms: C_8  and  C_11
REMARK    4  A    between atoms: C_14  and  C_17
REMARK                            x       y       z     vdW  Elec       q    Type
REMARK                         _______ _______ _______ _____ _____    ______ ____
ROOT
ATOM      1  O   UNL     1     -18.911  44.573 -15.593  0.00  0.00    +0.000 OA
ATOM      2  N   UNL     1     -20.209  42.763 -14.848  0.00  0.00    +0.000 N 
ATOM      3  N   UNL     1     -19.889  41.132 -13.146  0.00  0.00    +0.000 NA
ATOM      4  C   UNL     1     -19.914  43.866 -15.644  0.00  0.00    +0.000 C 
ATOM      5  C   UNL     1     -19.422  42.215 -13.807  0.00  0.00    +0.000 A 
ATOM      6  C   UNL     1     -18.211  42.830 -13.531  0.00  0.00    +0.000 A 
ATOM      7  C   UNL     1     -17.876  41.184 -11.809  0.00  0.00    +0.000 A 
ATOM      8  C   UNL     1     -17.428  42.298 -12.511  0.00  0.00    +0.000 A 
ATOM      9  C   UNL     1     -19.101  40.643 -12.162  0.00  0.00    +0.000 A 
ATOM     10  H   UNL     1     -21.081  42.267 -15.011  0.00  0.00    +0.000 HD
ENDROOT
BRANCH   7  13
ATOM     11  O   UNL     1     -15.988  40.055 -10.968  0.00  0.00    +0.000 OA
ATOM     12  N   UNL     1     -17.576  40.691  -9.441  0.00  0.00    +0.000 N 
ATOM     13  C   UNL     1     -17.082  40.602 -10.741  0.00  0.00    +0.000 C 
ATOM     14  H   UNL     1     -18.451  41.123  -9.173  0.00  0.00    +0.000 HD
ATOM     15  H   UNL     1     -17.038  40.299  -8.675  0.00  0.00    +0.000 HD
ENDBRANCH   7  13
BRANCH   4  16
ATOM     16  C   UNL     1     -21.024  44.117 -16.668  0.00  0.00    +0.000 C 
ATOM     17  C   UNL     1     -20.884  45.499 -17.304  0.00  0.00    +0.000 C 
BRANCH  16  20
ATOM     18  O   UNL     1     -20.825  41.871 -17.559  0.00  0.00    +0.000 OA
ATOM     19  N   UNL     1     -21.334  43.579 -19.012  0.00  0.00    +0.000 N 
ATOM     20  C   UNL     1     -21.047  43.062 -17.768  0.00  0.00    +0.000 C 
ATOM     21  H   UNL     1     -21.505  44.567 -19.166  0.00  0.00    +0.000 HD
ATOM     22  H   UNL     1     -21.377  42.977 -19.828  0.00  0.00    +0.000 HD
ENDBRANCH  16  20
ENDBRANCH   4  16
TORSDOF 3
ENDMDL
MODEL 3
REMARK VINA RESULT:    -6.471      4.454      7.054
REMARK INTER + INTRA:          -8.029
REMARK INTER:                  -7.629
REMARK INTRA:                  -0.400
REMARK UNBOUND:                -0.422
REMARK  Name = 91381381
REMARK  4 active torsions:
REMARK  status: ('A' for Active; 'I' for Inactive)
REMARK    1  A    between atoms: C_8  and  C_9
REMARK    2  A    between atoms: C_8  and  C_10
REMARK    3  A    between atoms: C_8  and  C_11
REMARK    4  A    between atoms: C_14  and  C_17
REMARK                            x       y       z     vdW  Elec       q    Type
REMARK                         _______ _______ _______ _____ _____    ______ ____
ROOT
ATOM      1  O   UNL     1     -17.387  43.100 -10.790  0.00  0.00    +0.000 OA
ATOM      2  N   UNL     1     -18.883  41.852 -12.101  0.00  0.00    +0.000 N 
ATOM      3  N   UNL     1     -19.900  42.245 -14.216  0.00  0.00    +0.000 NA
ATOM      4  C   UNL     1     -18.081  42.108 -10.992  0.00  0.00    +0.000 C 
ATOM      5  C   UNL     1     -19.073  42.677 -13.237  0.00  0.00    +0.000 A 
ATOM      6  C   UNL     1     -18.395  43.884 -13.270  0.00  0.00    +0.000 A 
ATOM      7  C   UNL     1     -19.419  44.293 -15.408  0.00  0.00    +0.000 A 
ATOM      8  C   UNL     1     -18.577  44.703 -14.380  0.00  0.00    +0.000 A 
ATOM      9  C   UNL     1     -20.051  43.067 -15.279  0.00  0.00    +0.000 A 
ATOM     10  H   UNL     1     -19.411  40.984 -12.128  0.00  0.00    +0.000 HD
ENDROOT
BRANCH   7  13
ATOM     11  O   UNL     1     -18.695  45.431 -17.338  0.00  0.00    +0.000 OA
ATOM     12  N   UNL     1     -20.931  45.557 -16.841  0.00  0.00    +0.000 N 
ATOM     13  C   UNL     1     -19.633  45.124 -16.580  0.00  0.00    +0.000 C 
ATOM     14  H   UNL     1     -21.745  45.348 -16.278  0.00  0.00    +0.000 HD
ATOM     15  H   UNL     1     -21.109  46.134 -17.657  0.00  0.00    +0.000 HD
ENDBRANCH   7  13
BRANCH   4  16
ATOM     16  C   UNL     1     -18.171  40.967  -9.976  0.00  0.00    +0.000 C 
ATOM     17  C   UNL     1     -18.587  41.487  -8.600  0.00  0.00    +0.000 C 
BRANCH  16  20
ATOM     18  O   UNL     1     -18.883  39.063 -11.296  0.00  0.00    +0.000 OA
ATOM     19  N   UNL     1     -20.334  39.902  -9.723  0.00  0.00    +0.000 N 
ATOM     20  C   UNL     1     -19.142  39.877 -10.412  0.00  0.00    +0.000 C 
ATOM     21  H   UNL     1     -20.533  40.589  -9.002  0.00  0.00    +0.000 HD
ATOM     22  H   UNL     1     -21.066  39.227  -9.924  0.00  0.00    +0.000 HD
ENDBRANCH  16  20
ENDBRANCH   4  16
TORSDOF 3
ENDMDL
MODEL 4
REMARK VINA RESULT:    -6.248      5.881      8.060
REMARK INTER + INTRA:          -7.766
REMARK INTER:                  -7.343
REMARK INTRA:                  -0.423
REMARK UNBOUND:                -0.422
REMARK  Name = 91381381
REMARK  4 active torsions:
REMARK  status: ('A' for Active; 'I' for Inactive)
REMARK    1  A    between atoms: C_8  and  C_9
REMARK    2  A    between atoms: C_8  and  C_10
REMARK    3  A    between atoms: C_8  and  C_11
REMARK    4  A    between atoms: C_14  and  C_17
REMARK                            x       y       z     vdW  Elec       q    Type
REMARK                         _______ _______ _______ _____ _____    ______ ____
ROOT
ATOM      1  O   UNL     1     -19.319  41.374 -13.446  0.00  0.00    +0.000 OA
ATOM      2  N   UNL     1     -18.389  43.338 -14.336  0.00  0.00    +0.000 N 
ATOM      3  N   UNL     1     -19.167  44.921 -15.932  0.00  0.00    +0.000 NA
ATOM      4  C   UNL     1     -18.418  42.203 -13.529  0.00  0.00    +0.000 C 
ATOM      5  C   UNL     1     -19.388  43.784 -15.235  0.00  0.00    +0.000 A 
ATOM      6  C   UNL     1     -20.537  43.017 -15.343  0.00  0.00    +0.000 A 
ATOM      7  C   UNL     1     -21.333  44.610 -16.960  0.00  0.00    +0.000 A 
ATOM      8  C   UNL     1     -21.524  43.445 -16.225  0.00  0.00    +0.000 A 
ATOM      9  C   UNL     1     -20.148  45.304 -16.779  0.00  0.00    +0.000 A 
ATOM     10  H   UNL     1     -17.567  43.934 -14.304  0.00  0.00    +0.000 HD
ENDROOT
BRANCH   7  13
ATOM     11  O   UNL     1     -23.557  44.993 -17.635  0.00  0.00    +0.000 OA
ATOM     12  N   UNL     1     -21.908  45.660 -19.083  0.00  0.00    +0.000 N 
ATOM     13  C   UNL     1     -22.343  45.082 -17.892  0.00  0.00    +0.000 C 
ATOM     14  H   UNL     1     -20.943  45.775 -19.363  0.00  0.00    +0.000 HD
ATOM     15  H   UNL     1     -22.593  46.005 -19.748  0.00  0.00    +0.000 HD
ENDBRANCH   7  13
BRANCH   4  16
ATOM     16  C   UNL     1     -17.127  42.074 -12.718  0.00  0.00    +0.000 C 
ATOM     17  C   UNL     1     -17.109  43.062 -11.551  0.00  0.00    +0.000 C 
BRANCH  16  20
ATOM     18  O   UNL     1     -16.963  40.390 -10.982  0.00  0.00    +0.000 OA
ATOM     19  N   UNL     1     -16.671  39.735 -13.166  0.00  0.00    +0.000 N 
ATOM     20  C   UNL     1     -16.918  40.664 -12.180  0.00  0.00    +0.000 C 
ATOM     21  H   UNL     1     -16.630  39.982 -14.150  0.00  0.00    +0.000 HD
ATOM     22  H   UNL     1     -16.514  38.759 -12.935  0.00  0.00    +0.000 HD
ENDBRANCH  16  20
ENDBRANCH   4  16
TORSDOF 3
ENDMDL
MODEL 5
REMARK VINA RESULT:    -6.140      5.338      6.782
REMARK INTER + INTRA:          -7.639
REMARK INTER:                  -7.203
REMARK INTRA:                  -0.435
REMARK UNBOUND:                -0.422
REMARK  Name = 91381381
REMARK  4 active torsions:
REMARK  status: ('A' for Active; 'I' for Inactive)
REMARK    1  A    between atoms: C_8  and  C_9
REMARK    2  A    between atoms: C_8  and  C_10
REMARK    3  A    between atoms: C_8  and  C_11
REMARK    4  A    between atoms: C_14  and  C_17
REMARK                            x       y       z     vdW  Elec       q    Type
REMARK                         _______ _______ _______ _____ _____    ______ ____
ROOT
ATOM      1  O   UNL     1     -20.424  42.596 -16.034  0.00  0.00    +0.000 OA
ATOM      2  N   UNL     1     -19.152  44.237 -14.936  0.00  0.00    +0.000 N 
ATOM      3  N   UNL     1     -18.052  44.292 -12.828  0.00  0.00    +0.000 NA
ATOM      4  C   UNL     1     -19.912  43.710 -15.977  0.00  0.00    +0.000 C 
ATOM      5  C   UNL     1     -18.804  43.606 -13.717  0.00  0.00    +0.000 A 
ATOM      6  C   UNL     1     -19.262  42.314 -13.513  0.00  0.00    +0.000 A 
ATOM      7  C   UNL     1     -18.155  42.359 -11.378  0.00  0.00    +0.000 A 
ATOM      8  C   UNL     1     -18.927  41.686 -12.318  0.00  0.00    +0.000 A 
ATOM      9  C   UNL     1     -17.747  43.649 -11.678  0.00  0.00    +0.000 A 
ATOM     10  H   UNL     1     -18.796  45.184 -15.027  0.00  0.00    +0.000 HD
ENDROOT
BRANCH   7  13
ATOM     11  O   UNL     1     -18.112  42.235  -9.027  0.00  0.00    +0.000 OA
ATOM     12  N   UNL     1     -17.080  40.536 -10.171  0.00  0.00    +0.000 N 
ATOM     13  C   UNL     1     -17.790  41.733 -10.120  0.00  0.00    +0.000 C 
ATOM     14  H   UNL     1     -16.786  40.062 -11.016  0.00  0.00    +0.000 HD
ATOM     15  H   UNL     1     -16.818  40.074  -9.306  0.00  0.00    +0.000 HD
ENDBRANCH   7  13
BRANCH   4  16
ATOM     16  C   UNL     1     -20.071  44.728 -17.109  0.00  0.00    +0.000 C 
ATOM     17  C   UNL     1     -19.781  46.146 -16.617  0.00  0.00    +0.000 C 
BRANCH  16  20
ATOM     18  O   UNL     1     -18.770  45.282 -19.078  0.00  0.00    +0.000 OA
ATOM     19  N   UNL     1     -18.860  43.083 -18.414  0.00  0.00    +0.000 N 
ATOM     20  C   UNL     1     -19.171  44.419 -18.299  0.00  0.00    +0.000 C 
ATOM     21  H   UNL     1     -19.209  42.384 -17.766  0.00  0.00    +0.000 HD
ATOM     22  H   UNL     1     -18.268  42.749 -19.168  0.00  0.00    +0.000 HD
ENDBRANCH  16  20
ENDBRANCH   4  16
TORSDOF 3
ENDMDL
