MODEL 1
REMARK VINA RESULT:    -7.371      0.000      0.000
REMARK INTER + INTRA:          -8.967
REMARK INTER:                  -8.664
REMARK INTRA:                  -0.303
REMARK UNBOUND:                -0.303
REMARK  Name = 91735308
REMARK  3 active torsions:
REMARK  status: ('A' for Active; 'I' for Inactive)
REMARK    1  A    between atoms: C_13  and  C_18
REMARK    2  A    between atoms: C_19  and  C_21
REMARK    3  A    between atoms: C_20  and  C_22
REMARK                            x       y       z     vdW  Elec       q    Type
REMARK                         _______ _______ _______ _____ _____    ______ ____
ROOT
ATOM      1  O   UNL     1     -20.430  42.534 -16.287  0.00  0.00    +0.000 OA
ATOM      2  N   UNL     1     -18.844  43.811 -15.101  0.00  0.00    +0.000 N 
ATOM      3  N   UNL     1     -17.926  43.673 -12.926  0.00  0.00    +0.000 NA
ATOM      4  C   UNL     1     -18.648  41.904 -11.444  0.00  0.00    +0.000 A 
ATOM      5  C   UNL     1     -18.768  43.173 -13.857  0.00  0.00    +0.000 A 
ATOM      6  C   UNL     1     -19.502  41.420 -12.428  0.00  0.00    +0.000 A 
ATOM      7  C   UNL     1     -19.570  42.060 -13.660  0.00  0.00    +0.000 A 
ATOM      8  C   UNL     1     -17.887  43.025 -11.741  0.00  0.00    +0.000 A 
ATOM      9  C   UNL     1     -19.639  43.467 -16.198  0.00  0.00    +0.000 C 
ATOM     10  H   UNL     1     -18.237  44.622 -15.195  0.00  0.00    +0.000 HD
ENDROOT
BRANCH   4  14
ATOM     11  O   UNL     1     -17.650  40.442  -9.909  0.00  0.00    +0.000 OA
ATOM     12  O   UNL     1     -18.904  40.234  -7.409  0.00  0.00    +0.000 OA
ATOM     13  N   UNL     1     -19.549  41.588  -9.202  0.00  0.00    +0.000 N 
ATOM     14  C   UNL     1     -18.556  41.261 -10.145  0.00  0.00    +0.000 C 
ATOM     15  C   UNL     1     -19.656  41.061  -7.917  0.00  0.00    +0.000 C 
ATOM     16  H   UNL     1     -20.237  42.292  -9.453  0.00  0.00    +0.000 HD
BRANCH  15  20
ATOM     17  F   UNL     1     -20.746  41.413  -5.841  0.00  0.00    +0.000 F 
ATOM     18  F   UNL     1     -22.002  41.077  -7.589  0.00  0.00    +0.000 F 
ATOM     19  F   UNL     1     -20.944  42.969  -7.353  0.00  0.00    +0.000 F 
ATOM     20  C   UNL     1     -20.832  41.628  -7.178  0.00  0.00    +0.000 C 
ENDBRANCH  15  20
ENDBRANCH   4  14
BRANCH   9  24
ATOM     21  F   UNL     1     -20.572  45.013 -17.740  0.00  0.00    +0.000 F 
ATOM     22  F   UNL     1     -18.542  45.393 -17.045  0.00  0.00    +0.000 F 
ATOM     23  F   UNL     1     -18.930  43.763 -18.441  0.00  0.00    +0.000 F 
ATOM     24  C   UNL     1     -19.421  44.406 -17.352  0.00  0.00    +0.000 C 
ENDBRANCH   9  24
TORSDOF 3
ENDMDL
MODEL 2
REMARK VINA RESULT:    -6.703      3.040      3.674
REMARK INTER + INTRA:          -8.182
REMARK INTER:                  -7.840
REMARK INTRA:                  -0.341
REMARK UNBOUND:                -0.303
REMARK  Name = 91735308
REMARK  3 active torsions:
REMARK  status: ('A' for Active; 'I' for Inactive)
REMARK    1  A    between atoms: C_13  and  C_18
REMARK    2  A    between atoms: C_19  and  C_21
REMARK    3  A    between atoms: C_20  and  C_22
REMARK                            x       y       z     vdW  Elec       q    Type
REMARK                         _______ _______ _______ _____ _____    ______ ____
ROOT
ATOM      1  O   UNL     1     -18.178  47.746 -13.357  0.00  0.00    +0.000 OA
ATOM      2  N   UNL     1     -18.941  46.327 -15.078  0.00  0.00    +0.000 N 
ATOM      3  N   UNL     1     -19.332  44.000 -15.228  0.00  0.00    +0.000 NA
ATOM      4  C   UNL     1     -18.916  42.600 -13.300  0.00  0.00    +0.000 A 
ATOM      5  C   UNL     1     -18.938  45.058 -14.486  0.00  0.00    +0.000 A 
ATOM      6  C   UNL     1     -18.517  43.713 -12.570  0.00  0.00    +0.000 A 
ATOM      7  C   UNL     1     -18.525  44.970 -13.166  0.00  0.00    +0.000 A 
ATOM      8  C   UNL     1     -19.312  42.795 -14.615  0.00  0.00    +0.000 A 
ATOM      9  C   UNL     1     -18.576  47.547 -14.500  0.00  0.00    +0.000 C 
ATOM     10  H   UNL     1     -19.252  46.338 -16.046  0.00  0.00    +0.000 HD
ENDROOT
BRANCH   4  14
ATOM     11  O   UNL     1     -18.713  40.269 -13.414  0.00  0.00    +0.000 OA
ATOM     12  O   UNL     1     -19.104  38.878 -11.009  0.00  0.00    +0.000 OA
ATOM     13  N   UNL     1     -19.185  41.192 -11.330  0.00  0.00    +0.000 N 
ATOM     14  C   UNL     1     -18.916  41.273 -12.709  0.00  0.00    +0.000 C 
ATOM     15  C   UNL     1     -19.260  40.018 -10.583  0.00  0.00    +0.000 C 
ATOM     16  H   UNL     1     -19.307  42.058 -10.811  0.00  0.00    +0.000 HD
BRANCH  15  20
ATOM     17  F   UNL     1     -20.207  41.477  -8.970  0.00  0.00    +0.000 F 
ATOM     18  F   UNL     1     -18.438  40.348  -8.386  0.00  0.00    +0.000 F 
ATOM     19  F   UNL     1     -20.357  39.336  -8.596  0.00  0.00    +0.000 F 
ATOM     20  C   UNL     1     -19.564  40.294  -9.140  0.00  0.00    +0.000 C 
ENDBRANCH  15  20
ENDBRANCH   4  14
BRANCH   9  24
ATOM     21  F   UNL     1     -19.672  49.574 -15.072  0.00  0.00    +0.000 F 
ATOM     22  F   UNL     1     -17.574  49.379 -15.629  0.00  0.00    +0.000 F 
ATOM     23  F   UNL     1     -19.098  48.248 -16.704  0.00  0.00    +0.000 F 
ATOM     24  C   UNL     1     -18.729  48.683 -15.473  0.00  0.00    +0.000 C 
ENDBRANCH   9  24
TORSDOF 3
ENDMDL
MODEL 3
REMARK VINA RESULT:    -6.689      2.859      9.065
REMARK INTER + INTRA:          -8.166
REMARK INTER:                  -7.863
REMARK INTRA:                  -0.302
REMARK UNBOUND:                -0.303
REMARK  Name = 91735308
REMARK  3 active torsions:
REMARK  status: ('A' for Active; 'I' for Inactive)
REMARK    1  A    between atoms: C_13  and  C_18
REMARK    2  A    between atoms: C_19  and  C_21
REMARK    3  A    between atoms: C_20  and  C_22
REMARK                            x       y       z     vdW  Elec       q    Type
REMARK                         _______ _______ _______ _____ _____    ______ ____
ROOT
ATOM      1  O   UNL     1     -17.715  42.566 -10.789  0.00  0.00    +0.000 OA
ATOM      2  N   UNL     1     -19.201  41.626 -12.358  0.00  0.00    +0.000 N 
ATOM      3  N   UNL     1     -19.989  42.309 -14.481  0.00  0.00    +0.000 NA
ATOM      4  C   UNL     1     -19.217  44.400 -15.416  0.00  0.00    +0.000 A 
ATOM      5  C   UNL     1     -19.215  42.559 -13.402  0.00  0.00    +0.000 A 
ATOM      6  C   UNL     1     -18.434  44.623 -14.290  0.00  0.00    +0.000 A 
ATOM      7  C   UNL     1     -18.426  43.690 -13.258  0.00  0.00    +0.000 A 
ATOM      8  C   UNL     1     -19.970  43.237 -15.463  0.00  0.00    +0.000 A 
ATOM      9  C   UNL     1     -18.481  41.683 -11.161  0.00  0.00    +0.000 C 
ATOM     10  H   UNL     1     -19.795  40.815 -12.512  0.00  0.00    +0.000 HD
ENDROOT
BRANCH   4  14
ATOM     11  O   UNL     1     -20.113  46.251 -16.538  0.00  0.00    +0.000 OA
ATOM     12  O   UNL     1     -18.885  46.938 -18.964  0.00  0.00    +0.000 OA
ATOM     13  N   UNL     1     -18.290  45.194 -17.525  0.00  0.00    +0.000 N 
ATOM     14  C   UNL     1     -19.250  45.357 -16.509  0.00  0.00    +0.000 C 
ATOM     15  C   UNL     1     -18.173  45.982 -18.668  0.00  0.00    +0.000 C 
ATOM     16  H   UNL     1     -17.593  44.462 -17.417  0.00  0.00    +0.000 HD
BRANCH  15  20
ATOM     17  F   UNL     1     -16.023  44.993 -18.824  0.00  0.00    +0.000 F 
ATOM     18  F   UNL     1     -16.512  46.558 -20.257  0.00  0.00    +0.000 F 
ATOM     19  F   UNL     1     -17.431  44.590 -20.437  0.00  0.00    +0.000 F 
ATOM     20  C   UNL     1     -17.040  45.533 -19.543  0.00  0.00    +0.000 C 
ENDBRANCH  15  20
ENDBRANCH   4  14
BRANCH   9  24
ATOM     21  F   UNL     1     -18.509  39.316 -10.976  0.00  0.00    +0.000 F 
ATOM     22  F   UNL     1     -17.947  40.452  -9.204  0.00  0.00    +0.000 F 
ATOM     23  F   UNL     1     -20.023  40.427  -9.871  0.00  0.00    +0.000 F 
ATOM     24  C   UNL     1     -18.739  40.474 -10.306  0.00  0.00    +0.000 C 
ENDBRANCH   9  24
TORSDOF 3
ENDMDL
MODEL 4
REMARK VINA RESULT:    -6.340      4.492      8.164
REMARK INTER + INTRA:          -7.755
REMARK INTER:                  -7.409
REMARK INTRA:                  -0.345
REMARK UNBOUND:                -0.303
REMARK  Name = 91735308
REMARK  3 active torsions:
REMARK  status: ('A' for Active; 'I' for Inactive)
REMARK    1  A    between atoms: C_13  and  C_18
REMARK    2  A    between atoms: C_19  and  C_21
REMARK    3  A    between atoms: C_20  and  C_22
REMARK                            x       y       z     vdW  Elec       q    Type
REMARK                         _______ _______ _______ _____ _____    ______ ____
ROOT
ATOM      1  O   UNL     1     -13.148  44.761 -11.264  0.00  0.00    +0.000 OA
ATOM      2  N   UNL     1     -14.102  42.683 -10.693  0.00  0.00    +0.000 N 
ATOM      3  N   UNL     1     -16.055  41.536 -11.373  0.00  0.00    +0.000 NA
ATOM      4  C   UNL     1     -17.523  42.555 -13.002  0.00  0.00    +0.000 A 
ATOM      5  C   UNL     1     -15.265  42.628 -11.471  0.00  0.00    +0.000 A 
ATOM      6  C   UNL     1     -16.685  43.661 -13.075  0.00  0.00    +0.000 A 
ATOM      7  C   UNL     1     -15.532  43.707 -12.299  0.00  0.00    +0.000 A 
ATOM      8  C   UNL     1     -17.166  41.527 -12.142  0.00  0.00    +0.000 A 
ATOM      9  C   UNL     1     -13.150  43.706 -10.638  0.00  0.00    +0.000 C 
ATOM     10  H   UNL     1     -13.952  41.868 -10.104  0.00  0.00    +0.000 HD
ENDROOT
BRANCH   4  14
ATOM     11  O   UNL     1     -19.612  41.636 -13.529  0.00  0.00    +0.000 OA
ATOM     12  O   UNL     1     -20.914  42.730 -15.760  0.00  0.00    +0.000 OA
ATOM     13  N   UNL     1     -18.845  43.370 -14.880  0.00  0.00    +0.000 N 
ATOM     14  C   UNL     1     -18.737  42.478 -13.796  0.00  0.00    +0.000 C 
ATOM     15  C   UNL     1     -19.909  43.436 -15.776  0.00  0.00    +0.000 C 
ATOM     16  H   UNL     1     -18.106  44.054 -15.015  0.00  0.00    +0.000 HD
BRANCH  15  20
ATOM     17  F   UNL     1     -20.873  45.059 -17.212  0.00  0.00    +0.000 F 
ATOM     18  F   UNL     1     -19.098  44.017 -17.925  0.00  0.00    +0.000 F 
ATOM     19  F   UNL     1     -18.925  45.514 -16.349  0.00  0.00    +0.000 F 
ATOM     20  C   UNL     1     -19.702  44.502 -16.811  0.00  0.00    +0.000 C 
ENDBRANCH  15  20
ENDBRANCH   4  14
BRANCH   9  24
ATOM     21  F   UNL     1     -12.514  42.891  -8.501  0.00  0.00    +0.000 F 
ATOM     22  F   UNL     1     -11.198  42.438 -10.178  0.00  0.00    +0.000 F 
ATOM     23  F   UNL     1     -11.290  44.465  -9.380  0.00  0.00    +0.000 F 
ATOM     24  C   UNL     1     -12.042  43.376  -9.678  0.00  0.00    +0.000 C 
ENDBRANCH   9  24
TORSDOF 3
ENDMDL
MODEL 5
REMARK VINA RESULT:    -6.278      3.625      4.412
REMARK INTER + INTRA:          -7.683
REMARK INTER:                  -7.373
REMARK INTRA:                  -0.310
REMARK UNBOUND:                -0.303
REMARK  Name = 91735308
REMARK  3 active torsions:
REMARK  status: ('A' for Active; 'I' for Inactive)
REMARK    1  A    between atoms: C_13  and  C_18
REMARK    2  A    between atoms: C_19  and  C_21
REMARK    3  A    between atoms: C_20  and  C_22
REMARK                            x       y       z     vdW  Elec       q    Type
REMARK                         _______ _______ _______ _____ _____    ______ ____
ROOT
ATOM      1  O   UNL     1     -15.623  47.387 -11.787  0.00  0.00    +0.000 OA
ATOM      2  N   UNL     1     -17.222  46.759 -13.401  0.00  0.00    +0.000 N 
ATOM      3  N   UNL     1     -18.450  44.778 -13.805  0.00  0.00    +0.000 NA
ATOM      4  C   UNL     1     -18.132  42.870 -12.355  0.00  0.00    +0.000 A 
ATOM      5  C   UNL     1     -17.540  45.440 -13.056  0.00  0.00    +0.000 A 
ATOM      6  C   UNL     1     -17.201  43.582 -11.609  0.00  0.00    +0.000 A 
ATOM      7  C   UNL     1     -16.893  44.893 -11.959  0.00  0.00    +0.000 A 
ATOM      8  C   UNL     1     -18.724  43.508 -13.435  0.00  0.00    +0.000 A 
ATOM      9  C   UNL     1     -16.319  47.620 -12.771  0.00  0.00    +0.000 C 
ATOM     10  H   UNL     1     -17.723  47.113 -14.211  0.00  0.00    +0.000 HD
ENDROOT
BRANCH   4  14
ATOM     11  O   UNL     1     -18.236  40.575 -12.818  0.00  0.00    +0.000 OA
ATOM     12  O   UNL     1     -19.435  38.973 -10.852  0.00  0.00    +0.000 OA
ATOM     13  N   UNL     1     -19.105  41.286 -10.778  0.00  0.00    +0.000 N 
ATOM     14  C   UNL     1     -18.474  41.498 -12.019  0.00  0.00    +0.000 C 
ATOM     15  C   UNL     1     -19.537  40.057 -10.285  0.00  0.00    +0.000 C 
ATOM     16  H   UNL     1     -19.235  42.084 -10.162  0.00  0.00    +0.000 HD
BRANCH  15  20
ATOM     17  F   UNL     1     -19.308  39.865  -7.933  0.00  0.00    +0.000 F 
ATOM     18  F   UNL     1     -21.251  39.384  -8.794  0.00  0.00    +0.000 F 
ATOM     19  F   UNL     1     -20.588  41.458  -8.688  0.00  0.00    +0.000 F 
ATOM     20  C   UNL     1     -20.168  40.190  -8.931  0.00  0.00    +0.000 C 
ENDBRANCH  15  20
ENDBRANCH   4  14
BRANCH   9  24
ATOM     21  F   UNL     1     -15.828  48.871 -14.728  0.00  0.00    +0.000 F 
ATOM     22  F   UNL     1     -17.495  49.548 -13.499  0.00  0.00    +0.000 F 
ATOM     23  F   UNL     1     -15.445  49.824 -12.807  0.00  0.00    +0.000 F 
ATOM     24  C   UNL     1     -16.272  48.961 -13.449  0.00  0.00    +0.000 C 
ENDBRANCH   9  24
TORSDOF 3
ENDMDL
