MODEL 1
REMARK VINA RESULT:    -7.102      0.000      0.000
REMARK INTER + INTRA:          -7.577
REMARK INTER:                  -7.933
REMARK INTRA:                   0.355
REMARK UNBOUND:                 0.355
REMARK  Name = 91731899
REMARK  5 active torsions:
REMARK  status: ('A' for Active; 'I' for Inactive)
REMARK    1  A    between atoms: SI_1  and  N_3
REMARK    2  A    between atoms: SI_1  and  C_6
REMARK    3  A    between atoms: SI_1  and  C_7
REMARK    4  A    between atoms: SI_1  and  C_8
REMARK    5  A    between atoms: C_12  and  C_14
REMARK                            x       y       z     vdW  Elec       q    Type
REMARK                         _______ _______ _______ _____ _____    ______ ____
ROOT
ATOM      1  N   UNL     1     -17.847  41.272 -10.136  0.00  0.00    +0.000 N 
ATOM      2  N   UNL     1     -18.606  42.231  -8.091  0.00  0.00    +0.000 NA
ATOM      3  C   UNL     1     -18.863  41.450  -9.164  0.00  0.00    +0.000 A 
ATOM      4  C   UNL     1     -20.069  40.802  -9.381  0.00  0.00    +0.000 A 
ATOM      5  C   UNL     1     -21.075  40.966  -8.436  0.00  0.00    +0.000 A 
ATOM      6  C   UNL     1     -20.849  41.763  -7.319  0.00  0.00    +0.000 A 
ATOM      7  C   UNL     1     -19.609  42.368  -7.194  0.00  0.00    +0.000 A 
ATOM      8  H   UNL     1     -17.022  41.799  -9.854  0.00  0.00    +0.000 HD
ENDROOT
BRANCH   6  11
ATOM      9  O   UNL     1     -22.953  41.324  -6.355  0.00  0.00    +0.000 OA
ATOM     10  N   UNL     1     -21.625  42.858  -5.286  0.00  0.00    +0.000 N 
ATOM     11  C   UNL     1     -21.880  41.955  -6.314  0.00  0.00    +0.000 C 
ATOM     12  H   UNL     1     -20.780  43.405  -5.179  0.00  0.00    +0.000 HD
ATOM     13  H   UNL     1     -22.326  43.007  -4.566  0.00  0.00    +0.000 HD
ENDBRANCH   6  11
BRANCH   1  14
ATOM     14 SI   UNL     1     -17.675  40.430 -11.592  0.00  0.00    +0.000 Si
ATOM     15  C   UNL     1     -19.051  39.186 -11.731  0.00  0.00    +0.000 C 
ATOM     16  C   UNL     1     -16.007  39.610 -11.619  0.00  0.00    +0.000 C 
ATOM     17  C   UNL     1     -17.798  41.681 -12.972  0.00  0.00    +0.000 C 
ENDBRANCH   1  14
TORSDOF 2
ENDMDL
MODEL 2
REMARK VINA RESULT:    -6.093      1.324      2.148
REMARK INTER + INTRA:          -6.450
REMARK INTER:                  -6.363
REMARK INTRA:                  -0.087
REMARK UNBOUND:                 0.355
REMARK  Name = 91731899
REMARK  5 active torsions:
REMARK  status: ('A' for Active; 'I' for Inactive)
REMARK    1  A    between atoms: SI_1  and  N_3
REMARK    2  A    between atoms: SI_1  and  C_6
REMARK    3  A    between atoms: SI_1  and  C_7
REMARK    4  A    between atoms: SI_1  and  C_8
REMARK    5  A    between atoms: C_12  and  C_14
REMARK                            x       y       z     vdW  Elec       q    Type
REMARK                         _______ _______ _______ _____ _____    ______ ____
ROOT
ATOM      1  N   UNL     1     -17.110  42.128 -10.103  0.00  0.00    +0.000 N 
ATOM      2  N   UNL     1     -18.518  42.434  -8.205  0.00  0.00    +0.000 NA
ATOM      3  C   UNL     1     -18.325  41.872  -9.419  0.00  0.00    +0.000 A 
ATOM      4  C   UNL     1     -19.247  41.052 -10.051  0.00  0.00    +0.000 A 
ATOM      5  C   UNL     1     -20.443  40.792  -9.393  0.00  0.00    +0.000 A 
ATOM      6  C   UNL     1     -20.680  41.352  -8.142  0.00  0.00    +0.000 A 
ATOM      7  C   UNL     1     -19.694  42.159  -7.597  0.00  0.00    +0.000 A 
ATOM      8  H   UNL     1     -16.530  42.739  -9.531  0.00  0.00    +0.000 HD
ENDROOT
BRANCH   6  11
ATOM      9  O   UNL     1     -22.808  40.369  -7.909  0.00  0.00    +0.000 OA
ATOM     10  N   UNL     1     -22.081  41.687  -6.179  0.00  0.00    +0.000 N 
ATOM     11  C   UNL     1     -21.920  41.099  -7.431  0.00  0.00    +0.000 C 
ATOM     12  H   UNL     1     -21.408  42.287  -5.719  0.00  0.00    +0.000 HD
ATOM     13  H   UNL     1     -22.936  41.522  -5.656  0.00  0.00    +0.000 HD
ENDBRANCH   6  11
BRANCH   1  14
ATOM     14 SI   UNL     1     -16.413  41.682 -11.577  0.00  0.00    +0.000 Si
ATOM     15  C   UNL     1     -14.749  42.499 -11.726  0.00  0.00    +0.000 C 
ATOM     16  C   UNL     1     -17.551  42.190 -12.957  0.00  0.00    +0.000 C 
ATOM     17  C   UNL     1     -16.217  39.826 -11.557  0.00  0.00    +0.000 C 
ENDBRANCH   1  14
TORSDOF 2
ENDMDL
MODEL 3
REMARK VINA RESULT:    -5.641      3.944      5.657
REMARK INTER + INTRA:          -5.945
REMARK INTER:                  -5.865
REMARK INTRA:                  -0.079
REMARK UNBOUND:                 0.355
REMARK  Name = 91731899
REMARK  5 active torsions:
REMARK  status: ('A' for Active; 'I' for Inactive)
REMARK    1  A    between atoms: SI_1  and  N_3
REMARK    2  A    between atoms: SI_1  and  C_6
REMARK    3  A    between atoms: SI_1  and  C_7
REMARK    4  A    between atoms: SI_1  and  C_8
REMARK    5  A    between atoms: C_12  and  C_14
REMARK                            x       y       z     vdW  Elec       q    Type
REMARK                         _______ _______ _______ _____ _____    ______ ____
ROOT
ATOM      1  N   UNL     1     -16.543  44.227 -13.706  0.00  0.00    +0.000 N 
ATOM      2  N   UNL     1     -17.115  41.967 -13.213  0.00  0.00    +0.000 NA
ATOM      3  C   UNL     1     -16.999  43.246 -12.791  0.00  0.00    +0.000 A 
ATOM      4  C   UNL     1     -17.300  43.669 -11.506  0.00  0.00    +0.000 A 
ATOM      5  C   UNL     1     -17.749  42.718 -10.597  0.00  0.00    +0.000 A 
ATOM      6  C   UNL     1     -17.881  41.392 -10.994  0.00  0.00    +0.000 A 
ATOM      7  C   UNL     1     -17.553  41.071 -12.301  0.00  0.00    +0.000 A 
ATOM      8  H   UNL     1     -16.360  43.784 -14.605  0.00  0.00    +0.000 HD
ENDROOT
BRANCH   6  11
ATOM      9  O   UNL     1     -19.019  39.401 -10.453  0.00  0.00    +0.000 OA
ATOM     10  N   UNL     1     -18.002  40.514  -8.725  0.00  0.00    +0.000 N 
ATOM     11  C   UNL     1     -18.347  40.375 -10.067  0.00  0.00    +0.000 C 
ATOM     12  H   UNL     1     -17.457  41.271  -8.332  0.00  0.00    +0.000 HD
ATOM     13  H   UNL     1     -18.309  39.814  -8.056  0.00  0.00    +0.000 HD
ENDBRANCH   6  11
BRANCH   1  14
ATOM     14 SI   UNL     1     -16.242  45.891 -13.674  0.00  0.00    +0.000 Si
ATOM     15  C   UNL     1     -17.770  46.765 -13.076  0.00  0.00    +0.000 C 
ATOM     16  C   UNL     1     -15.758  46.447 -15.381  0.00  0.00    +0.000 C 
ATOM     17  C   UNL     1     -14.832  46.174 -12.483  0.00  0.00    +0.000 C 
ENDBRANCH   1  14
TORSDOF 2
ENDMDL
MODEL 4
REMARK VINA RESULT:    -5.617      3.914      5.677
REMARK INTER + INTRA:          -5.918
REMARK INTER:                  -5.853
REMARK INTRA:                  -0.065
REMARK UNBOUND:                 0.355
REMARK  Name = 91731899
REMARK  5 active torsions:
REMARK  status: ('A' for Active; 'I' for Inactive)
REMARK    1  A    between atoms: SI_1  and  N_3
REMARK    2  A    between atoms: SI_1  and  C_6
REMARK    3  A    between atoms: SI_1  and  C_7
REMARK    4  A    between atoms: SI_1  and  C_8
REMARK    5  A    between atoms: C_12  and  C_14
REMARK                            x       y       z     vdW  Elec       q    Type
REMARK                         _______ _______ _______ _____ _____    ______ ____
ROOT
ATOM      1  N   UNL     1     -17.078  44.277 -13.893  0.00  0.00    +0.000 N 
ATOM      2  N   UNL     1     -17.828  42.070 -13.396  0.00  0.00    +0.000 NA
ATOM      3  C   UNL     1     -17.432  43.282 -12.947  0.00  0.00    +0.000 A 
ATOM      4  C   UNL     1     -17.347  43.623 -11.606  0.00  0.00    +0.000 A 
ATOM      5  C   UNL     1     -17.691  42.658 -10.666  0.00  0.00    +0.000 A 
ATOM      6  C   UNL     1     -18.102  41.399 -11.090  0.00  0.00    +0.000 A 
ATOM      7  C   UNL     1     -18.153  41.158 -12.453  0.00  0.00    +0.000 A 
ATOM      8  H   UNL     1     -17.185  43.895 -14.831  0.00  0.00    +0.000 HD
ENDROOT
BRANCH   6  11
ATOM      9  O   UNL     1     -19.157  39.387 -10.464  0.00  0.00    +0.000 OA
ATOM     10  N   UNL     1     -18.007  40.506  -8.825  0.00  0.00    +0.000 N 
ATOM     11  C   UNL     1     -18.468  40.370 -10.132  0.00  0.00    +0.000 C 
ATOM     12  H   UNL     1     -17.441  41.270  -8.477  0.00  0.00    +0.000 HD
ATOM     13  H   UNL     1     -18.242  39.798  -8.136  0.00  0.00    +0.000 HD
ENDBRANCH   6  11
BRANCH   1  14
ATOM     14 SI   UNL     1     -16.544  45.880 -13.846  0.00  0.00    +0.000 Si
ATOM     15  C   UNL     1     -15.098  45.997 -12.683  0.00  0.00    +0.000 C 
ATOM     16  C   UNL     1     -17.951  46.966 -13.301  0.00  0.00    +0.000 C 
ATOM     17  C   UNL     1     -16.014  46.337 -15.577  0.00  0.00    +0.000 C 
ENDBRANCH   1  14
TORSDOF 2
ENDMDL
MODEL 5
REMARK VINA RESULT:    -5.510      3.113      4.404
REMARK INTER + INTRA:          -5.799
REMARK INTER:                  -5.682
REMARK INTRA:                  -0.117
REMARK UNBOUND:                 0.355
REMARK  Name = 91731899
REMARK  5 active torsions:
REMARK  status: ('A' for Active; 'I' for Inactive)
REMARK    1  A    between atoms: SI_1  and  N_3
REMARK    2  A    between atoms: SI_1  and  C_6
REMARK    3  A    between atoms: SI_1  and  C_7
REMARK    4  A    between atoms: SI_1  and  C_8
REMARK    5  A    between atoms: C_12  and  C_14
REMARK                            x       y       z     vdW  Elec       q    Type
REMARK                         _______ _______ _______ _____ _____    ______ ____
ROOT
ATOM      1  N   UNL     1     -17.406  43.608 -12.752  0.00  0.00    +0.000 N 
ATOM      2  N   UNL     1     -18.878  41.823 -12.181  0.00  0.00    +0.000 NA
ATOM      3  C   UNL     1     -17.988  42.758 -11.779  0.00  0.00    +0.000 A 
ATOM      4  C   UNL     1     -17.601  42.945 -10.461  0.00  0.00    +0.000 A 
ATOM      5  C   UNL     1     -18.163  42.120  -9.494  0.00  0.00    +0.000 A 
ATOM      6  C   UNL     1     -19.082  41.145  -9.869  0.00  0.00    +0.000 A 
ATOM      7  C   UNL     1     -19.402  41.039 -11.213  0.00  0.00    +0.000 A 
ATOM      8  H   UNL     1     -17.775  43.364 -13.669  0.00  0.00    +0.000 HD
ENDROOT
BRANCH   6  11
ATOM      9  O   UNL     1     -20.732  39.636  -9.127  0.00  0.00    +0.000 OA
ATOM     10  N   UNL     1     -19.048  40.136  -7.652  0.00  0.00    +0.000 N 
ATOM     11  C   UNL     1     -19.687  40.267  -8.883  0.00  0.00    +0.000 C 
ATOM     12  H   UNL     1     -18.196  40.609  -7.378  0.00  0.00    +0.000 HD
ATOM     13  H   UNL     1     -19.445  39.524  -6.946  0.00  0.00    +0.000 HD
ENDBRANCH   6  11
BRANCH   1  14
ATOM     14 SI   UNL     1     -16.292  44.880 -12.763  0.00  0.00    +0.000 Si
ATOM     15  C   UNL     1     -14.648  44.244 -12.170  0.00  0.00    +0.000 C 
ATOM     16  C   UNL     1     -16.930  46.246 -11.674  0.00  0.00    +0.000 C 
ATOM     17  C   UNL     1     -16.151  45.477 -14.526  0.00  0.00    +0.000 C 
ENDBRANCH   1  14
TORSDOF 2
ENDMDL
