MODEL 1
REMARK VINA RESULT:    -5.574      0.000      0.000
REMARK INTER + INTRA:          -7.197
REMARK INTER:                  -6.877
REMARK INTRA:                  -0.320
REMARK UNBOUND:                -0.320
REMARK  Name = 9399926
REMARK  4 active torsions:
REMARK  status: ('A' for Active; 'I' for Inactive)
REMARK    1  A    between atoms: N_2  and  C_9
REMARK    2  A    between atoms: N_4  and  C_15
REMARK    3  A    between atoms: C_10  and  C_12
REMARK    4  A    between atoms: C_15  and  C_16
REMARK                            x       y       z     vdW  Elec       q    Type
REMARK                         _______ _______ _______ _____ _____    ______ ____
ROOT
ATOM      1  N   UNL     1     -18.043  41.929  -8.959  0.00  0.00    +0.000 NA
ATOM      2  C   UNL     1     -18.030  41.998 -10.339  0.00  0.00    +0.000 A 
ATOM      3  C   UNL     1     -18.959  41.230 -11.083  0.00  0.00    +0.000 A 
ATOM      4  C   UNL     1     -19.876  40.415 -10.429  0.00  0.00    +0.000 A 
ATOM      5  C   UNL     1     -18.949  41.126  -8.357  0.00  0.00    +0.000 A 
ATOM      6  C   UNL     1     -19.878  40.356  -9.040  0.00  0.00    +0.000 A 
ENDROOT
BRANCH   2   7
ATOM      7  N   UNL     1     -17.118  42.807 -10.981  0.00  0.00    +0.000 N 
ATOM      8  C   UNL     1     -16.207  44.572 -12.240  0.00  0.00    +0.000 C 
ATOM      9  C   UNL     1     -15.081  43.654 -11.798  0.00  0.00    +0.000 C 
ATOM     10  C   UNL     1     -17.340  44.219 -11.279  0.00  0.00    +0.000 C 
ATOM     11  C   UNL     1     -15.809  42.357 -11.448  0.00  0.00    +0.000 C 
ENDBRANCH   2   7
BRANCH   3  14
ATOM     12  O   UNL     1     -18.539  40.327 -13.207  0.00  0.00    +0.000 OA
ATOM     13  N   UNL     1     -19.490  42.440 -13.127  0.00  0.00    +0.000 N 
ATOM     14  C   UNL     1     -18.965  41.285 -12.539  0.00  0.00    +0.000 C 
ATOM     15  H   UNL     1     -19.816  43.190 -12.524  0.00  0.00    +0.000 HD
BRANCH  13  16
ATOM     16  C   UNL     1     -19.587  42.634 -14.556  0.00  0.00    +0.000 C 
BRANCH  16  17
ATOM     17  C   UNL     1     -19.123  44.013 -14.894  0.00  0.00    +0.000 C 
ATOM     18  C   UNL     1     -19.454  44.656 -16.020  0.00  0.00    +0.000 C 
ENDBRANCH  16  17
ENDBRANCH  13  16
ENDBRANCH   3  14
TORSDOF 4
ENDMDL
MODEL 2
REMARK VINA RESULT:    -5.391      2.032      3.976
REMARK INTER + INTRA:          -6.972
REMARK INTER:                  -6.915
REMARK INTRA:                  -0.057
REMARK UNBOUND:                -0.320
REMARK  Name = 9399926
REMARK  4 active torsions:
REMARK  status: ('A' for Active; 'I' for Inactive)
REMARK    1  A    between atoms: N_2  and  C_9
REMARK    2  A    between atoms: N_4  and  C_15
REMARK    3  A    between atoms: C_10  and  C_12
REMARK    4  A    between atoms: C_15  and  C_16
REMARK                            x       y       z     vdW  Elec       q    Type
REMARK                         _______ _______ _______ _____ _____    ______ ____
ROOT
ATOM      1  N   UNL     1     -17.278  44.172 -11.378  0.00  0.00    +0.000 NA
ATOM      2  C   UNL     1     -17.968  43.422 -12.311  0.00  0.00    +0.000 A 
ATOM      3  C   UNL     1     -18.697  44.080 -13.333  0.00  0.00    +0.000 A 
ATOM      4  C   UNL     1     -18.716  45.468 -13.394  0.00  0.00    +0.000 A 
ATOM      5  C   UNL     1     -17.320  45.520 -11.469  0.00  0.00    +0.000 A 
ATOM      6  C   UNL     1     -18.017  46.210 -12.449  0.00  0.00    +0.000 A 
ENDROOT
BRANCH   2   7
ATOM      7  N   UNL     1     -17.945  42.045 -12.244  0.00  0.00    +0.000 N 
ATOM      8  C   UNL     1     -17.622  39.793 -12.837  0.00  0.00    +0.000 C 
ATOM      9  C   UNL     1     -18.196  39.852 -11.432  0.00  0.00    +0.000 C 
ATOM     10  C   UNL     1     -17.063  41.199 -13.043  0.00  0.00    +0.000 C 
ATOM     11  C   UNL     1     -18.800  41.253 -11.364  0.00  0.00    +0.000 C 
ENDBRANCH   2   7
BRANCH   3  14
ATOM     12  O   UNL     1     -20.210  42.408 -13.977  0.00  0.00    +0.000 OA
ATOM     13  N   UNL     1     -19.236  43.658 -15.669  0.00  0.00    +0.000 N 
ATOM     14  C   UNL     1     -19.432  43.311 -14.328  0.00  0.00    +0.000 C 
ATOM     15  H   UNL     1     -18.580  44.403 -15.889  0.00  0.00    +0.000 HD
BRANCH  13  16
ATOM     16  C   UNL     1     -19.910  43.007 -16.768  0.00  0.00    +0.000 C 
BRANCH  16  17
ATOM     17  C   UNL     1     -21.094  43.825 -17.168  0.00  0.00    +0.000 C 
ATOM     18  C   UNL     1     -22.293  43.739 -16.580  0.00  0.00    +0.000 C 
ENDBRANCH  16  17
ENDBRANCH  13  16
ENDBRANCH   3  14
TORSDOF 4
ENDMDL
MODEL 3
REMARK VINA RESULT:    -5.352      2.002      2.299
REMARK INTER + INTRA:          -6.924
REMARK INTER:                  -6.506
REMARK INTRA:                  -0.417
REMARK UNBOUND:                -0.320
REMARK  Name = 9399926
REMARK  4 active torsions:
REMARK  status: ('A' for Active; 'I' for Inactive)
REMARK    1  A    between atoms: N_2  and  C_9
REMARK    2  A    between atoms: N_4  and  C_15
REMARK    3  A    between atoms: C_10  and  C_12
REMARK    4  A    between atoms: C_15  and  C_16
REMARK                            x       y       z     vdW  Elec       q    Type
REMARK                         _______ _______ _______ _____ _____    ______ ____
ROOT
ATOM      1  N   UNL     1     -17.202  40.969 -11.277  0.00  0.00    +0.000 NA
ATOM      2  C   UNL     1     -17.698  41.966 -12.097  0.00  0.00    +0.000 A 
ATOM      3  C   UNL     1     -18.871  41.726 -12.854  0.00  0.00    +0.000 A 
ATOM      4  C   UNL     1     -19.517  40.498 -12.771  0.00  0.00    +0.000 A 
ATOM      5  C   UNL     1     -17.858  39.788 -11.223  0.00  0.00    +0.000 A 
ATOM      6  C   UNL     1     -19.008  39.505 -11.943  0.00  0.00    +0.000 A 
ENDROOT
BRANCH   2   7
ATOM      7  N   UNL     1     -17.051  43.181 -12.174  0.00  0.00    +0.000 N 
ATOM      8  C   UNL     1     -16.613  45.484 -11.995  0.00  0.00    +0.000 C 
ATOM      9  C   UNL     1     -15.401  44.800 -12.604  0.00  0.00    +0.000 C 
ATOM     10  C   UNL     1     -17.365  44.332 -11.332  0.00  0.00    +0.000 C 
ATOM     11  C   UNL     1     -15.968  43.475 -13.108  0.00  0.00    +0.000 C 
ENDBRANCH   2   7
BRANCH   3  14
ATOM     12  O   UNL     1     -20.012  43.737 -13.244  0.00  0.00    +0.000 OA
ATOM     13  N   UNL     1     -19.200  42.607 -15.099  0.00  0.00    +0.000 N 
ATOM     14  C   UNL     1     -19.412  42.761 -13.724  0.00  0.00    +0.000 C 
ATOM     15  H   UNL     1     -18.708  41.781 -15.427  0.00  0.00    +0.000 HD
BRANCH  13  16
ATOM     16  C   UNL     1     -19.654  43.559 -16.087  0.00  0.00    +0.000 C 
BRANCH  16  17
ATOM     17  C   UNL     1     -20.924  43.063 -16.695  0.00  0.00    +0.000 C 
ATOM     18  C   UNL     1     -22.140  43.490 -16.335  0.00  0.00    +0.000 C 
ENDBRANCH  16  17
ENDBRANCH  13  16
ENDBRANCH   3  14
TORSDOF 4
ENDMDL
MODEL 4
REMARK VINA RESULT:    -5.029      2.303      5.193
REMARK INTER + INTRA:          -6.525
REMARK INTER:                  -6.058
REMARK INTRA:                  -0.467
REMARK UNBOUND:                -0.320
REMARK  Name = 9399926
REMARK  4 active torsions:
REMARK  status: ('A' for Active; 'I' for Inactive)
REMARK    1  A    between atoms: N_2  and  C_9
REMARK    2  A    between atoms: N_4  and  C_15
REMARK    3  A    between atoms: C_10  and  C_12
REMARK    4  A    between atoms: C_15  and  C_16
REMARK                            x       y       z     vdW  Elec       q    Type
REMARK                         _______ _______ _______ _____ _____    ______ ____
ROOT
ATOM      1  N   UNL     1     -19.086  45.710 -15.851  0.00  0.00    +0.000 NA
ATOM      2  C   UNL     1     -18.791  44.816 -14.840  0.00  0.00    +0.000 A 
ATOM      3  C   UNL     1     -19.227  43.472 -14.949  0.00  0.00    +0.000 A 
ATOM      4  C   UNL     1     -19.945  43.059 -16.065  0.00  0.00    +0.000 A 
ATOM      5  C   UNL     1     -19.787  45.272 -16.921  0.00  0.00    +0.000 A 
ATOM      6  C   UNL     1     -20.235  43.969 -17.074  0.00  0.00    +0.000 A 
ENDROOT
BRANCH   2   7
ATOM      7  N   UNL     1     -18.079  45.233 -13.736  0.00  0.00    +0.000 N 
ATOM      8  C   UNL     1     -16.300  45.592 -12.240  0.00  0.00    +0.000 C 
ATOM      9  C   UNL     1     -17.558  46.221 -11.666  0.00  0.00    +0.000 C 
ATOM     10  C   UNL     1     -16.633  45.442 -13.723  0.00  0.00    +0.000 C 
ATOM     11  C   UNL     1     -18.677  45.521 -12.435  0.00  0.00    +0.000 C 
ENDBRANCH   2   7
BRANCH   3  14
ATOM     12  O   UNL     1     -19.846  41.964 -13.264  0.00  0.00    +0.000 OA
ATOM     13  N   UNL     1     -17.578  42.227 -13.663  0.00  0.00    +0.000 N 
ATOM     14  C   UNL     1     -18.927  42.511 -13.896  0.00  0.00    +0.000 C 
ATOM     15  H   UNL     1     -16.874  42.714 -14.211  0.00  0.00    +0.000 HD
BRANCH  13  16
ATOM     16  C   UNL     1     -17.122  41.279 -12.671  0.00  0.00    +0.000 C 
BRANCH  16  17
ATOM     17  C   UNL     1     -16.689  42.021 -11.450  0.00  0.00    +0.000 C 
ATOM     18  C   UNL     1     -17.531  42.473 -10.514  0.00  0.00    +0.000 C 
ENDBRANCH  16  17
ENDBRANCH  13  16
ENDBRANCH   3  14
TORSDOF 4
ENDMDL
MODEL 5
REMARK VINA RESULT:    -4.920      1.954      4.247
REMARK INTER + INTRA:          -6.390
REMARK INTER:                  -5.859
REMARK INTRA:                  -0.531
REMARK UNBOUND:                -0.320
REMARK  Name = 9399926
REMARK  4 active torsions:
REMARK  status: ('A' for Active; 'I' for Inactive)
REMARK    1  A    between atoms: N_2  and  C_9
REMARK    2  A    between atoms: N_4  and  C_15
REMARK    3  A    between atoms: C_10  and  C_12
REMARK    4  A    between atoms: C_15  and  C_16
REMARK                            x       y       z     vdW  Elec       q    Type
REMARK                         _______ _______ _______ _____ _____    ______ ____
ROOT
ATOM      1  N   UNL     1     -14.776  42.350 -11.257  0.00  0.00    +0.000 NA
ATOM      2  C   UNL     1     -16.004  42.702 -11.783  0.00  0.00    +0.000 A 
ATOM      3  C   UNL     1     -16.197  44.012 -12.287  0.00  0.00    +0.000 A 
ATOM      4  C   UNL     1     -15.158  44.934 -12.251  0.00  0.00    +0.000 A 
ATOM      5  C   UNL     1     -13.789  43.274 -11.238  0.00  0.00    +0.000 A 
ATOM      6  C   UNL     1     -13.927  44.567 -11.718  0.00  0.00    +0.000 A 
ENDROOT
BRANCH   2   7
ATOM      7  N   UNL     1     -17.030  41.782 -11.815  0.00  0.00    +0.000 N 
ATOM      8  C   UNL     1     -18.681  40.316 -12.625  0.00  0.00    +0.000 C 
ATOM      9  C   UNL     1     -18.695  40.280 -11.107  0.00  0.00    +0.000 C 
ATOM     10  C   UNL     1     -17.306  40.899 -12.945  0.00  0.00    +0.000 C 
ATOM     11  C   UNL     1     -17.977  41.571 -10.722  0.00  0.00    +0.000 C 
ENDBRANCH   2   7
BRANCH   3  14
ATOM     12  O   UNL     1     -18.362  44.896 -12.119  0.00  0.00    +0.000 OA
ATOM     13  N   UNL     1     -17.654  44.231 -14.224  0.00  0.00    +0.000 N 
ATOM     14  C   UNL     1     -17.482  44.407 -12.847  0.00  0.00    +0.000 C 
ATOM     15  H   UNL     1     -16.897  43.818 -14.762  0.00  0.00    +0.000 HD
BRANCH  13  16
ATOM     16  C   UNL     1     -18.861  44.596 -14.930  0.00  0.00    +0.000 C 
BRANCH  16  17
ATOM     17  C   UNL     1     -19.652  43.362 -15.215  0.00  0.00    +0.000 C 
ATOM     18  C   UNL     1     -20.233  43.103 -16.392  0.00  0.00    +0.000 C 
ENDBRANCH  16  17
ENDBRANCH  13  16
ENDBRANCH   3  14
TORSDOF 4
ENDMDL
