MODEL 1
REMARK VINA RESULT:    -6.904      0.000      0.000
REMARK INTER + INTRA:          -7.346
REMARK INTER:                  -7.308
REMARK INTRA:                  -0.039
REMARK UNBOUND:                -0.039
REMARK  Name = 9500
REMARK  1 active torsions:
REMARK  status: ('A' for Active; 'I' for Inactive)
REMARK    1  A    between atoms: C_5  and  C_10
REMARK                            x       y       z     vdW  Elec       q    Type
REMARK                         _______ _______ _______ _____ _____    ______ ____
ROOT
ATOM      1  N   UNL     1     -18.824  41.922  -7.816  0.00  0.00    +0.000 NA
ATOM      2  N   UNL     1     -17.611  40.570  -9.356  0.00  0.00    +0.000 N 
ATOM      3  C   UNL     1     -21.200  41.570  -7.538  0.00  0.00    +0.000 A 
ATOM      4  C   UNL     1     -21.166  40.548  -8.480  0.00  0.00    +0.000 A 
ATOM      5  C   UNL     1     -19.962  40.212  -9.090  0.00  0.00    +0.000 A 
ATOM      6  C   UNL     1     -18.830  40.923  -8.726  0.00  0.00    +0.000 A 
ATOM      7  C   UNL     1     -20.012  42.221  -7.244  0.00  0.00    +0.000 A 
ATOM      8  H   UNL     1     -16.788  41.097  -9.092  0.00  0.00    +0.000 HD
ATOM      9  H   UNL     1     -17.648  40.171 -10.287  0.00  0.00    +0.000 HD
ENDROOT
BRANCH   3  12
ATOM     10  O   UNL     1     -23.396  41.152  -6.797  0.00  0.00    +0.000 OA
ATOM     11  N   UNL     1     -22.526  43.223  -6.335  0.00  0.00    +0.000 N 
ATOM     12  C   UNL     1     -22.440  41.945  -6.884  0.00  0.00    +0.000 C 
ATOM     13  H   UNL     1     -21.796  43.923  -6.359  0.00  0.00    +0.000 HD
ATOM     14  H   UNL     1     -23.380  43.508  -5.866  0.00  0.00    +0.000 HD
ENDBRANCH   3  12
TORSDOF 1
ENDMDL
MODEL 2
REMARK VINA RESULT:    -5.977      1.927      4.256
REMARK INTER + INTRA:          -6.365
REMARK INTER:                  -6.324
REMARK INTRA:                  -0.041
REMARK UNBOUND:                -0.039
REMARK  Name = 9500
REMARK  1 active torsions:
REMARK  status: ('A' for Active; 'I' for Inactive)
REMARK    1  A    between atoms: C_5  and  C_10
REMARK                            x       y       z     vdW  Elec       q    Type
REMARK                         _______ _______ _______ _____ _____    ______ ____
ROOT
ATOM      1  N   UNL     1     -22.267  41.379  -7.481  0.00  0.00    +0.000 NA
ATOM      2  N   UNL     1     -22.622  42.982  -5.755  0.00  0.00    +0.000 N 
ATOM      3  C   UNL     1     -20.027  40.990  -8.301  0.00  0.00    +0.000 A 
ATOM      4  C   UNL     1     -19.528  41.936  -7.413  0.00  0.00    +0.000 A 
ATOM      5  C   UNL     1     -20.399  42.605  -6.558  0.00  0.00    +0.000 A 
ATOM      6  C   UNL     1     -21.747  42.292  -6.631  0.00  0.00    +0.000 A 
ATOM      7  C   UNL     1     -21.391  40.750  -8.297  0.00  0.00    +0.000 A 
ATOM      8  H   UNL     1     -23.606  42.755  -5.817  0.00  0.00    +0.000 HD
ATOM      9  H   UNL     1     -22.361  43.911  -5.448  0.00  0.00    +0.000 HD
ENDROOT
BRANCH   3  12
ATOM     10  O   UNL     1     -19.591  39.522 -10.091  0.00  0.00    +0.000 OA
ATOM     11  N   UNL     1     -17.772  40.473  -9.068  0.00  0.00    +0.000 N 
ATOM     12  C   UNL     1     -19.144  40.275  -9.207  0.00  0.00    +0.000 C 
ATOM     13  H   UNL     1     -17.331  41.069  -8.381  0.00  0.00    +0.000 HD
ATOM     14  H   UNL     1     -17.133  39.990  -9.693  0.00  0.00    +0.000 HD
ENDBRANCH   3  12
TORSDOF 1
ENDMDL
MODEL 3
REMARK VINA RESULT:    -5.942      2.799      4.318
REMARK INTER + INTRA:          -6.328
REMARK INTER:                  -6.288
REMARK INTRA:                  -0.040
REMARK UNBOUND:                -0.039
REMARK  Name = 9500
REMARK  1 active torsions:
REMARK  status: ('A' for Active; 'I' for Inactive)
REMARK    1  A    between atoms: C_5  and  C_10
REMARK                            x       y       z     vdW  Elec       q    Type
REMARK                         _______ _______ _______ _____ _____    ______ ____
ROOT
ATOM      1  N   UNL     1     -18.787  42.125  -7.933  0.00  0.00    +0.000 NA
ATOM      2  N   UNL     1     -20.453  42.575  -6.291  0.00  0.00    +0.000 N 
ATOM      3  C   UNL     1     -19.223  40.480  -9.651  0.00  0.00    +0.000 A 
ATOM      4  C   UNL     1     -20.483  40.241  -9.113  0.00  0.00    +0.000 A 
ATOM      5  C   UNL     1     -20.896  40.944  -7.985  0.00  0.00    +0.000 A 
ATOM      6  C   UNL     1     -20.019  41.867  -7.439  0.00  0.00    +0.000 A 
ATOM      7  C   UNL     1     -18.420  41.423  -9.029  0.00  0.00    +0.000 A 
ATOM      8  H   UNL     1     -19.806  43.242  -5.892  0.00  0.00    +0.000 HD
ATOM      9  H   UNL     1     -21.125  42.129  -5.677  0.00  0.00    +0.000 HD
ENDROOT
BRANCH   3  12
ATOM     10  O   UNL     1     -17.558  39.732 -11.139  0.00  0.00    +0.000 OA
ATOM     11  N   UNL     1     -19.712  39.087 -11.589  0.00  0.00    +0.000 N 
ATOM     12  C   UNL     1     -18.763  39.762 -10.826  0.00  0.00    +0.000 C 
ATOM     13  H   UNL     1     -20.706  39.059 -11.401  0.00  0.00    +0.000 HD
ATOM     14  H   UNL     1     -19.416  38.572 -12.413  0.00  0.00    +0.000 HD
ENDBRANCH   3  12
TORSDOF 1
ENDMDL
MODEL 4
REMARK VINA RESULT:    -4.983      3.531      5.216
REMARK INTER + INTRA:          -5.313
REMARK INTER:                  -5.281
REMARK INTRA:                  -0.032
REMARK UNBOUND:                -0.039
REMARK  Name = 9500
REMARK  1 active torsions:
REMARK  status: ('A' for Active; 'I' for Inactive)
REMARK    1  A    between atoms: C_5  and  C_10
REMARK                            x       y       z     vdW  Elec       q    Type
REMARK                         _______ _______ _______ _____ _____    ______ ____
ROOT
ATOM      1  N   UNL     1     -20.063  40.258  -9.026  0.00  0.00    +0.000 NA
ATOM      2  N   UNL     1     -19.982  41.803  -7.215  0.00  0.00    +0.000 N 
ATOM      3  C   UNL     1     -18.443  40.433 -10.812  0.00  0.00    +0.000 A 
ATOM      4  C   UNL     1     -17.856  41.526 -10.184  0.00  0.00    +0.000 A 
ATOM      5  C   UNL     1     -18.373  41.986  -8.976  0.00  0.00    +0.000 A 
ATOM      6  C   UNL     1     -19.467  41.323  -8.444  0.00  0.00    +0.000 A 
ATOM      7  C   UNL     1     -19.534  39.839 -10.198  0.00  0.00    +0.000 A 
ATOM      8  H   UNL     1     -20.785  41.319  -6.833  0.00  0.00    +0.000 HD
ATOM      9  H   UNL     1     -19.861  42.784  -6.993  0.00  0.00    +0.000 HD
ENDROOT
BRANCH   3  12
ATOM     10  O   UNL     1     -16.728  39.627 -12.211  0.00  0.00    +0.000 OA
ATOM     11  N   UNL     1     -18.826  39.775 -13.127  0.00  0.00    +0.000 N 
ATOM     12  C   UNL     1     -17.928  39.929 -12.073  0.00  0.00    +0.000 C 
ATOM     13  H   UNL     1     -19.814  39.993 -13.094  0.00  0.00    +0.000 HD
ATOM     14  H   UNL     1     -18.493  39.418 -14.017  0.00  0.00    +0.000 HD
ENDBRANCH   3  12
TORSDOF 1
ENDMDL
MODEL 5
REMARK VINA RESULT:    -4.912      3.616      5.374
REMARK INTER + INTRA:          -5.238
REMARK INTER:                  -5.204
REMARK INTRA:                  -0.034
REMARK UNBOUND:                -0.039
REMARK  Name = 9500
REMARK  1 active torsions:
REMARK  status: ('A' for Active; 'I' for Inactive)
REMARK    1  A    between atoms: C_5  and  C_10
REMARK                            x       y       z     vdW  Elec       q    Type
REMARK                         _______ _______ _______ _____ _____    ______ ____
ROOT
ATOM      1  N   UNL     1     -18.122  42.343  -9.061  0.00  0.00    +0.000 NA
ATOM      2  N   UNL     1     -19.535  41.443  -7.368  0.00  0.00    +0.000 N 
ATOM      3  C   UNL     1     -17.861  41.153 -11.150  0.00  0.00    +0.000 A 
ATOM      4  C   UNL     1     -18.724  40.159 -10.700  0.00  0.00    +0.000 A 
ATOM      5  C   UNL     1     -19.285  40.257  -9.431  0.00  0.00    +0.000 A 
ATOM      6  C   UNL     1     -18.955  41.358  -8.658  0.00  0.00    +0.000 A 
ATOM      7  C   UNL     1     -17.594  42.215 -10.300  0.00  0.00    +0.000 A 
ATOM      8  H   UNL     1     -19.286  42.246  -6.805  0.00  0.00    +0.000 HD
ATOM      9  H   UNL     1     -19.784  40.583  -6.895  0.00  0.00    +0.000 HD
ENDROOT
BRANCH   3  12
ATOM     10  O   UNL     1     -17.243  42.064 -13.232  0.00  0.00    +0.000 OA
ATOM     11  N   UNL     1     -16.676  39.875 -12.852  0.00  0.00    +0.000 N 
ATOM     12  C   UNL     1     -17.258  41.081 -12.469  0.00  0.00    +0.000 C 
ATOM     13  H   UNL     1     -16.643  39.033 -12.291  0.00  0.00    +0.000 HD
ATOM     14  H   UNL     1     -16.242  39.799 -13.767  0.00  0.00    +0.000 HD
ENDBRANCH   3  12
TORSDOF 1
ENDMDL
