MODEL 1
REMARK VINA RESULT:    -6.224      0.000      0.000
REMARK INTER + INTRA:          -6.676
REMARK INTER:                  -6.588
REMARK INTRA:                  -0.088
REMARK UNBOUND:                -0.088
REMARK  Name = 96933
REMARK  3 active torsions:
REMARK  status: ('A' for Active; 'I' for Inactive)
REMARK    1  A    between atoms: N_2  and  C_11
REMARK    2  A    between atoms: N_4  and  C_12
REMARK    3  A    between atoms: C_5  and  C_10
REMARK                            x       y       z     vdW  Elec       q    Type
REMARK                         _______ _______ _______ _____ _____    ______ ____
ROOT
ATOM      1  N   UNL     1     -21.218  42.420  -6.526  0.00  0.00    +0.000 N 
ATOM      2  N   UNL     1     -21.135  40.835  -8.303  0.00  0.00    +0.000 NA
ATOM      3  C   UNL     1     -19.082  40.553  -9.548  0.00  0.00    +0.000 A 
ATOM      4  C   UNL     1     -20.502  41.772  -7.563  0.00  0.00    +0.000 A 
ATOM      5  C   UNL     1     -18.466  41.521  -8.765  0.00  0.00    +0.000 A 
ATOM      6  C   UNL     1     -19.182  42.147  -7.751  0.00  0.00    +0.000 A 
ATOM      7  C   UNL     1     -20.407  40.248  -9.279  0.00  0.00    +0.000 A 
ATOM      8  C   UNL     1     -22.584  42.125  -6.232  0.00  0.00    +0.000 C 
ATOM      9  H   UNL     1     -20.811  43.265  -6.140  0.00  0.00    +0.000 HD
ENDROOT
BRANCH   3  12
ATOM     10  O   UNL     1     -18.913  38.994 -11.292  0.00  0.00    +0.000 OA
ATOM     11  N   UNL     1     -17.042  40.287 -10.848  0.00  0.00    +0.000 N 
ATOM     12  C   UNL     1     -18.361  39.878 -10.614  0.00  0.00    +0.000 C 
ATOM     13  C   UNL     1     -16.203  39.732 -11.884  0.00  0.00    +0.000 C 
ATOM     14  H   UNL     1     -16.654  41.068 -10.328  0.00  0.00    +0.000 HD
ENDBRANCH   3  12
TORSDOF 1
ENDMDL
MODEL 2
REMARK VINA RESULT:    -5.558      1.985      5.206
REMARK INTER + INTRA:          -5.971
REMARK INTER:                  -5.895
REMARK INTRA:                  -0.076
REMARK UNBOUND:                -0.088
REMARK  Name = 96933
REMARK  3 active torsions:
REMARK  status: ('A' for Active; 'I' for Inactive)
REMARK    1  A    between atoms: N_2  and  C_11
REMARK    2  A    between atoms: N_4  and  C_12
REMARK    3  A    between atoms: C_5  and  C_10
REMARK                            x       y       z     vdW  Elec       q    Type
REMARK                         _______ _______ _______ _____ _____    ______ ____
ROOT
ATOM      1  N   UNL     1     -16.953  40.796 -12.088  0.00  0.00    +0.000 N 
ATOM      2  N   UNL     1     -18.784  40.112 -10.726  0.00  0.00    +0.000 NA
ATOM      3  C   UNL     1     -19.364  41.413  -8.772  0.00  0.00    +0.000 A 
ATOM      4  C   UNL     1     -17.787  40.993 -10.958  0.00  0.00    +0.000 A 
ATOM      5  C   UNL     1     -18.327  42.298  -9.046  0.00  0.00    +0.000 A 
ATOM      6  C   UNL     1     -17.519  42.091 -10.158  0.00  0.00    +0.000 A 
ATOM      7  C   UNL     1     -19.550  40.346  -9.636  0.00  0.00    +0.000 A 
ATOM      8  C   UNL     1     -17.124  39.703 -12.989  0.00  0.00    +0.000 C 
ATOM      9  H   UNL     1     -16.086  41.320 -12.120  0.00  0.00    +0.000 HD
ENDROOT
BRANCH   3  12
ATOM     10  O   UNL     1     -19.754  41.951  -6.523  0.00  0.00    +0.000 OA
ATOM     11  N   UNL     1     -21.600  41.401  -7.813  0.00  0.00    +0.000 N 
ATOM     12  C   UNL     1     -20.227  41.603  -7.620  0.00  0.00    +0.000 C 
ATOM     13  C   UNL     1     -22.589  41.574  -6.773  0.00  0.00    +0.000 C 
ATOM     14  H   UNL     1     -21.956  41.198  -8.741  0.00  0.00    +0.000 HD
ENDBRANCH   3  12
TORSDOF 1
ENDMDL
MODEL 3
REMARK VINA RESULT:    -5.087      3.440      5.654
REMARK INTER + INTRA:          -5.472
REMARK INTER:                  -5.409
REMARK INTRA:                  -0.063
REMARK UNBOUND:                -0.088
REMARK  Name = 96933
REMARK  3 active torsions:
REMARK  status: ('A' for Active; 'I' for Inactive)
REMARK    1  A    between atoms: N_2  and  C_11
REMARK    2  A    between atoms: N_4  and  C_12
REMARK    3  A    between atoms: C_5  and  C_10
REMARK                            x       y       z     vdW  Elec       q    Type
REMARK                         _______ _______ _______ _____ _____    ______ ____
ROOT
ATOM      1  N   UNL     1     -17.518  44.534 -14.263  0.00  0.00    +0.000 N 
ATOM      2  N   UNL     1     -17.294  43.347 -12.210  0.00  0.00    +0.000 NA
ATOM      3  C   UNL     1     -18.764  41.484 -11.747  0.00  0.00    +0.000 A 
ATOM      4  C   UNL     1     -17.932  43.496 -13.392  0.00  0.00    +0.000 A 
ATOM      5  C   UNL     1     -19.395  41.669 -12.972  0.00  0.00    +0.000 A 
ATOM      6  C   UNL     1     -18.977  42.692 -13.816  0.00  0.00    +0.000 A 
ATOM      7  C   UNL     1     -17.727  42.342 -11.416  0.00  0.00    +0.000 A 
ATOM      8  C   UNL     1     -16.455  45.431 -13.943  0.00  0.00    +0.000 C 
ATOM      9  H   UNL     1     -18.143  44.774 -15.026  0.00  0.00    +0.000 HD
ENDROOT
BRANCH   3  12
ATOM     10  O   UNL     1     -18.711  39.275 -10.962  0.00  0.00    +0.000 OA
ATOM     11  N   UNL     1     -20.087  40.763  -9.837  0.00  0.00    +0.000 N 
ATOM     12  C   UNL     1     -19.175  40.423 -10.844  0.00  0.00    +0.000 C 
ATOM     13  C   UNL     1     -20.572  39.828  -8.848  0.00  0.00    +0.000 C 
ATOM     14  H   UNL     1     -20.379  41.728  -9.723  0.00  0.00    +0.000 HD
ENDBRANCH   3  12
TORSDOF 1
ENDMDL
MODEL 4
REMARK VINA RESULT:    -5.019      4.509      5.262
REMARK INTER + INTRA:          -5.400
REMARK INTER:                  -5.314
REMARK INTRA:                  -0.087
REMARK UNBOUND:                -0.088
REMARK  Name = 96933
REMARK  3 active torsions:
REMARK  status: ('A' for Active; 'I' for Inactive)
REMARK    1  A    between atoms: N_2  and  C_11
REMARK    2  A    between atoms: N_4  and  C_12
REMARK    3  A    between atoms: C_5  and  C_10
REMARK                            x       y       z     vdW  Elec       q    Type
REMARK                         _______ _______ _______ _____ _____    ______ ____
ROOT
ATOM      1  N   UNL     1     -17.679  41.937  -9.762  0.00  0.00    +0.000 N 
ATOM      2  N   UNL     1     -19.010  41.419 -11.669  0.00  0.00    +0.000 NA
ATOM      3  C   UNL     1     -19.079  42.966 -13.526  0.00  0.00    +0.000 A 
ATOM      4  C   UNL     1     -18.167  42.274 -11.050  0.00  0.00    +0.000 A 
ATOM      5  C   UNL     1     -18.209  43.819 -12.857  0.00  0.00    +0.000 A 
ATOM      6  C   UNL     1     -17.740  43.474 -11.595  0.00  0.00    +0.000 A 
ATOM      7  C   UNL     1     -19.445  41.788 -12.895  0.00  0.00    +0.000 A 
ATOM      8  C   UNL     1     -18.044  40.731  -9.092  0.00  0.00    +0.000 C 
ATOM      9  H   UNL     1     -17.242  42.678  -9.225  0.00  0.00    +0.000 HD
ENDROOT
BRANCH   3  12
ATOM     10  O   UNL     1     -20.573  42.701 -15.314  0.00  0.00    +0.000 OA
ATOM     11  N   UNL     1     -18.929  44.319 -15.543  0.00  0.00    +0.000 N 
ATOM     12  C   UNL     1     -19.585  43.296 -14.847  0.00  0.00    +0.000 C 
ATOM     13  C   UNL     1     -19.327  44.779 -16.854  0.00  0.00    +0.000 C 
ATOM     14  H   UNL     1     -18.179  44.836 -15.095  0.00  0.00    +0.000 HD
ENDBRANCH   3  12
TORSDOF 1
ENDMDL
MODEL 5
REMARK VINA RESULT:    -4.825      2.379      5.353
REMARK INTER + INTRA:          -5.196
REMARK INTER:                  -5.114
REMARK INTRA:                  -0.082
REMARK UNBOUND:                -0.088
REMARK  Name = 96933
REMARK  3 active torsions:
REMARK  status: ('A' for Active; 'I' for Inactive)
REMARK    1  A    between atoms: N_2  and  C_11
REMARK    2  A    between atoms: N_4  and  C_12
REMARK    3  A    between atoms: C_5  and  C_10
REMARK                            x       y       z     vdW  Elec       q    Type
REMARK                         _______ _______ _______ _____ _____    ______ ____
ROOT
ATOM      1  N   UNL     1     -16.796  42.673 -13.200  0.00  0.00    +0.000 N 
ATOM      2  N   UNL     1     -17.260  42.853 -10.870  0.00  0.00    +0.000 NA
ATOM      3  C   UNL     1     -18.926  41.411  -9.875  0.00  0.00    +0.000 A 
ATOM      4  C   UNL     1     -17.515  42.253 -12.053  0.00  0.00    +0.000 A 
ATOM      5  C   UNL     1     -19.160  40.818 -11.110  0.00  0.00    +0.000 A 
ATOM      6  C   UNL     1     -18.445  41.241 -12.225  0.00  0.00    +0.000 A 
ATOM      7  C   UNL     1     -17.974  42.415  -9.809  0.00  0.00    +0.000 A 
ATOM      8  C   UNL     1     -15.813  43.707 -13.156  0.00  0.00    +0.000 C 
ATOM      9  H   UNL     1     -17.153  42.382 -14.103  0.00  0.00    +0.000 HD
ENDROOT
BRANCH   3  12
ATOM     10  O   UNL     1     -20.047  39.815  -8.572  0.00  0.00    +0.000 OA
ATOM     11  N   UNL     1     -19.866  41.955  -7.697  0.00  0.00    +0.000 N 
ATOM     12  C   UNL     1     -19.655  40.990  -8.691  0.00  0.00    +0.000 C 
ATOM     13  C   UNL     1     -20.551  41.686  -6.453  0.00  0.00    +0.000 C 
ATOM     14  H   UNL     1     -19.460  42.879  -7.795  0.00  0.00    +0.000 HD
ENDBRANCH   3  12
TORSDOF 1
ENDMDL
