MODEL 1
REMARK VINA RESULT:    -6.923      0.000      0.000
REMARK INTER + INTRA:          -7.778
REMARK INTER:                  -7.732
REMARK INTRA:                  -0.046
REMARK UNBOUND:                -0.046
REMARK  Name = 9942190
REMARK  3 active torsions:
REMARK  status: ('A' for Active; 'I' for Inactive)
REMARK    1  A    between atoms: N_3  and  C_7
REMARK    2  A    between atoms: N_4  and  C_9
REMARK    3  A    between atoms: C_6  and  C_11
REMARK                            x       y       z     vdW  Elec       q    Type
REMARK                         _______ _______ _______ _____ _____    ______ ____
ROOT
ATOM      1  N   UNL     1     -18.853  41.939  -7.678  0.00  0.00    +0.000 NA
ATOM      2  C   UNL     1     -21.235  41.572  -7.498  0.00  0.00    +0.000 A 
ATOM      3  C   UNL     1     -19.978  40.449  -9.214  0.00  0.00    +0.000 A 
ATOM      4  C   UNL     1     -21.190  40.701  -8.581  0.00  0.00    +0.000 A 
ATOM      5  C   UNL     1     -18.848  41.087  -8.728  0.00  0.00    +0.000 A 
ATOM      6  C   UNL     1     -20.048  42.160  -7.089  0.00  0.00    +0.000 A 
ENDROOT
BRANCH   2   9
ATOM      7  O   UNL     1     -23.417  41.032  -6.794  0.00  0.00    +0.000 OA
ATOM      8  N   UNL     1     -22.606  43.083  -6.167  0.00  0.00    +0.000 N 
ATOM      9  C   UNL     1     -22.485  41.857  -6.816  0.00  0.00    +0.000 C 
ATOM     10  H   UNL     1     -21.896  43.804  -6.133  0.00  0.00    +0.000 HD
ATOM     11  H   UNL     1     -23.467  43.305  -5.676  0.00  0.00    +0.000 HD
ENDBRANCH   2   9
BRANCH   3  12
ATOM     12  N   UNL     1     -19.930  39.567 -10.309  0.00  0.00    +0.000 N 
ATOM     13  H   UNL     1     -20.778  39.299 -10.790  0.00  0.00    +0.000 HD
ATOM     14  H   UNL     1     -19.052  39.144 -10.579  0.00  0.00    +0.000 HD
ENDBRANCH   3  12
BRANCH   5  15
ATOM     15  N   UNL     1     -17.607  40.835  -9.366  0.00  0.00    +0.000 N 
ATOM     16  H   UNL     1     -17.536  41.012 -10.359  0.00  0.00    +0.000 HD
ATOM     17  H   UNL     1     -17.057  40.073  -8.989  0.00  0.00    +0.000 HD
ENDBRANCH   5  15
TORSDOF 3
ENDMDL
MODEL 2
REMARK VINA RESULT:    -5.980      2.134      4.097
REMARK INTER + INTRA:          -6.725
REMARK INTER:                  -6.677
REMARK INTRA:                  -0.048
REMARK UNBOUND:                -0.046
REMARK  Name = 9942190
REMARK  3 active torsions:
REMARK  status: ('A' for Active; 'I' for Inactive)
REMARK    1  A    between atoms: N_3  and  C_7
REMARK    2  A    between atoms: N_4  and  C_9
REMARK    3  A    between atoms: C_6  and  C_11
REMARK                            x       y       z     vdW  Elec       q    Type
REMARK                         _______ _______ _______ _____ _____    ______ ____
ROOT
ATOM      1  N   UNL     1     -19.489  42.355  -7.113  0.00  0.00    +0.000 NA
ATOM      2  C   UNL     1     -19.497  40.790  -8.955  0.00  0.00    +0.000 A 
ATOM      3  C   UNL     1     -21.520  41.191  -7.716  0.00  0.00    +0.000 A 
ATOM      4  C   UNL     1     -20.848  40.536  -8.743  0.00  0.00    +0.000 A 
ATOM      5  C   UNL     1     -20.802  42.083  -6.937  0.00  0.00    +0.000 A 
ATOM      6  C   UNL     1     -18.870  41.700  -8.120  0.00  0.00    +0.000 A 
ENDROOT
BRANCH   2   9
ATOM      7  O   UNL     1     -19.321  39.303 -10.773  0.00  0.00    +0.000 OA
ATOM      8  N   UNL     1     -17.421  40.442 -10.181  0.00  0.00    +0.000 N 
ATOM      9  C   UNL     1     -18.767  40.122 -10.018  0.00  0.00    +0.000 C 
ATOM     10  H   UNL     1     -16.899  41.099  -9.615  0.00  0.00    +0.000 HD
ATOM     11  H   UNL     1     -16.889  39.995 -10.921  0.00  0.00    +0.000 HD
ENDBRANCH   2   9
BRANCH   3  12
ATOM     12  N   UNL     1     -22.887  40.936  -7.501  0.00  0.00    +0.000 N 
ATOM     13  H   UNL     1     -23.393  41.425  -6.775  0.00  0.00    +0.000 HD
ATOM     14  H   UNL     1     -23.355  40.212  -8.030  0.00  0.00    +0.000 HD
ENDBRANCH   3  12
BRANCH   5  15
ATOM     15  N   UNL     1     -21.479  42.756  -5.888  0.00  0.00    +0.000 N 
ATOM     16  H   UNL     1     -21.112  42.668  -4.949  0.00  0.00    +0.000 HD
ATOM     17  H   UNL     1     -22.482  42.846  -5.989  0.00  0.00    +0.000 HD
ENDBRANCH   5  15
TORSDOF 3
ENDMDL
MODEL 3
REMARK VINA RESULT:    -5.828      1.158      2.073
REMARK INTER + INTRA:          -6.555
REMARK INTER:                  -6.512
REMARK INTRA:                  -0.042
REMARK UNBOUND:                -0.046
REMARK  Name = 9942190
REMARK  3 active torsions:
REMARK  status: ('A' for Active; 'I' for Inactive)
REMARK    1  A    between atoms: N_3  and  C_7
REMARK    2  A    between atoms: N_4  and  C_9
REMARK    3  A    between atoms: C_6  and  C_11
REMARK                            x       y       z     vdW  Elec       q    Type
REMARK                         _______ _______ _______ _____ _____    ______ ____
ROOT
ATOM      1  N   UNL     1     -20.712  39.848  -9.195  0.00  0.00    +0.000 NA
ATOM      2  C   UNL     1     -20.909  41.550  -7.491  0.00  0.00    +0.000 A 
ATOM      3  C   UNL     1     -18.939  41.460  -8.869  0.00  0.00    +0.000 A 
ATOM      4  C   UNL     1     -19.662  42.057  -7.842  0.00  0.00    +0.000 A 
ATOM      5  C   UNL     1     -19.503  40.368  -9.508  0.00  0.00    +0.000 A 
ATOM      6  C   UNL     1     -21.385  40.454  -8.192  0.00  0.00    +0.000 A 
ENDROOT
BRANCH   2   9
ATOM      7  O   UNL     1     -22.910  42.356  -6.545  0.00  0.00    +0.000 OA
ATOM      8  N   UNL     1     -21.028  42.476  -5.241  0.00  0.00    +0.000 N 
ATOM      9  C   UNL     1     -21.688  42.151  -6.422  0.00  0.00    +0.000 C 
ATOM     10  H   UNL     1     -20.042  42.337  -5.060  0.00  0.00    +0.000 HD
ATOM     11  H   UNL     1     -21.551  42.890  -4.475  0.00  0.00    +0.000 HD
ENDBRANCH   2   9
BRANCH   3  12
ATOM     12  N   UNL     1     -17.678  41.971  -9.226  0.00  0.00    +0.000 N 
ATOM     13  H   UNL     1     -17.604  42.791  -9.814  0.00  0.00    +0.000 HD
ATOM     14  H   UNL     1     -16.838  41.481  -8.950  0.00  0.00    +0.000 HD
ENDBRANCH   3  12
BRANCH   5  15
ATOM     15  N   UNL     1     -18.774  39.753 -10.557  0.00  0.00    +0.000 N 
ATOM     16  H   UNL     1     -17.764  39.776 -10.514  0.00  0.00    +0.000 HD
ATOM     17  H   UNL     1     -19.201  39.780 -11.475  0.00  0.00    +0.000 HD
ENDBRANCH   5  15
TORSDOF 3
ENDMDL
MODEL 4
REMARK VINA RESULT:    -5.723      2.791      4.171
REMARK INTER + INTRA:          -6.438
REMARK INTER:                  -6.390
REMARK INTRA:                  -0.048
REMARK UNBOUND:                -0.046
REMARK  Name = 9942190
REMARK  3 active torsions:
REMARK  status: ('A' for Active; 'I' for Inactive)
REMARK    1  A    between atoms: N_3  and  C_7
REMARK    2  A    between atoms: N_4  and  C_9
REMARK    3  A    between atoms: C_6  and  C_11
REMARK                            x       y       z     vdW  Elec       q    Type
REMARK                         _______ _______ _______ _____ _____    ______ ____
ROOT
ATOM      1  N   UNL     1     -18.714  39.455 -12.130  0.00  0.00    +0.000 NA
ATOM      2  C   UNL     1     -18.943  40.186  -9.837  0.00  0.00    +0.000 A 
ATOM      3  C   UNL     1     -16.850  40.484 -10.984  0.00  0.00    +0.000 A 
ATOM      4  C   UNL     1     -17.624  40.629  -9.838  0.00  0.00    +0.000 A 
ATOM      5  C   UNL     1     -17.436  39.897 -12.094  0.00  0.00    +0.000 A 
ATOM      6  C   UNL     1     -19.436  39.612 -10.998  0.00  0.00    +0.000 A 
ENDROOT
BRANCH   2   9
ATOM      7  O   UNL     1     -19.338  40.816  -7.602  0.00  0.00    +0.000 OA
ATOM      8  N   UNL     1     -21.101  39.897  -8.744  0.00  0.00    +0.000 N 
ATOM      9  C   UNL     1     -19.778  40.322  -8.657  0.00  0.00    +0.000 C 
ATOM     10  H   UNL     1     -21.536  39.491  -9.563  0.00  0.00    +0.000 HD
ATOM     11  H   UNL     1     -21.709  39.987  -7.936  0.00  0.00    +0.000 HD
ENDBRANCH   2   9
BRANCH   3  12
ATOM     12  N   UNL     1     -15.516  40.931 -10.988  0.00  0.00    +0.000 N 
ATOM     13  H   UNL     1     -15.300  41.906 -10.828  0.00  0.00    +0.000 HD
ATOM     14  H   UNL     1     -14.769  40.289 -11.218  0.00  0.00    +0.000 HD
ENDBRANCH   3  12
BRANCH   5  15
ATOM     15  N   UNL     1     -16.655  39.746 -13.267  0.00  0.00    +0.000 N 
ATOM     16  H   UNL     1     -16.012  38.966 -13.316  0.00  0.00    +0.000 HD
ATOM     17  H   UNL     1     -16.385  40.600 -13.738  0.00  0.00    +0.000 HD
ENDBRANCH   5  15
TORSDOF 3
ENDMDL
MODEL 5
REMARK VINA RESULT:    -5.383      3.202      4.983
REMARK INTER + INTRA:          -6.058
REMARK INTER:                  -6.014
REMARK INTRA:                  -0.044
REMARK UNBOUND:                -0.046
REMARK  Name = 9942190
REMARK  3 active torsions:
REMARK  status: ('A' for Active; 'I' for Inactive)
REMARK    1  A    between atoms: N_3  and  C_7
REMARK    2  A    between atoms: N_4  and  C_9
REMARK    3  A    between atoms: C_6  and  C_11
REMARK                            x       y       z     vdW  Elec       q    Type
REMARK                         _______ _______ _______ _____ _____    ______ ____
ROOT
ATOM      1  N   UNL     1     -18.099  41.931  -9.181  0.00  0.00    +0.000 NA
ATOM      2  C   UNL     1     -18.359  40.473 -11.091  0.00  0.00    +0.000 A 
ATOM      3  C   UNL     1     -19.944  40.373  -9.285  0.00  0.00    +0.000 A 
ATOM      4  C   UNL     1     -19.502  39.921 -10.524  0.00  0.00    +0.000 A 
ATOM      5  C   UNL     1     -19.214  41.371  -8.661  0.00  0.00    +0.000 A 
ATOM      6  C   UNL     1     -17.699  41.467 -10.386  0.00  0.00    +0.000 A 
ENDROOT
BRANCH   2   9
ATOM      7  O   UNL     1     -18.651  39.707 -13.299  0.00  0.00    +0.000 OA
ATOM      8  N   UNL     1     -16.492  39.971 -12.574  0.00  0.00    +0.000 N 
ATOM      9  C   UNL     1     -17.870  40.022 -12.383  0.00  0.00    +0.000 C 
ATOM     10  H   UNL     1     -15.792  40.214 -11.884  0.00  0.00    +0.000 HD
ATOM     11  H   UNL     1     -16.124  39.666 -13.470  0.00  0.00    +0.000 HD
ENDBRANCH   2   9
BRANCH   3  12
ATOM     12  N   UNL     1     -21.102  39.817  -8.710  0.00  0.00    +0.000 N 
ATOM     13  H   UNL     1     -21.616  40.321  -8.000  0.00  0.00    +0.000 HD
ATOM     14  H   UNL     1     -21.386  38.878  -8.957  0.00  0.00    +0.000 HD
ENDBRANCH   3  12
BRANCH   5  15
ATOM     15  N   UNL     1     -19.658  41.839  -7.398  0.00  0.00    +0.000 N 
ATOM     16  H   UNL     1     -20.652  41.958  -7.255  0.00  0.00    +0.000 HD
ATOM     17  H   UNL     1     -19.040  42.480  -6.916  0.00  0.00    +0.000 HD
ENDBRANCH   5  15
TORSDOF 3
ENDMDL
